MODEL 1
REMARK VINA RESULT:      -7.0      0.000      0.000
REMARK  Name = 
REMARK  14 active torsions:
REMARK  status: ('A' for Active; 'I' for Inactive)
REMARK    1  A    between atoms: C_1  and  C_2
REMARK    2  A    between atoms: C_2  and  C_3
REMARK    3  A    between atoms: C_3  and  C_4
REMARK    4  A    between atoms: C_4  and  C_5
REMARK    5  A    between atoms: C_7  and  C_8
REMARK    6  A    between atoms: C_9  and  C_10
REMARK    7  A    between atoms: C_10  and  C_11
REMARK    8  A    between atoms: C_11  and  N_13
REMARK    9  A    between atoms: N_13  and  C_14
REMARK   10  A    between atoms: N_13  and  C_15
REMARK   11  A    between atoms: N_18  and  C_19
REMARK   12  A    between atoms: C_19  and  C_20
REMARK   13  A    between atoms: C_23  and  C_26
REMARK   14  A    between atoms: C_27  and  C_32
REMARK                            x       y       z     vdW  Elec       q    Type
REMARK                         _______ _______ _______ _____ _____    ______ ____
ROOT
ATOM      1  C   UNL     1       8.307   1.355  25.763  0.00  0.00    +0.161 C 
ENDROOT
BRANCH   1   3
ATOM      2  C   UNL     1       9.108   2.963  24.006  0.00  0.00    +0.113 A 
ATOM      3  N   UNL     1       8.211   2.581  24.975  0.00  0.00    -0.292 N 
ATOM      4  C   UNL     1       7.296   3.514  25.436  0.00  0.00    +0.258 A 
ATOM      5  O   UNL     1       6.719   3.444  26.522  0.00  0.00    -0.267 OA
ATOM      6  C   UNL     1       7.079   4.712  24.589  0.00  0.00    +0.044 A 
ATOM      7  C   UNL     1       8.046   4.981  23.698  0.00  0.00    +0.049 A 
ATOM      8  C   UNL     1       8.138   6.300  22.977  0.00  0.00    +0.066 C 
ATOM      9  N   UNL     1       9.052   4.108  23.398  0.00  0.00    -0.238 NA
BRANCH   2  10
ATOM     10  C   UNL     1      10.237   2.030  23.557  0.00  0.00    +0.074 C 
BRANCH  10  11
ATOM     11  C   UNL     1      10.260   1.799  22.036  0.00  0.00    +0.007 C 
BRANCH  11  13
ATOM     12  C   UNL     1       9.495  -0.540  21.435  0.00  0.00    +0.004 C 
ATOM     13  C   UNL     1       9.094   0.920  21.571  0.00  0.00    -0.003 C 
ENDBRANCH  11  13
ENDBRANCH  10  11
ENDBRANCH   2  10
BRANCH   6  14
ATOM     14  C   UNL     1       5.873   5.558  24.887  0.00  0.00    +0.101 C 
BRANCH  14  15
ATOM     15  C   UNL     1       4.616   5.455  23.969  0.00  0.00    +0.055 C 
ATOM     16  S   UNL     1       3.911   6.837  23.298  0.00  0.00    -0.040 S 
BRANCH  15  17
ATOM     17  N   UNL     1       4.101   4.152  23.781  0.00  0.00    -0.333 N 
ATOM     18  C   UNL     1       3.480   3.367  24.847  0.00  0.00    +0.129 C 
ATOM     19  C   UNL     1       4.250   3.403  22.528  0.00  0.00    +0.129 C 
ENDBRANCH  15  17
ENDBRANCH  14  15
ENDBRANCH   6  14
ENDBRANCH   1   3
BRANCH   1  20
ATOM     20  C   UNL     1       7.981   0.084  25.002  0.00  0.00    -0.028 A 
ATOM     21  C   UNL     1       6.758  -0.047  24.319  0.00  0.00    +0.006 A 
ATOM     22  C   UNL     1       6.371  -1.269  23.761  0.00  0.00    +0.009 A 
ATOM     23  C   UNL     1       7.165  -2.421  23.876  0.00  0.00    -0.017 A 
ATOM     24  C   UNL     1       8.423  -2.251  24.489  0.00  0.00    +0.009 A 
ATOM     25  C   UNL     1       8.835  -1.019  25.028  0.00  0.00    +0.006 A 
BRANCH  23  26
ATOM     26  C   UNL     1       6.728  -3.753  23.350  0.00  0.00    -0.007 A 
ATOM     27  C   UNL     1       6.576  -3.881  21.945  0.00  0.00    +0.009 A 
ATOM     28  C   UNL     1       6.159  -5.067  21.334  0.00  0.00    +0.001 A 
ATOM     29  C   UNL     1       5.857  -6.171  22.108  0.00  0.00    +0.001 A 
ATOM     30  C   UNL     1       5.996  -6.089  23.493  0.00  0.00    +0.012 A 
ATOM     31  C   UNL     1       6.438  -4.905  24.137  0.00  0.00    +0.028 A 
BRANCH  31  32
ATOM     32  C   UNL     1       6.614  -4.977  25.597  0.00  0.00    +0.180 A 
ATOM     33  N   UNL     1       7.624  -5.669  26.217  0.00  0.00    -0.239 N 
ATOM     34  H   UNL     1       8.369  -6.222  25.818  0.00  0.00    +0.192 HD
ATOM     35  N   UNL     1       7.546  -5.532  27.546  0.00  0.00    -0.046 NA
ATOM     36  N   UNL     1       6.493  -4.757  27.746  0.00  0.00    -0.023 NA
ATOM     37  N   UNL     1       5.915  -4.397  26.550  0.00  0.00    -0.108 NA
ENDBRANCH  31  32
ENDBRANCH  23  26
ENDBRANCH   1  20
TORSDOF 10
ENDMDL
MODEL 2
REMARK VINA RESULT:      -6.9      2.248      3.325
REMARK  Name = 
REMARK  14 active torsions:
REMARK  status: ('A' for Active; 'I' for Inactive)
REMARK    1  A    between atoms: C_1  and  C_2
REMARK    2  A    between atoms: C_2  and  C_3
REMARK    3  A    between atoms: C_3  and  C_4
REMARK    4  A    between atoms: C_4  and  C_5
REMARK    5  A    between atoms: C_7  and  C_8
REMARK    6  A    between atoms: C_9  and  C_10
REMARK    7  A    between atoms: C_10  and  C_11
REMARK    8  A    between atoms: C_11  and  N_13
REMARK    9  A    between atoms: N_13  and  C_14
REMARK   10  A    between atoms: N_13  and  C_15
REMARK   11  A    between atoms: N_18  and  C_19
REMARK   12  A    between atoms: C_19  and  C_20
REMARK   13  A    between atoms: C_23  and  C_26
REMARK   14  A    between atoms: C_27  and  C_32
REMARK                            x       y       z     vdW  Elec       q    Type
REMARK                         _______ _______ _______ _____ _____    ______ ____
ROOT
ATOM      1  C   UNL     1       9.116   0.622  21.673  0.00  0.00    +0.161 C 
ENDROOT
BRANCH   1   3
ATOM      2  C   UNL     1       9.840   2.092  23.578  0.00  0.00    +0.113 A 
ATOM      3  N   UNL     1       9.084   1.856  22.455  0.00  0.00    -0.292 N 
ATOM      4  C   UNL     1       8.032   2.712  22.171  0.00  0.00    +0.258 A 
ATOM      5  O   UNL     1       7.071   2.420  21.458  0.00  0.00    -0.267 OA
ATOM      6  C   UNL     1       8.040   4.029  22.851  0.00  0.00    +0.044 A 
ATOM      7  C   UNL     1       8.806   4.115  23.950  0.00  0.00    +0.049 A 
ATOM      8  C   UNL     1       8.703   5.261  24.922  0.00  0.00    +0.066 C 
ATOM      9  N   UNL     1       9.710   3.157  24.309  0.00  0.00    -0.238 NA
BRANCH   2  10
ATOM     10  C   UNL     1      10.921   1.106  24.030  0.00  0.00    +0.074 C 
BRANCH  10  11
ATOM     11  C   UNL     1      10.514   0.291  25.270  0.00  0.00    +0.007 C 
BRANCH  11  13
ATOM     12  C   UNL     1       8.584  -0.456  26.730  0.00  0.00    +0.004 C 
ATOM     13  C   UNL     1       9.034   0.479  25.619  0.00  0.00    -0.003 C 
ENDBRANCH  11  13
ENDBRANCH  10  11
ENDBRANCH   2  10
BRANCH   6  14
ATOM     14  C   UNL     1       7.115   5.087  22.319  0.00  0.00    +0.101 C 
BRANCH  14  15
ATOM     15  C   UNL     1       5.785   5.394  23.072  0.00  0.00    +0.055 C 
ATOM     16  S   UNL     1       5.366   6.977  23.494  0.00  0.00    -0.040 S 
BRANCH  15  17
ATOM     17  N   UNL     1       4.997   4.269  23.405  0.00  0.00    -0.333 N 
ATOM     18  C   UNL     1       4.035   3.655  22.490  0.00  0.00    +0.129 C 
ATOM     19  C   UNL     1       4.970   3.676  24.748  0.00  0.00    +0.129 C 
ENDBRANCH  15  17
ENDBRANCH  14  15
ENDBRANCH   6  14
ENDBRANCH   1   3
BRANCH   1  20
ATOM     20  C   UNL     1       8.491  -0.579  22.358  0.00  0.00    -0.028 A 
ATOM     21  C   UNL     1       7.168  -0.523  22.834  0.00  0.00    +0.006 A 
ATOM     22  C   UNL     1       6.639  -1.553  23.616  0.00  0.00    +0.009 A 
ATOM     23  C   UNL     1       7.402  -2.674  23.981  0.00  0.00    -0.017 A 
ATOM     24  C   UNL     1       8.695  -2.753  23.425  0.00  0.00    +0.009 A 
ATOM     25  C   UNL     1       9.228  -1.736  22.614  0.00  0.00    +0.006 A 
BRANCH  23  26
ATOM     26  C   UNL     1       6.873  -3.747  24.880  0.00  0.00    -0.007 A 
ATOM     27  C   UNL     1       6.908  -3.505  26.277  0.00  0.00    +0.009 A 
ATOM     28  C   UNL     1       6.458  -4.434  27.219  0.00  0.00    +0.001 A 
ATOM     29  C   UNL     1       5.970  -5.657  26.801  0.00  0.00    +0.001 A 
ATOM     30  C   UNL     1       5.915  -5.935  25.435  0.00  0.00    +0.012 A 
ATOM     31  C   UNL     1       6.344  -5.002  24.457  0.00  0.00    +0.028 A 
BRANCH  31  32
ATOM     32  C   UNL     1       6.161  -5.392  23.050  0.00  0.00    +0.180 A 
ATOM     33  N   UNL     1       7.171  -5.848  22.240  0.00  0.00    -0.239 N 
ATOM     34  H   UNL     1       8.152  -5.982  22.442  0.00  0.00    +0.192 HD
ATOM     35  N   UNL     1       6.704  -6.150  21.023  0.00  0.00    -0.046 NA
ATOM     36  N   UNL     1       5.410  -5.882  21.082  0.00  0.00    -0.023 NA
ATOM     37  N   UNL     1       5.060  -5.425  22.331  0.00  0.00    -0.108 NA
ENDBRANCH  31  32
ENDBRANCH  23  26
ENDBRANCH   1  20
TORSDOF 10
ENDMDL
MODEL 3
REMARK VINA RESULT:      -6.8      2.745      4.503
REMARK  Name = 
REMARK  14 active torsions:
REMARK  status: ('A' for Active; 'I' for Inactive)
REMARK    1  A    between atoms: C_1  and  C_2
REMARK    2  A    between atoms: C_2  and  C_3
REMARK    3  A    between atoms: C_3  and  C_4
REMARK    4  A    between atoms: C_4  and  C_5
REMARK    5  A    between atoms: C_7  and  C_8
REMARK    6  A    between atoms: C_9  and  C_10
REMARK    7  A    between atoms: C_10  and  C_11
REMARK    8  A    between atoms: C_11  and  N_13
REMARK    9  A    between atoms: N_13  and  C_14
REMARK   10  A    between atoms: N_13  and  C_15
REMARK   11  A    between atoms: N_18  and  C_19
REMARK   12  A    between atoms: C_19  and  C_20
REMARK   13  A    between atoms: C_23  and  C_26
REMARK   14  A    between atoms: C_27  and  C_32
REMARK                            x       y       z     vdW  Elec       q    Type
REMARK                         _______ _______ _______ _____ _____    ______ ____
ROOT
ATOM      1  C   UNL     1       9.248  -2.575  24.846  0.00  0.00    +0.161 C 
ENDROOT
BRANCH   1   3
ATOM      2  C   UNL     1       8.302  -1.382  22.847  0.00  0.00    +0.113 A 
ATOM      3  N   UNL     1       8.911  -1.378  24.080  0.00  0.00    -0.292 N 
ATOM      4  C   UNL     1       9.485  -0.201  24.532  0.00  0.00    +0.258 A 
ATOM      5  O   UNL     1      10.363  -0.142  25.393  0.00  0.00    -0.267 OA
ATOM      6  C   UNL     1       9.062   1.051  23.858  0.00  0.00    +0.044 A 
ATOM      7  C   UNL     1       8.501   0.902  22.648  0.00  0.00    +0.049 A 
ATOM      8  C   UNL     1       8.291   2.058  21.705  0.00  0.00    +0.066 C 
ATOM      9  N   UNL     1       8.112  -0.306  22.146  0.00  0.00    -0.238 NA
BRANCH   2  10
ATOM     10  C   UNL     1       7.778  -2.680  22.225  0.00  0.00    +0.074 C 
BRANCH  10  11
ATOM     11  C   UNL     1       6.244  -2.793  22.269  0.00  0.00    +0.007 C 
BRANCH  11  13
ATOM     12  C   UNL     1       6.888  -5.191  21.766  0.00  0.00    +0.004 C 
ATOM     13  C   UNL     1       5.773  -4.249  22.193  0.00  0.00    -0.003 C 
ENDBRANCH  11  13
ENDBRANCH  10  11
ENDBRANCH   2  10
BRANCH   6  14
ATOM     14  C   UNL     1       9.404   2.349  24.535  0.00  0.00    +0.101 C 
BRANCH  14  15
ATOM     15  C   UNL     1       8.260   3.323  24.949  0.00  0.00    +0.055 C 
ATOM     16  S   UNL     1       8.435   4.997  24.776  0.00  0.00    -0.040 S 
BRANCH  15  17
ATOM     17  N   UNL     1       7.112   2.718  25.507  0.00  0.00    -0.333 N 
ATOM     18  C   UNL     1       7.109   2.016  26.790  0.00  0.00    +0.129 C 
ATOM     19  C   UNL     1       5.831   2.619  24.797  0.00  0.00    +0.129 C 
ENDBRANCH  15  17
ENDBRANCH  14  15
ENDBRANCH   6  14
ENDBRANCH   1   3
BRANCH   1  20
ATOM     20  C   UNL     1       8.055  -3.335  25.394  0.00  0.00    -0.028 A 
ATOM     21  C   UNL     1       7.980  -4.734  25.272  0.00  0.00    +0.006 A 
ATOM     22  C   UNL     1       6.816  -5.427  25.615  0.00  0.00    +0.009 A 
ATOM     23  C   UNL     1       5.665  -4.763  26.071  0.00  0.00    -0.017 A 
ATOM     24  C   UNL     1       5.787  -3.372  26.267  0.00  0.00    +0.009 A 
ATOM     25  C   UNL     1       6.963  -2.669  25.952  0.00  0.00    +0.006 A 
BRANCH  23  26
ATOM     26  C   UNL     1       4.388  -5.483  26.369  0.00  0.00    -0.007 A 
ATOM     27  C   UNL     1       3.392  -5.492  25.358  0.00  0.00    +0.009 A 
ATOM     28  C   UNL     1       2.153  -6.117  25.520  0.00  0.00    +0.001 A 
ATOM     29  C   UNL     1       1.849  -6.745  26.713  0.00  0.00    +0.001 A 
ATOM     30  C   UNL     1       2.801  -6.762  27.733  0.00  0.00    +0.012 A 
ATOM     31  C   UNL     1       4.074  -6.155  27.587  0.00  0.00    +0.028 A 
BRANCH  31  32
ATOM     32  C   UNL     1       5.012  -6.313  28.710  0.00  0.00    +0.180 A 
ATOM     33  N   UNL     1       5.845  -7.392  28.872  0.00  0.00    -0.239 N 
ATOM     34  H   UNL     1       5.954  -8.216  28.299  0.00  0.00    +0.192 HD
ATOM     35  N   UNL     1       6.601  -7.247  29.966  0.00  0.00    -0.046 NA
ATOM     36  N   UNL     1       6.237  -6.084  30.478  0.00  0.00    -0.023 NA
ATOM     37  N   UNL     1       5.265  -5.491  29.706  0.00  0.00    -0.108 NA
ENDBRANCH  31  32
ENDBRANCH  23  26
ENDBRANCH   1  20
TORSDOF 10
ENDMDL
MODEL 4
REMARK VINA RESULT:      -6.7      3.671      8.290
REMARK  Name = 
REMARK  14 active torsions:
REMARK  status: ('A' for Active; 'I' for Inactive)
REMARK    1  A    between atoms: C_1  and  C_2
REMARK    2  A    between atoms: C_2  and  C_3
REMARK    3  A    between atoms: C_3  and  C_4
REMARK    4  A    between atoms: C_4  and  C_5
REMARK    5  A    between atoms: C_7  and  C_8
REMARK    6  A    between atoms: C_9  and  C_10
REMARK    7  A    between atoms: C_10  and  C_11
REMARK    8  A    between atoms: C_11  and  N_13
REMARK    9  A    between atoms: N_13  and  C_14
REMARK   10  A    between atoms: N_13  and  C_15
REMARK   11  A    between atoms: N_18  and  C_19
REMARK   12  A    between atoms: C_19  and  C_20
REMARK   13  A    between atoms: C_23  and  C_26
REMARK   14  A    between atoms: C_27  and  C_32
REMARK                            x       y       z     vdW  Elec       q    Type
REMARK                         _______ _______ _______ _____ _____    ______ ____
ROOT
ATOM      1  C   UNL     1       8.939  -5.017  25.347  0.00  0.00    +0.161 C 
ENDROOT
BRANCH   1   3
ATOM      2  C   UNL     1       6.758  -5.379  24.153  0.00  0.00    +0.113 A 
ATOM      3  N   UNL     1       7.535  -5.413  25.287  0.00  0.00    -0.292 N 
ATOM      4  C   UNL     1       6.911  -5.579  26.514  0.00  0.00    +0.258 A 
ATOM      5  O   UNL     1       7.404  -5.252  27.594  0.00  0.00    -0.267 OA
ATOM      6  C   UNL     1       5.525  -6.106  26.493  0.00  0.00    +0.044 A 
ATOM      7  C   UNL     1       4.873  -5.989  25.326  0.00  0.00    +0.049 A 
ATOM      8  C   UNL     1       3.385  -6.189  25.206  0.00  0.00    +0.066 C 
ATOM      9  N   UNL     1       5.485  -5.637  24.158  0.00  0.00    -0.238 NA
BRANCH   2  10
ATOM     10  C   UNL     1       7.363  -5.054  22.785  0.00  0.00    +0.074 C 
BRANCH  10  11
ATOM     11  C   UNL     1       6.467  -4.141  21.931  0.00  0.00    +0.007 C 
BRANCH  11  13
ATOM     12  C   UNL     1       6.029  -2.139  23.421  0.00  0.00    +0.004 C 
ATOM     13  C   UNL     1       6.750  -2.656  22.187  0.00  0.00    -0.003 C 
ENDBRANCH  11  13
ENDBRANCH  10  11
ENDBRANCH   2  10
BRANCH   6  14
ATOM     14  C   UNL     1       4.956  -6.604  27.792  0.00  0.00    +0.101 C 
BRANCH  14  15
ATOM     15  C   UNL     1       4.598  -5.584  28.915  0.00  0.00    +0.055 C 
ATOM     16  S   UNL     1       5.203  -5.766  30.484  0.00  0.00    -0.040 S 
BRANCH  15  17
ATOM     17  N   UNL     1       3.717  -4.545  28.540  0.00  0.00    -0.333 N 
ATOM     18  C   UNL     1       2.274  -4.726  28.384  0.00  0.00    +0.129 C 
ATOM     19  C   UNL     1       4.173  -3.208  28.145  0.00  0.00    +0.129 C 
ENDBRANCH  15  17
ENDBRANCH  14  15
ENDBRANCH   6  14
ENDBRANCH   1   3
BRANCH   1  20
ATOM     20  C   UNL     1       9.185  -3.527  25.201  0.00  0.00    -0.028 A 
ATOM     21  C   UNL     1       8.682  -2.622  26.153  0.00  0.00    +0.006 A 
ATOM     22  C   UNL     1       8.749  -1.242  25.944  0.00  0.00    +0.009 A 
ATOM     23  C   UNL     1       9.297  -0.696  24.771  0.00  0.00    -0.017 A 
ATOM     24  C   UNL     1       9.872  -1.613  23.868  0.00  0.00    +0.009 A 
ATOM     25  C   UNL     1       9.834  -3.003  24.082  0.00  0.00    +0.006 A 
BRANCH  23  26
ATOM     26  C   UNL     1       9.307   0.775  24.500  0.00  0.00    -0.007 A 
ATOM     27  C   UNL     1      10.484   1.326  23.930  0.00  0.00    +0.009 A 
ATOM     28  C   UNL     1      10.623   2.687  23.645  0.00  0.00    +0.001 A 
ATOM     29  C   UNL     1       9.592   3.560  23.937  0.00  0.00    +0.001 A 
ATOM     30  C   UNL     1       8.416   3.061  24.496  0.00  0.00    +0.012 A 
ATOM     31  C   UNL     1       8.241   1.681  24.775  0.00  0.00    +0.028 A 
BRANCH  31  32
ATOM     32  C   UNL     1       6.924   1.277  25.293  0.00  0.00    +0.180 A 
ATOM     33  N   UNL     1       6.579   1.299  26.622  0.00  0.00    -0.239 N 
ATOM     34  H   UNL     1       7.126   1.569  27.427  0.00  0.00    +0.192 HD
ATOM     35  N   UNL     1       5.312   0.904  26.790  0.00  0.00    -0.046 NA
ATOM     36  N   UNL     1       4.876   0.639  25.570  0.00  0.00    -0.023 NA
ATOM     37  N   UNL     1       5.857   0.876  24.635  0.00  0.00    -0.108 NA
ENDBRANCH  31  32
ENDBRANCH  23  26
ENDBRANCH   1  20
TORSDOF 10
ENDMDL
MODEL 5
REMARK VINA RESULT:      -6.7      1.743      2.714
REMARK  Name = 
REMARK  14 active torsions:
REMARK  status: ('A' for Active; 'I' for Inactive)
REMARK    1  A    between atoms: C_1  and  C_2
REMARK    2  A    between atoms: C_2  and  C_3
REMARK    3  A    between atoms: C_3  and  C_4
REMARK    4  A    between atoms: C_4  and  C_5
REMARK    5  A    between atoms: C_7  and  C_8
REMARK    6  A    between atoms: C_9  and  C_10
REMARK    7  A    between atoms: C_10  and  C_11
REMARK    8  A    between atoms: C_11  and  N_13
REMARK    9  A    between atoms: N_13  and  C_14
REMARK   10  A    between atoms: N_13  and  C_15
REMARK   11  A    between atoms: N_18  and  C_19
REMARK   12  A    between atoms: C_19  and  C_20
REMARK   13  A    between atoms: C_23  and  C_26
REMARK   14  A    between atoms: C_27  and  C_32
REMARK                            x       y       z     vdW  Elec       q    Type
REMARK                         _______ _______ _______ _____ _____    ______ ____
ROOT
ATOM      1  C   UNL     1       8.697   1.023  21.541  0.00  0.00    +0.161 C 
ENDROOT
BRANCH   1   3
ATOM      2  C   UNL     1       9.759   2.242  23.465  0.00  0.00    +0.113 A 
ATOM      3  N   UNL     1       8.852   2.168  22.435  0.00  0.00    -0.292 N 
ATOM      4  C   UNL     1       7.836   3.109  22.377  0.00  0.00    +0.258 A 
ATOM      5  O   UNL     1       6.775   2.950  21.774  0.00  0.00    -0.267 OA
ATOM      6  C   UNL     1       8.025   4.346  23.174  0.00  0.00    +0.044 A 
ATOM      7  C   UNL     1       8.928   4.271  24.164  0.00  0.00    +0.049 A 
ATOM      8  C   UNL     1       9.031   5.313  25.247  0.00  0.00    +0.066 C 
ATOM      9  N   UNL     1       9.799   3.229  24.306  0.00  0.00    -0.238 NA
BRANCH   2  10
ATOM     10  C   UNL     1      10.815   1.152  23.672  0.00  0.00    +0.074 C 
BRANCH  10  11
ATOM     11  C   UNL     1      10.626   0.370  24.984  0.00  0.00    +0.007 C 
BRANCH  11  13
ATOM     12  C   UNL     1       8.847  -0.850  26.313  0.00  0.00    +0.004 C 
ATOM     13  C   UNL     1       9.161   0.350  25.434  0.00  0.00    -0.003 C 
ENDBRANCH  11  13
ENDBRANCH  10  11
ENDBRANCH   2  10
BRANCH   6  14
ATOM     14  C   UNL     1       7.118   5.506  22.873  0.00  0.00    +0.101 C 
BRANCH  14  15
ATOM     15  C   UNL     1       5.656   5.498  23.417  0.00  0.00    +0.055 C 
ATOM     16  S   UNL     1       4.382   6.124  22.498  0.00  0.00    -0.040 S 
BRANCH  15  17
ATOM     17  N   UNL     1       5.491   4.980  24.721  0.00  0.00    -0.333 N 
ATOM     18  C   UNL     1       5.088   3.602  24.999  0.00  0.00    +0.129 C 
ATOM     19  C   UNL     1       5.582   5.806  25.930  0.00  0.00    +0.129 C 
ENDBRANCH  15  17
ENDBRANCH  14  15
ENDBRANCH   6  14
ENDBRANCH   1   3
BRANCH   1  20
ATOM     20  C   UNL     1       8.104  -0.213  22.191  0.00  0.00    -0.028 A 
ATOM     21  C   UNL     1       8.654  -1.484  21.946  0.00  0.00    +0.006 A 
ATOM     22  C   UNL     1       8.018  -2.645  22.396  0.00  0.00    +0.009 A 
ATOM     23  C   UNL     1       6.797  -2.599  23.088  0.00  0.00    -0.017 A 
ATOM     24  C   UNL     1       6.305  -1.315  23.398  0.00  0.00    +0.009 A 
ATOM     25  C   UNL     1       6.951  -0.140  22.975  0.00  0.00    +0.006 A 
BRANCH  23  26
ATOM     26  C   UNL     1       6.067  -3.836  23.509  0.00  0.00    -0.007 A 
ATOM     27  C   UNL     1       4.756  -4.026  23.001  0.00  0.00    +0.009 A 
ATOM     28  C   UNL     1       3.968  -5.131  23.331  0.00  0.00    +0.001 A 
ATOM     29  C   UNL     1       4.453  -6.087  24.203  0.00  0.00    +0.001 A 
ATOM     30  C   UNL     1       5.738  -5.941  24.725  0.00  0.00    +0.012 A 
ATOM     31  C   UNL     1       6.568  -4.840  24.389  0.00  0.00    +0.028 A 
BRANCH  31  32
ATOM     32  C   UNL     1       7.929  -4.847  24.949  0.00  0.00    +0.180 A 
ATOM     33  N   UNL     1       8.247  -4.393  26.205  0.00  0.00    -0.239 N 
ATOM     34  H   UNL     1       7.653  -3.994  26.918  0.00  0.00    +0.192 HD
ATOM     35  N   UNL     1       9.553  -4.548  26.448  0.00  0.00    -0.046 NA
ATOM     36  N   UNL     1      10.040  -5.096  25.348  0.00  0.00    -0.023 NA
ATOM     37  N   UNL     1       9.046  -5.297  24.418  0.00  0.00    -0.108 NA
ENDBRANCH  31  32
ENDBRANCH  23  26
ENDBRANCH   1  20
TORSDOF 10
ENDMDL
MODEL 6
REMARK VINA RESULT:      -6.7      3.328      8.561
REMARK  Name = 
REMARK  14 active torsions:
REMARK  status: ('A' for Active; 'I' for Inactive)
REMARK    1  A    between atoms: C_1  and  C_2
REMARK    2  A    between atoms: C_2  and  C_3
REMARK    3  A    between atoms: C_3  and  C_4
REMARK    4  A    between atoms: C_4  and  C_5
REMARK    5  A    between atoms: C_7  and  C_8
REMARK    6  A    between atoms: C_9  and  C_10
REMARK    7  A    between atoms: C_10  and  C_11
REMARK    8  A    between atoms: C_11  and  N_13
REMARK    9  A    between atoms: N_13  and  C_14
REMARK   10  A    between atoms: N_13  and  C_15
REMARK   11  A    between atoms: N_18  and  C_19
REMARK   12  A    between atoms: C_19  and  C_20
REMARK   13  A    between atoms: C_23  and  C_26
REMARK   14  A    between atoms: C_27  and  C_32
REMARK                            x       y       z     vdW  Elec       q    Type
REMARK                         _______ _______ _______ _____ _____    ______ ____
ROOT
ATOM      1  C   UNL     1      10.207  -0.717  25.106  0.00  0.00    +0.161 C 
ENDROOT
BRANCH   1   3
ATOM      2  C   UNL     1       9.217  -1.748  23.039  0.00  0.00    +0.113 A 
ATOM      3  N   UNL     1       9.421  -1.725  24.398  0.00  0.00    -0.292 N 
ATOM      4  C   UNL     1       8.635  -2.538  25.201  0.00  0.00    +0.258 A 
ATOM      5  O   UNL     1       8.438  -2.348  26.401  0.00  0.00    -0.267 OA
ATOM      6  C   UNL     1       7.926  -3.654  24.529  0.00  0.00    +0.044 A 
ATOM      7  C   UNL     1       7.778  -3.537  23.200  0.00  0.00    +0.049 A 
ATOM      8  C   UNL     1       6.837  -4.409  22.411  0.00  0.00    +0.066 C 
ATOM      9  N   UNL     1       8.427  -2.596  22.454  0.00  0.00    -0.238 NA
BRANCH   2  10
ATOM     10  C   UNL     1       9.945  -0.772  22.110  0.00  0.00    +0.074 C 
BRANCH  10  11
ATOM     11  C   UNL     1       9.079  -0.306  20.927  0.00  0.00    +0.007 C 
BRANCH  11  13
ATOM     12  C   UNL     1       7.205   1.122  21.860  0.00  0.00    +0.004 C 
ATOM     13  C   UNL     1       8.541   1.115  21.135  0.00  0.00    -0.003 C 
ENDBRANCH  11  13
ENDBRANCH  10  11
ENDBRANCH   2  10
BRANCH   6  14
ATOM     14  C   UNL     1       7.349  -4.731  25.405  0.00  0.00    +0.101 C 
BRANCH  14  15
ATOM     15  C   UNL     1       5.805  -4.810  25.609  0.00  0.00    +0.055 C 
ATOM     16  S   UNL     1       4.945  -6.213  25.223  0.00  0.00    -0.040 S 
BRANCH  15  17
ATOM     17  N   UNL     1       5.191  -3.631  26.090  0.00  0.00    -0.333 N 
ATOM     18  C   UNL     1       4.573  -2.629  25.222  0.00  0.00    +0.129 C 
ATOM     19  C   UNL     1       5.221  -3.228  27.501  0.00  0.00    +0.129 C 
ENDBRANCH  15  17
ENDBRANCH  14  15
ENDBRANCH   6  14
ENDBRANCH   1   3
BRANCH   1  20
ATOM     20  C   UNL     1       9.770   0.715  24.861  0.00  0.00    -0.028 A 
ATOM     21  C   UNL     1       8.516   1.167  25.308  0.00  0.00    +0.006 A 
ATOM     22  C   UNL     1       8.029   2.425  24.941  0.00  0.00    +0.009 A 
ATOM     23  C   UNL     1       8.753   3.281  24.095  0.00  0.00    -0.017 A 
ATOM     24  C   UNL     1      10.042   2.848  23.726  0.00  0.00    +0.009 A 
ATOM     25  C   UNL     1      10.553   1.596  24.113  0.00  0.00    +0.006 A 
BRANCH  23  26
ATOM     26  C   UNL     1       8.212   4.598  23.634  0.00  0.00    -0.007 A 
ATOM     27  C   UNL     1       6.831   4.660  23.312  0.00  0.00    +0.009 A 
ATOM     28  C   UNL     1       6.211   5.826  22.855  0.00  0.00    +0.001 A 
ATOM     29  C   UNL     1       6.953   6.978  22.683  0.00  0.00    +0.001 A 
ATOM     30  C   UNL     1       8.314   6.963  22.990  0.00  0.00    +0.012 A 
ATOM     31  C   UNL     1       8.964   5.799  23.475  0.00  0.00    +0.028 A 
BRANCH  31  32
ATOM     32  C   UNL     1      10.385   5.939  23.833  0.00  0.00    +0.180 A 
ATOM     33  N   UNL     1      11.424   5.647  22.985  0.00  0.00    -0.239 N 
ATOM     34  H   UNL     1      11.407   5.300  22.036  0.00  0.00    +0.192 HD
ATOM     35  N   UNL     1      12.600   5.896  23.573  0.00  0.00    -0.046 NA
ATOM     36  N   UNL     1      12.288   6.341  24.778  0.00  0.00    -0.023 NA
ATOM     37  N   UNL     1      10.923   6.385  24.947  0.00  0.00    -0.108 NA
ENDBRANCH  31  32
ENDBRANCH  23  26
ENDBRANCH   1  20
TORSDOF 10
ENDMDL
MODEL 7
REMARK VINA RESULT:      -6.7      3.311      5.741
REMARK  Name = 
REMARK  14 active torsions:
REMARK  status: ('A' for Active; 'I' for Inactive)
REMARK    1  A    between atoms: C_1  and  C_2
REMARK    2  A    between atoms: C_2  and  C_3
REMARK    3  A    between atoms: C_3  and  C_4
REMARK    4  A    between atoms: C_4  and  C_5
REMARK    5  A    between atoms: C_7  and  C_8
REMARK    6  A    between atoms: C_9  and  C_10
REMARK    7  A    between atoms: C_10  and  C_11
REMARK    8  A    between atoms: C_11  and  N_13
REMARK    9  A    between atoms: N_13  and  C_14
REMARK   10  A    between atoms: N_13  and  C_15
REMARK   11  A    between atoms: N_18  and  C_19
REMARK   12  A    between atoms: C_19  and  C_20
REMARK   13  A    between atoms: C_23  and  C_26
REMARK   14  A    between atoms: C_27  and  C_32
REMARK                            x       y       z     vdW  Elec       q    Type
REMARK                         _______ _______ _______ _____ _____    ______ ____
ROOT
ATOM      1  C   UNL     1       6.862  -3.882  22.646  0.00  0.00    +0.161 C 
ENDROOT
BRANCH   1   3
ATOM      2  C   UNL     1       8.837  -3.145  24.015  0.00  0.00    +0.113 A 
ATOM      3  N   UNL     1       7.817  -2.888  23.129  0.00  0.00    -0.292 N 
ATOM      4  C   UNL     1       7.488  -1.568  22.863  0.00  0.00    +0.258 A 
ATOM      5  O   UNL     1       6.399  -1.199  22.420  0.00  0.00    -0.267 OA
ATOM      6  C   UNL     1       8.496  -0.542  23.223  0.00  0.00    +0.044 A 
ATOM      7  C   UNL     1       9.422  -0.922  24.117  0.00  0.00    +0.049 A 
ATOM      8  C   UNL     1      10.325   0.062  24.816  0.00  0.00    +0.066 C 
ATOM      9  N   UNL     1       9.601  -2.218  24.506  0.00  0.00    -0.238 NA
BRANCH   2  10
ATOM     10  C   UNL     1       9.155  -4.574  24.466  0.00  0.00    +0.074 C 
BRANCH  10  11
ATOM     11  C   UNL     1       9.375  -4.692  25.984  0.00  0.00    +0.007 C 
BRANCH  11  13
ATOM     12  C   UNL     1       7.221  -3.981  27.110  0.00  0.00    +0.004 C 
ATOM     13  C   UNL     1       8.108  -5.150  26.715  0.00  0.00    -0.003 C 
ENDBRANCH  11  13
ENDBRANCH  10  11
ENDBRANCH   2  10
BRANCH   6  14
ATOM     14  C   UNL     1       8.314   0.836  22.651  0.00  0.00    +0.101 C 
BRANCH  14  15
ATOM     15  C   UNL     1       7.690   1.959  23.535  0.00  0.00    +0.055 C 
ATOM     16  S   UNL     1       6.511   1.602  24.693  0.00  0.00    -0.040 S 
BRANCH  15  17
ATOM     17  N   UNL     1       8.145   3.270  23.270  0.00  0.00    -0.333 N 
ATOM     18  C   UNL     1       7.435   4.213  22.406  0.00  0.00    +0.129 C 
ATOM     19  C   UNL     1       9.441   3.780  23.733  0.00  0.00    +0.129 C 
ENDBRANCH  15  17
ENDBRANCH  14  15
ENDBRANCH   6  14
ENDBRANCH   1   3
BRANCH   1  20
ATOM     20  C   UNL     1       5.956  -4.463  23.715  0.00  0.00    -0.028 A 
ATOM     21  C   UNL     1       5.913  -5.851  23.940  0.00  0.00    +0.006 A 
ATOM     22  C   UNL     1       4.963  -6.414  24.795  0.00  0.00    +0.009 A 
ATOM     23  C   UNL     1       3.997  -5.631  25.448  0.00  0.00    -0.017 A 
ATOM     24  C   UNL     1       4.108  -4.236  25.278  0.00  0.00    +0.009 A 
ATOM     25  C   UNL     1       5.078  -3.657  24.441  0.00  0.00    +0.006 A 
BRANCH  23  26
ATOM     26  C   UNL     1       2.926  -6.228  26.307  0.00  0.00    -0.007 A 
ATOM     27  C   UNL     1       1.650  -6.422  25.719  0.00  0.00    +0.009 A 
ATOM     28  C   UNL     1       0.566  -6.956  26.420  0.00  0.00    +0.001 A 
ATOM     29  C   UNL     1       0.709  -7.302  27.750  0.00  0.00    +0.001 A 
ATOM     30  C   UNL     1       1.948  -7.130  28.367  0.00  0.00    +0.012 A 
ATOM     31  C   UNL     1       3.070  -6.611  27.673  0.00  0.00    +0.028 A 
BRANCH  31  32
ATOM     32  C   UNL     1       4.338  -6.552  28.420  0.00  0.00    +0.180 A 
ATOM     33  N   UNL     1       5.330  -7.496  28.326  0.00  0.00    -0.239 N 
ATOM     34  H   UNL     1       5.367  -8.343  27.777  0.00  0.00    +0.192 HD
ATOM     35  N   UNL     1       6.372  -7.166  29.097  0.00  0.00    -0.046 NA
ATOM     36  N   UNL     1       6.026  -6.023  29.664  0.00  0.00    -0.023 NA
ATOM     37  N   UNL     1       4.777  -5.627  29.245  0.00  0.00    -0.108 NA
ENDBRANCH  31  32
ENDBRANCH  23  26
ENDBRANCH   1  20
TORSDOF 10
ENDMDL
MODEL 8
REMARK VINA RESULT:      -6.7      2.930      8.564
REMARK  Name = 
REMARK  14 active torsions:
REMARK  status: ('A' for Active; 'I' for Inactive)
REMARK    1  A    between atoms: C_1  and  C_2
REMARK    2  A    between atoms: C_2  and  C_3
REMARK    3  A    between atoms: C_3  and  C_4
REMARK    4  A    between atoms: C_4  and  C_5
REMARK    5  A    between atoms: C_7  and  C_8
REMARK    6  A    between atoms: C_9  and  C_10
REMARK    7  A    between atoms: C_10  and  C_11
REMARK    8  A    between atoms: C_11  and  N_13
REMARK    9  A    between atoms: N_13  and  C_14
REMARK   10  A    between atoms: N_13  and  C_15
REMARK   11  A    between atoms: N_18  and  C_19
REMARK   12  A    between atoms: C_19  and  C_20
REMARK   13  A    between atoms: C_23  and  C_26
REMARK   14  A    between atoms: C_27  and  C_32
REMARK                            x       y       z     vdW  Elec       q    Type
REMARK                         _______ _______ _______ _____ _____    ______ ____
ROOT
ATOM      1  C   UNL     1       8.265  -0.818  21.673  0.00  0.00    +0.161 C 
ENDROOT
BRANCH   1   3
ATOM      2  C   UNL     1       9.628  -1.738  23.573  0.00  0.00    +0.113 A 
ATOM      3  N   UNL     1       8.519  -1.760  22.760  0.00  0.00    -0.292 N 
ATOM      4  C   UNL     1       7.707  -2.883  22.777  0.00  0.00    +0.258 A 
ATOM      5  O   UNL     1       6.940  -3.200  21.867  0.00  0.00    -0.267 OA
ATOM      6  C   UNL     1       7.850  -3.794  23.938  0.00  0.00    +0.044 A 
ATOM      7  C   UNL     1       8.993  -3.680  24.633  0.00  0.00    +0.049 A 
ATOM      8  C   UNL     1       9.434  -4.710  25.640  0.00  0.00    +0.066 C 
ATOM      9  N   UNL     1       9.875  -2.653  24.460  0.00  0.00    -0.238 NA
BRANCH   2  10
ATOM     10  C   UNL     1      10.646  -0.597  23.497  0.00  0.00    +0.074 C 
BRANCH  10  11
ATOM     11  C   UNL     1      10.684   0.263  24.773  0.00  0.00    +0.007 C 
BRANCH  11  13
ATOM     12  C   UNL     1      10.730   2.499  23.584  0.00  0.00    +0.004 C 
ATOM     13  C   UNL     1       9.991   1.615  24.575  0.00  0.00    -0.003 C 
ENDBRANCH  11  13
ENDBRANCH  10  11
ENDBRANCH   2  10
BRANCH   6  14
ATOM     14  C   UNL     1       6.770  -4.818  24.150  0.00  0.00    +0.101 C 
BRANCH  14  15
ATOM     15  C   UNL     1       5.598  -4.506  25.131  0.00  0.00    +0.055 C 
ATOM     16  S   UNL     1       4.472  -3.293  24.786  0.00  0.00    -0.040 S 
BRANCH  15  17
ATOM     17  N   UNL     1       5.577  -5.269  26.320  0.00  0.00    -0.333 N 
ATOM     18  C   UNL     1       6.216  -4.845  27.565  0.00  0.00    +0.129 C 
ATOM     19  C   UNL     1       5.019  -6.624  26.395  0.00  0.00    +0.129 C 
ENDBRANCH  15  17
ENDBRANCH  14  15
ENDBRANCH   6  14
ENDBRANCH   1   3
BRANCH   1  20
ATOM     20  C   UNL     1       7.750   0.538  22.116  0.00  0.00    -0.028 A 
ATOM     21  C   UNL     1       6.842   0.645  23.185  0.00  0.00    +0.006 A 
ATOM     22  C   UNL     1       6.229   1.863  23.492  0.00  0.00    +0.009 A 
ATOM     23  C   UNL     1       6.470   3.024  22.740  0.00  0.00    -0.017 A 
ATOM     24  C   UNL     1       7.445   2.918  21.727  0.00  0.00    +0.009 A 
ATOM     25  C   UNL     1       8.089   1.705  21.428  0.00  0.00    +0.006 A 
BRANCH  23  26
ATOM     26  C   UNL     1       5.763   4.316  23.010  0.00  0.00    -0.007 A 
ATOM     27  C   UNL     1       4.357   4.342  22.823  0.00  0.00    +0.009 A 
ATOM     28  C   UNL     1       3.587   5.490  23.027  0.00  0.00    +0.001 A 
ATOM     29  C   UNL     1       4.197   6.669  23.410  0.00  0.00    +0.001 A 
ATOM     30  C   UNL     1       5.578   6.687  23.608  0.00  0.00    +0.012 A 
ATOM     31  C   UNL     1       6.380   5.531  23.428  0.00  0.00    +0.028 A 
BRANCH  31  32
ATOM     32  C   UNL     1       7.811   5.668  23.744  0.00  0.00    +0.180 A 
ATOM     33  N   UNL     1       8.751   6.141  22.863  0.00  0.00    -0.239 N 
ATOM     34  H   UNL     1       8.645   6.451  21.908  0.00  0.00    +0.192 HD
ATOM     35  N   UNL     1       9.961   6.178  23.435  0.00  0.00    -0.046 NA
ATOM     36  N   UNL     1       9.768   5.730  24.664  0.00  0.00    -0.023 NA
ATOM     37  N   UNL     1       8.443   5.423  24.872  0.00  0.00    -0.108 NA
ENDBRANCH  31  32
ENDBRANCH  23  26
ENDBRANCH   1  20
TORSDOF 10
ENDMDL
MODEL 9
REMARK VINA RESULT:      -6.6      3.441      8.706
REMARK  Name = 
REMARK  14 active torsions:
REMARK  status: ('A' for Active; 'I' for Inactive)
REMARK    1  A    between atoms: C_1  and  C_2
REMARK    2  A    between atoms: C_2  and  C_3
REMARK    3  A    between atoms: C_3  and  C_4
REMARK    4  A    between atoms: C_4  and  C_5
REMARK    5  A    between atoms: C_7  and  C_8
REMARK    6  A    between atoms: C_9  and  C_10
REMARK    7  A    between atoms: C_10  and  C_11
REMARK    8  A    between atoms: C_11  and  N_13
REMARK    9  A    between atoms: N_13  and  C_14
REMARK   10  A    between atoms: N_13  and  C_15
REMARK   11  A    between atoms: N_18  and  C_19
REMARK   12  A    between atoms: C_19  and  C_20
REMARK   13  A    between atoms: C_23  and  C_26
REMARK   14  A    between atoms: C_27  and  C_32
REMARK                            x       y       z     vdW  Elec       q    Type
REMARK                         _______ _______ _______ _____ _____    ______ ____
ROOT
ATOM      1  C   UNL     1       6.353  -0.583  23.214  0.00  0.00    +0.161 C 
ENDROOT
BRANCH   1   3
ATOM      2  C   UNL     1       8.017  -2.436  23.547  0.00  0.00    +0.113 A 
ATOM      3  N   UNL     1       6.918  -1.713  23.947  0.00  0.00    -0.292 N 
ATOM      4  C   UNL     1       6.122  -2.222  24.960  0.00  0.00    +0.258 A 
ATOM      5  O   UNL     1       4.948  -1.904  25.148  0.00  0.00    -0.267 OA
ATOM      6  C   UNL     1       6.717  -3.284  25.808  0.00  0.00    +0.044 A 
ATOM      7  C   UNL     1       7.774  -3.925  25.285  0.00  0.00    +0.049 A 
ATOM      8  C   UNL     1       8.308  -5.210  25.862  0.00  0.00    +0.066 C 
ATOM      9  N   UNL     1       8.429  -3.500  24.166  0.00  0.00    -0.238 NA
BRANCH   2  10
ATOM     10  C   UNL     1       8.854  -2.007  22.339  0.00  0.00    +0.074 C 
BRANCH  10  11
ATOM     11  C   UNL     1      10.328  -1.739  22.690  0.00  0.00    +0.007 C 
BRANCH  11  13
ATOM     12  C   UNL     1      10.919  -0.030  24.465  0.00  0.00    +0.004 C 
ATOM     13  C   UNL     1      10.584  -0.260  23.000  0.00  0.00    -0.003 C 
ENDBRANCH  11  13
ENDBRANCH  10  11
ENDBRANCH   2  10
BRANCH   6  14
ATOM     14  C   UNL     1       6.018  -3.611  27.098  0.00  0.00    +0.101 C 
BRANCH  14  15
ATOM     15  C   UNL     1       5.191  -4.928  27.210  0.00  0.00    +0.055 C 
ATOM     16  S   UNL     1       5.323  -5.927  28.568  0.00  0.00    -0.040 S 
BRANCH  15  17
ATOM     17  N   UNL     1       4.376  -5.236  26.098  0.00  0.00    -0.333 N 
ATOM     18  C   UNL     1       3.023  -4.711  25.915  0.00  0.00    +0.129 C 
ATOM     19  C   UNL     1       4.753  -6.215  25.072  0.00  0.00    +0.129 C 
ENDBRANCH  15  17
ENDBRANCH  14  15
ENDBRANCH   6  14
ENDBRANCH   1   3
BRANCH   1  20
ATOM     20  C   UNL     1       7.118   0.719  23.368  0.00  0.00    -0.028 A 
ATOM     21  C   UNL     1       7.534   1.442  22.235  0.00  0.00    +0.006 A 
ATOM     22  C   UNL     1       8.384   2.546  22.356  0.00  0.00    +0.009 A 
ATOM     23  C   UNL     1       8.879   2.966  23.601  0.00  0.00    -0.017 A 
ATOM     24  C   UNL     1       8.385   2.282  24.731  0.00  0.00    +0.009 A 
ATOM     25  C   UNL     1       7.508   1.189  24.623  0.00  0.00    +0.006 A 
BRANCH  23  26
ATOM     26  C   UNL     1       9.849   4.098  23.737  0.00  0.00    -0.007 A 
ATOM     27  C   UNL     1      11.198   3.848  23.377  0.00  0.00    +0.009 A 
ATOM     28  C   UNL     1      12.201   4.817  23.474  0.00  0.00    +0.001 A 
ATOM     29  C   UNL     1      11.897   6.076  23.956  0.00  0.00    +0.001 A 
ATOM     30  C   UNL     1      10.582   6.365  24.319  0.00  0.00    +0.012 A 
ATOM     31  C   UNL     1       9.541   5.407  24.210  0.00  0.00    +0.028 A 
BRANCH  31  32
ATOM     32  C   UNL     1       8.185   5.866  24.554  0.00  0.00    +0.180 A 
ATOM     33  N   UNL     1       7.257   6.281  23.633  0.00  0.00    -0.239 N 
ATOM     34  H   UNL     1       7.329   6.352  22.628  0.00  0.00    +0.192 HD
ATOM     35  N   UNL     1       6.108   6.613  24.234  0.00  0.00    -0.046 NA
ATOM     36  N   UNL     1       6.326   6.402  25.521  0.00  0.00    -0.023 NA
ATOM     37  N   UNL     1       7.601   5.929  25.732  0.00  0.00    -0.108 NA
ENDBRANCH  31  32
ENDBRANCH  23  26
ENDBRANCH   1  20
TORSDOF 10
ENDMDL
