MODEL 1
REMARK VINA RESULT:      -6.6      0.000      0.000
REMARK  Name = 
REMARK  6 active torsions:
REMARK  status: ('A' for Active; 'I' for Inactive)
REMARK    1  A    between atoms: O_1  and  C_2
REMARK    2  A    between atoms: C_2  and  C_3
REMARK    3  A    between atoms: C_2  and  C_11
REMARK    4  A    between atoms: C_2  and  C_17
REMARK    5  A    between atoms: C_3  and  C_4
REMARK    6  A    between atoms: C_4  and  N_5
REMARK                            x       y       z     vdW  Elec       q    Type
REMARK                         _______ _______ _______ _____ _____    ______ ____
ROOT
ATOM      1  C   UNL     1       8.299  -3.308  24.046  0.00  0.00    +0.095 C 
ENDROOT
BRANCH   1   2
ATOM      2  C   UNL     1       7.627  -3.812  25.333  0.00  0.00    -0.016 A 
ATOM      3  C   UNL     1       8.124  -4.920  26.038  0.00  0.00    +0.006 A 
ATOM      4  C   UNL     1       7.476  -5.405  27.182  0.00  0.00    +0.000 A 
ATOM      5  C   UNL     1       6.318  -4.789  27.648  0.00  0.00    +0.000 A 
ATOM      6  C   UNL     1       5.817  -3.678  26.979  0.00  0.00    +0.000 A 
ATOM      7  C   UNL     1       6.465  -3.195  25.838  0.00  0.00    +0.006 A 
ENDBRANCH   1   2
BRANCH   1   8
ATOM      8  C   UNL     1       7.731  -4.011  22.727  0.00  0.00    +0.025 C 
ATOM      9  C   UNL     1       6.588  -3.273  22.011  0.00  0.00    +0.007 C 
ATOM     10  C   UNL     1       5.238  -3.411  22.703  0.00  0.00    +0.000 C 
ATOM     11  C   UNL     1       4.837  -4.869  22.919  0.00  0.00    +0.000 C 
ATOM     12  C   UNL     1       5.938  -5.717  23.542  0.00  0.00    +0.000 C 
ATOM     13  C   UNL     1       7.293  -5.501  22.873  0.00  0.00    +0.007 C 
ENDBRANCH   1   8
BRANCH   1  14
ATOM     14  O   UNL     1       9.704  -3.532  24.154  0.00  0.00    -0.384 OA
ATOM     15  H   UNL     1      10.135  -3.191  23.351  0.00  0.00    +0.211 HD
ENDBRANCH   1  14
BRANCH   1  16
ATOM     16  C   UNL     1       8.057  -1.787  23.859  0.00  0.00    +0.055 C 
BRANCH  16  17
ATOM     17  C   UNL     1       8.901  -0.735  24.586  0.00  0.00    +0.087 C 
BRANCH  17  18
ATOM     18  N   UNL     1      10.176  -0.537  23.843  0.00  0.00    -0.302 NA
ATOM     19  C   UNL     1      10.976   0.633  24.241  0.00  0.00    +0.084 C 
ATOM     20  C   UNL     1      10.317   1.950  23.846  0.00  0.00    +0.015 C 
ATOM     21  C   UNL     1      10.197   2.005  22.327  0.00  0.00    +0.002 C 
ATOM     22  C   UNL     1       9.470   0.772  21.793  0.00  0.00    +0.015 C 
ATOM     23  C   UNL     1      10.005  -0.541  22.383  0.00  0.00    +0.084 C 
ENDBRANCH  17  18
ENDBRANCH  16  17
ENDBRANCH   1  16
TORSDOF 6
ENDMDL
MODEL 2
REMARK VINA RESULT:      -6.6      1.773      5.481
REMARK  Name = 
REMARK  6 active torsions:
REMARK  status: ('A' for Active; 'I' for Inactive)
REMARK    1  A    between atoms: O_1  and  C_2
REMARK    2  A    between atoms: C_2  and  C_3
REMARK    3  A    between atoms: C_2  and  C_11
REMARK    4  A    between atoms: C_2  and  C_17
REMARK    5  A    between atoms: C_3  and  C_4
REMARK    6  A    between atoms: C_4  and  N_5
REMARK                            x       y       z     vdW  Elec       q    Type
REMARK                         _______ _______ _______ _____ _____    ______ ____
ROOT
ATOM      1  C   UNL     1       8.434  -1.352  23.833  0.00  0.00    +0.095 C 
ENDROOT
BRANCH   1   2
ATOM      2  C   UNL     1       8.539  -2.528  24.817  0.00  0.00    -0.016 A 
ATOM      3  C   UNL     1       9.447  -3.580  24.613  0.00  0.00    +0.006 A 
ATOM      4  C   UNL     1       9.501  -4.674  25.486  0.00  0.00    +0.000 A 
ATOM      5  C   UNL     1       8.650  -4.738  26.586  0.00  0.00    +0.000 A 
ATOM      6  C   UNL     1       7.754  -3.700  26.820  0.00  0.00    +0.000 A 
ATOM      7  C   UNL     1       7.702  -2.609  25.948  0.00  0.00    +0.006 A 
ENDBRANCH   1   2
BRANCH   1   8
ATOM      8  C   UNL     1       9.850  -0.897  23.247  0.00  0.00    +0.025 C 
ATOM      9  C   UNL     1      10.674   0.047  24.139  0.00  0.00    +0.007 C 
ATOM     10  C   UNL     1      10.175   1.487  24.134  0.00  0.00    +0.000 C 
ATOM     11  C   UNL     1      10.088   2.073  22.726  0.00  0.00    +0.000 C 
ATOM     12  C   UNL     1       9.368   1.169  21.735  0.00  0.00    +0.000 C 
ATOM     13  C   UNL     1       9.839  -0.281  21.815  0.00  0.00    +0.007 C 
ENDBRANCH   1   8
BRANCH   1  14
ATOM     14  O   UNL     1       7.806  -0.259  24.502  0.00  0.00    -0.384 OA
ATOM     15  H   UNL     1       8.482   0.224  25.009  0.00  0.00    +0.211 HD
ENDBRANCH   1  14
BRANCH   1  16
ATOM     16  C   UNL     1       7.567  -1.740  22.605  0.00  0.00    +0.055 C 
BRANCH  16  17
ATOM     17  C   UNL     1       7.587  -3.151  22.010  0.00  0.00    +0.087 C 
BRANCH  17  18
ATOM     18  N   UNL     1       6.188  -3.582  21.736  0.00  0.00    -0.302 NA
ATOM     19  C   UNL     1       5.276  -3.573  22.892  0.00  0.00    +0.084 C 
ATOM     20  C   UNL     1       5.615  -4.656  23.909  0.00  0.00    +0.015 C 
ATOM     21  C   UNL     1       5.460  -6.021  23.248  0.00  0.00    +0.002 C 
ATOM     22  C   UNL     1       6.289  -6.102  21.968  0.00  0.00    +0.015 C 
ATOM     23  C   UNL     1       6.102  -4.882  21.054  0.00  0.00    +0.084 C 
ENDBRANCH  17  18
ENDBRANCH  16  17
ENDBRANCH   1  16
TORSDOF 6
ENDMDL
MODEL 3
REMARK VINA RESULT:      -6.4      1.444      3.534
REMARK  Name = 
REMARK  6 active torsions:
REMARK  status: ('A' for Active; 'I' for Inactive)
REMARK    1  A    between atoms: O_1  and  C_2
REMARK    2  A    between atoms: C_2  and  C_3
REMARK    3  A    between atoms: C_2  and  C_11
REMARK    4  A    between atoms: C_2  and  C_17
REMARK    5  A    between atoms: C_3  and  C_4
REMARK    6  A    between atoms: C_4  and  N_5
REMARK                            x       y       z     vdW  Elec       q    Type
REMARK                         _______ _______ _______ _____ _____    ______ ____
ROOT
ATOM      1  C   UNL     1       6.955  -2.498  23.982  0.00  0.00    +0.095 C 
ENDROOT
BRANCH   1   2
ATOM      2  C   UNL     1       6.648  -3.855  23.328  0.00  0.00    -0.016 A 
ATOM      3  C   UNL     1       7.672  -4.749  22.973  0.00  0.00    +0.006 A 
ATOM      4  C   UNL     1       7.388  -5.962  22.331  0.00  0.00    +0.000 A 
ATOM      5  C   UNL     1       6.074  -6.309  22.033  0.00  0.00    +0.000 A 
ATOM      6  C   UNL     1       5.040  -5.449  22.392  0.00  0.00    +0.000 A 
ATOM      7  C   UNL     1       5.325  -4.239  23.033  0.00  0.00    +0.006 A 
ENDBRANCH   1   2
BRANCH   1   8
ATOM      8  C   UNL     1       6.869  -2.538  25.577  0.00  0.00    +0.025 C 
ATOM      9  C   UNL     1       8.210  -2.665  26.320  0.00  0.00    +0.007 C 
ATOM     10  C   UNL     1       8.801  -4.070  26.285  0.00  0.00    +0.000 C 
ATOM     11  C   UNL     1       7.831  -5.126  26.813  0.00  0.00    +0.000 C 
ATOM     12  C   UNL     1       6.438  -5.029  26.208  0.00  0.00    +0.000 C 
ATOM     13  C   UNL     1       5.904  -3.599  26.190  0.00  0.00    +0.007 C 
ENDBRANCH   1   8
BRANCH   1  14
ATOM     14  O   UNL     1       6.039  -1.533  23.466  0.00  0.00    -0.384 OA
ATOM     15  H   UNL     1       5.132  -1.848  23.628  0.00  0.00    +0.211 HD
ENDBRANCH   1  14
BRANCH   1  16
ATOM     16  C   UNL     1       8.397  -2.038  23.641  0.00  0.00    +0.055 C 
BRANCH  16  17
ATOM     17  C   UNL     1       8.677  -0.943  22.607  0.00  0.00    +0.087 C 
BRANCH  17  18
ATOM     18  N   UNL     1       8.265   0.373  23.170  0.00  0.00    -0.302 NA
ATOM     19  C   UNL     1       8.492   1.541  22.303  0.00  0.00    +0.084 C 
ATOM     20  C   UNL     1       9.973   1.861  22.131  0.00  0.00    +0.015 C 
ATOM     21  C   UNL     1      10.563   2.212  23.491  0.00  0.00    +0.002 C 
ATOM     22  C   UNL     1      10.289   1.104  24.506  0.00  0.00    +0.015 C 
ATOM     23  C   UNL     1       8.826   0.636  24.504  0.00  0.00    +0.084 C 
ENDBRANCH  17  18
ENDBRANCH  16  17
ENDBRANCH   1  16
TORSDOF 6
ENDMDL
MODEL 4
REMARK VINA RESULT:      -6.4      1.279      2.041
REMARK  Name = 
REMARK  6 active torsions:
REMARK  status: ('A' for Active; 'I' for Inactive)
REMARK    1  A    between atoms: O_1  and  C_2
REMARK    2  A    between atoms: C_2  and  C_3
REMARK    3  A    between atoms: C_2  and  C_11
REMARK    4  A    between atoms: C_2  and  C_17
REMARK    5  A    between atoms: C_3  and  C_4
REMARK    6  A    between atoms: C_4  and  N_5
REMARK                            x       y       z     vdW  Elec       q    Type
REMARK                         _______ _______ _______ _____ _____    ______ ____
ROOT
ATOM      1  C   UNL     1       7.128  -2.608  23.117  0.00  0.00    +0.095 C 
ENDROOT
BRANCH   1   2
ATOM      2  C   UNL     1       7.573  -3.411  24.350  0.00  0.00    -0.016 A 
ATOM      3  C   UNL     1       7.156  -3.062  25.645  0.00  0.00    +0.006 A 
ATOM      4  C   UNL     1       7.607  -3.767  26.769  0.00  0.00    +0.000 A 
ATOM      5  C   UNL     1       8.482  -4.840  26.621  0.00  0.00    +0.000 A 
ATOM      6  C   UNL     1       8.895  -5.216  25.347  0.00  0.00    +0.000 A 
ATOM      7  C   UNL     1       8.443  -4.512  24.227  0.00  0.00    +0.006 A 
ENDBRANCH   1   2
BRANCH   1   8
ATOM      8  C   UNL     1       5.789  -3.172  22.452  0.00  0.00    +0.025 C 
ATOM      9  C   UNL     1       4.800  -3.858  23.410  0.00  0.00    +0.007 C 
ATOM     10  C   UNL     1       5.222  -5.262  23.826  0.00  0.00    +0.000 C 
ATOM     11  C   UNL     1       5.479  -6.176  22.629  0.00  0.00    +0.000 C 
ATOM     12  C   UNL     1       6.377  -5.552  21.569  0.00  0.00    +0.000 C 
ATOM     13  C   UNL     1       5.973  -4.120  21.228  0.00  0.00    +0.007 C 
ENDBRANCH   1   8
BRANCH   1  14
ATOM     14  O   UNL     1       8.191  -2.620  22.164  0.00  0.00    -0.384 OA
ATOM     15  H   UNL     1       8.621  -1.747  22.167  0.00  0.00    +0.211 HD
ENDBRANCH   1  14
BRANCH   1  16
ATOM     16  C   UNL     1       6.829  -1.135  23.500  0.00  0.00    +0.055 C 
BRANCH  16  17
ATOM     17  C   UNL     1       7.582   0.039  22.865  0.00  0.00    +0.087 C 
BRANCH  17  18
ATOM     18  N   UNL     1       9.040  -0.124  23.121  0.00  0.00    -0.302 NA
ATOM     19  C   UNL     1       9.519   0.354  24.429  0.00  0.00    +0.084 C 
ATOM     20  C   UNL     1       9.472   1.874  24.546  0.00  0.00    +0.015 C 
ATOM     21  C   UNL     1      10.400   2.478  23.498  0.00  0.00    +0.002 C 
ATOM     22  C   UNL     1      10.057   1.960  22.103  0.00  0.00    +0.015 C 
ATOM     23  C   UNL     1       9.884   0.435  22.055  0.00  0.00    +0.084 C 
ENDBRANCH  17  18
ENDBRANCH  16  17
ENDBRANCH   1  16
TORSDOF 6
ENDMDL
MODEL 5
REMARK VINA RESULT:      -6.2      1.428      3.365
REMARK  Name = 
REMARK  6 active torsions:
REMARK  status: ('A' for Active; 'I' for Inactive)
REMARK    1  A    between atoms: O_1  and  C_2
REMARK    2  A    between atoms: C_2  and  C_3
REMARK    3  A    between atoms: C_2  and  C_11
REMARK    4  A    between atoms: C_2  and  C_17
REMARK    5  A    between atoms: C_3  and  C_4
REMARK    6  A    between atoms: C_4  and  N_5
REMARK                            x       y       z     vdW  Elec       q    Type
REMARK                         _______ _______ _______ _____ _____    ______ ____
ROOT
ATOM      1  C   UNL     1       6.797  -2.248  23.953  0.00  0.00    +0.095 C 
ENDROOT
BRANCH   1   2
ATOM      2  C   UNL     1       6.819  -3.509  23.076  0.00  0.00    -0.016 A 
ATOM      3  C   UNL     1       5.957  -3.655  21.976  0.00  0.00    +0.006 A 
ATOM      4  C   UNL     1       5.946  -4.830  21.212  0.00  0.00    +0.000 A 
ATOM      5  C   UNL     1       6.800  -5.883  21.529  0.00  0.00    +0.000 A 
ATOM      6  C   UNL     1       7.676  -5.755  22.601  0.00  0.00    +0.000 A 
ATOM      7  C   UNL     1       7.686  -4.582  23.362  0.00  0.00    +0.006 A 
ENDBRANCH   1   2
BRANCH   1   8
ATOM      8  C   UNL     1       5.800  -2.367  25.197  0.00  0.00    +0.025 C 
ATOM      9  C   UNL     1       6.421  -2.869  26.511  0.00  0.00    +0.007 C 
ATOM     10  C   UNL     1       6.678  -4.371  26.534  0.00  0.00    +0.000 C 
ATOM     11  C   UNL     1       5.423  -5.186  26.227  0.00  0.00    +0.000 C 
ATOM     12  C   UNL     1       4.676  -4.708  24.989  0.00  0.00    +0.000 C 
ATOM     13  C   UNL     1       4.498  -3.192  24.961  0.00  0.00    +0.007 C 
ENDBRANCH   1   8
BRANCH   1  14
ATOM     14  O   UNL     1       6.431  -1.136  23.136  0.00  0.00    -0.384 OA
ATOM     15  H   UNL     1       6.003  -0.466  23.698  0.00  0.00    +0.211 HD
ENDBRANCH   1  14
BRANCH   1  16
ATOM     16  C   UNL     1       8.201  -1.973  24.554  0.00  0.00    +0.055 C 
BRANCH  16  17
ATOM     17  C   UNL     1       8.734  -0.551  24.759  0.00  0.00    +0.087 C 
BRANCH  17  18
ATOM     18  N   UNL     1      10.075  -0.439  24.121  0.00  0.00    -0.302 NA
ATOM     19  C   UNL     1      10.759   0.854  24.290  0.00  0.00    +0.084 C 
ATOM     20  C   UNL     1      10.082   1.977  23.513  0.00  0.00    +0.015 C 
ATOM     21  C   UNL     1      10.137   1.651  22.025  0.00  0.00    +0.002 C 
ATOM     22  C   UNL     1       9.545   0.270  21.748  0.00  0.00    +0.015 C 
ATOM     23  C   UNL     1      10.077  -0.813  22.700  0.00  0.00    +0.084 C 
ENDBRANCH  17  18
ENDBRANCH  16  17
ENDBRANCH   1  16
TORSDOF 6
ENDMDL
MODEL 6
REMARK VINA RESULT:      -6.1      1.650      5.839
REMARK  Name = 
REMARK  6 active torsions:
REMARK  status: ('A' for Active; 'I' for Inactive)
REMARK    1  A    between atoms: O_1  and  C_2
REMARK    2  A    between atoms: C_2  and  C_3
REMARK    3  A    between atoms: C_2  and  C_11
REMARK    4  A    between atoms: C_2  and  C_17
REMARK    5  A    between atoms: C_3  and  C_4
REMARK    6  A    between atoms: C_4  and  N_5
REMARK                            x       y       z     vdW  Elec       q    Type
REMARK                         _______ _______ _______ _____ _____    ______ ____
ROOT
ATOM      1  C   UNL     1       8.514  -2.693  24.174  0.00  0.00    +0.095 C 
ENDROOT
BRANCH   1   2
ATOM      2  C   UNL     1       7.577  -3.614  23.377  0.00  0.00    -0.016 A 
ATOM      3  C   UNL     1       6.406  -3.127  22.772  0.00  0.00    +0.006 A 
ATOM      4  C   UNL     1       5.530  -3.983  22.090  0.00  0.00    +0.000 A 
ATOM      5  C   UNL     1       5.808  -5.343  21.996  0.00  0.00    +0.000 A 
ATOM      6  C   UNL     1       6.970  -5.847  22.570  0.00  0.00    +0.000 A 
ATOM      7  C   UNL     1       7.844  -4.991  23.249  0.00  0.00    +0.006 A 
ENDBRANCH   1   2
BRANCH   1   8
ATOM      8  C   UNL     1       8.260  -1.141  23.886  0.00  0.00    +0.025 C 
ATOM      9  C   UNL     1       8.893  -0.583  22.600  0.00  0.00    +0.007 C 
ATOM     10  C   UNL     1      10.396  -0.349  22.707  0.00  0.00    +0.000 C 
ATOM     11  C   UNL     1      10.766   0.552  23.883  0.00  0.00    +0.000 C 
ATOM     12  C   UNL     1      10.113   0.141  25.195  0.00  0.00    +0.000 C 
ATOM     13  C   UNL     1       8.624  -0.157  25.039  0.00  0.00    +0.007 C 
ENDBRANCH   1   8
BRANCH   1  14
ATOM     14  O   UNL     1       9.862  -3.036  23.855  0.00  0.00    -0.384 OA
ATOM     15  H   UNL     1       9.929  -4.005  23.792  0.00  0.00    +0.211 HD
ENDBRANCH   1  14
BRANCH   1  16
ATOM     16  C   UNL     1       8.306  -2.885  25.699  0.00  0.00    +0.055 C 
BRANCH  16  17
ATOM     17  C   UNL     1       8.272  -4.274  26.345  0.00  0.00    +0.087 C 
BRANCH  17  18
ATOM     18  N   UNL     1       7.148  -4.328  27.321  0.00  0.00    -0.302 NA
ATOM     19  C   UNL     1       6.510  -5.644  27.493  0.00  0.00    +0.084 C 
ATOM     20  C   UNL     1       5.717  -6.072  26.264  0.00  0.00    +0.015 C 
ATOM     21  C   UNL     1       4.590  -5.074  26.030  0.00  0.00    +0.002 C 
ATOM     22  C   UNL     1       5.134  -3.649  25.943  0.00  0.00    +0.015 C 
ATOM     23  C   UNL     1       6.115  -3.311  27.076  0.00  0.00    +0.084 C 
ENDBRANCH  17  18
ENDBRANCH  16  17
ENDBRANCH   1  16
TORSDOF 6
ENDMDL
MODEL 7
REMARK VINA RESULT:      -6.0      1.954      6.309
REMARK  Name = 
REMARK  6 active torsions:
REMARK  status: ('A' for Active; 'I' for Inactive)
REMARK    1  A    between atoms: O_1  and  C_2
REMARK    2  A    between atoms: C_2  and  C_3
REMARK    3  A    between atoms: C_2  and  C_11
REMARK    4  A    between atoms: C_2  and  C_17
REMARK    5  A    between atoms: C_3  and  C_4
REMARK    6  A    between atoms: C_4  and  N_5
REMARK                            x       y       z     vdW  Elec       q    Type
REMARK                         _______ _______ _______ _____ _____    ______ ____
ROOT
ATOM      1  C   UNL     1       8.658  -1.540  23.678  0.00  0.00    +0.095 C 
ENDROOT
BRANCH   1   2
ATOM      2  C   UNL     1       9.345  -0.198  23.379  0.00  0.00    -0.016 A 
ATOM      3  C   UNL     1      10.227   0.398  24.296  0.00  0.00    +0.006 A 
ATOM      4  C   UNL     1      10.810   1.646  24.040  0.00  0.00    +0.000 A 
ATOM      5  C   UNL     1      10.525   2.325  22.858  0.00  0.00    +0.000 A 
ATOM      6  C   UNL     1       9.669   1.748  21.926  0.00  0.00    +0.000 A 
ATOM      7  C   UNL     1       9.090   0.502  22.183  0.00  0.00    +0.006 A 
ENDBRANCH   1   2
BRANCH   1   8
ATOM      8  C   UNL     1       7.303  -1.378  24.509  0.00  0.00    +0.025 C 
ATOM      9  C   UNL     1       6.539  -0.059  24.300  0.00  0.00    +0.007 C 
ATOM     10  C   UNL     1       7.160   1.131  25.022  0.00  0.00    +0.000 C 
ATOM     11  C   UNL     1       7.335   0.882  26.519  0.00  0.00    +0.000 C 
ATOM     12  C   UNL     1       8.001  -0.449  26.841  0.00  0.00    +0.000 C 
ATOM     13  C   UNL     1       7.405  -1.609  26.048  0.00  0.00    +0.007 C 
ENDBRANCH   1   8
BRANCH   1  14
ATOM     14  O   UNL     1       9.576  -2.366  24.393  0.00  0.00    -0.384 OA
ATOM     15  H   UNL     1       9.496  -3.278  24.062  0.00  0.00    +0.211 HD
ENDBRANCH   1  14
BRANCH   1  16
ATOM     16  C   UNL     1       8.270  -2.262  22.361  0.00  0.00    +0.055 C 
BRANCH  16  17
ATOM     17  C   UNL     1       7.081  -3.226  22.283  0.00  0.00    +0.087 C 
BRANCH  17  18
ATOM     18  N   UNL     1       7.520  -4.576  22.735  0.00  0.00    -0.302 NA
ATOM     19  C   UNL     1       7.111  -5.703  21.880  0.00  0.00    +0.084 C 
ATOM     20  C   UNL     1       5.610  -5.961  21.936  0.00  0.00    +0.015 C 
ATOM     21  C   UNL     1       5.226  -6.338  23.362  0.00  0.00    +0.002 C 
ATOM     22  C   UNL     1       5.703  -5.278  24.353  0.00  0.00    +0.015 C 
ATOM     23  C   UNL     1       7.166  -4.865  24.132  0.00  0.00    +0.084 C 
ENDBRANCH  17  18
ENDBRANCH  16  17
ENDBRANCH   1  16
TORSDOF 6
ENDMDL
MODEL 8
REMARK VINA RESULT:      -5.9      3.016      7.220
REMARK  Name = 
REMARK  6 active torsions:
REMARK  status: ('A' for Active; 'I' for Inactive)
REMARK    1  A    between atoms: O_1  and  C_2
REMARK    2  A    between atoms: C_2  and  C_3
REMARK    3  A    between atoms: C_2  and  C_11
REMARK    4  A    between atoms: C_2  and  C_17
REMARK    5  A    between atoms: C_3  and  C_4
REMARK    6  A    between atoms: C_4  and  N_5
REMARK                            x       y       z     vdW  Elec       q    Type
REMARK                         _______ _______ _______ _____ _____    ______ ____
ROOT
ATOM      1  C   UNL     1       8.853   2.367  24.297  0.00  0.00    +0.095 C 
ENDROOT
BRANCH   1   2
ATOM      2  C   UNL     1       9.795   3.545  24.001  0.00  0.00    -0.016 A 
ATOM      3  C   UNL     1      11.047   3.351  23.395  0.00  0.00    +0.006 A 
ATOM      4  C   UNL     1      11.922   4.423  23.175  0.00  0.00    +0.000 A 
ATOM      5  C   UNL     1      11.562   5.714  23.553  0.00  0.00    +0.000 A 
ATOM      6  C   UNL     1      10.319   5.934  24.138  0.00  0.00    +0.000 A 
ATOM      7  C   UNL     1       9.447   4.863  24.356  0.00  0.00    +0.006 A 
ENDBRANCH   1   2
BRANCH   1   8
ATOM      8  C   UNL     1       7.995   1.916  23.026  0.00  0.00    +0.025 C 
ATOM      9  C   UNL     1       7.850   2.962  21.908  0.00  0.00    +0.007 C 
ATOM     10  C   UNL     1       6.852   4.068  22.227  0.00  0.00    +0.000 C 
ATOM     11  C   UNL     1       5.471   3.525  22.590  0.00  0.00    +0.000 C 
ATOM     12  C   UNL     1       5.510   2.412  23.628  0.00  0.00    +0.000 C 
ATOM     13  C   UNL     1       6.569   1.358  23.318  0.00  0.00    +0.007 C 
ENDBRANCH   1   8
BRANCH   1  14
ATOM     14  O   UNL     1       7.984   2.742  25.366  0.00  0.00    -0.384 OA
ATOM     15  H   UNL     1       7.513   1.950  25.676  0.00  0.00    +0.211 HD
ENDBRANCH   1  14
BRANCH   1  16
ATOM     16  C   UNL     1       9.659   1.117  24.736  0.00  0.00    +0.055 C 
BRANCH  16  17
ATOM     17  C   UNL     1       9.856  -0.089  23.810  0.00  0.00    +0.087 C 
BRANCH  17  18
ATOM     18  N   UNL     1       9.781  -1.338  24.618  0.00  0.00    -0.302 NA
ATOM     19  C   UNL     1       9.738  -2.595  23.853  0.00  0.00    +0.084 C 
ATOM     20  C   UNL     1       8.424  -2.775  23.101  0.00  0.00    +0.015 C 
ATOM     21  C   UNL     1       7.284  -2.844  24.109  0.00  0.00    +0.002 C 
ATOM     22  C   UNL     1       7.299  -1.627  25.033  0.00  0.00    +0.015 C 
ATOM     23  C   UNL     1       8.692  -1.328  25.607  0.00  0.00    +0.084 C 
ENDBRANCH  17  18
ENDBRANCH  16  17
ENDBRANCH   1  16
TORSDOF 6
ENDMDL
MODEL 9
REMARK VINA RESULT:      -5.8      2.158      6.331
REMARK  Name = 
REMARK  6 active torsions:
REMARK  status: ('A' for Active; 'I' for Inactive)
REMARK    1  A    between atoms: O_1  and  C_2
REMARK    2  A    between atoms: C_2  and  C_3
REMARK    3  A    between atoms: C_2  and  C_11
REMARK    4  A    between atoms: C_2  and  C_17
REMARK    5  A    between atoms: C_3  and  C_4
REMARK    6  A    between atoms: C_4  and  N_5
REMARK                            x       y       z     vdW  Elec       q    Type
REMARK                         _______ _______ _______ _____ _____    ______ ____
ROOT
ATOM      1  C   UNL     1       8.894  -0.661  25.001  0.00  0.00    +0.095 C 
ENDROOT
BRANCH   1   2
ATOM      2  C   UNL     1       9.378   0.408  24.009  0.00  0.00    -0.016 A 
ATOM      3  C   UNL     1       9.240   0.240  22.621  0.00  0.00    +0.006 A 
ATOM      4  C   UNL     1       9.730   1.195  21.720  0.00  0.00    +0.000 A 
ATOM      5  C   UNL     1      10.367   2.341  22.188  0.00  0.00    +0.000 A 
ATOM      6  C   UNL     1      10.500   2.539  23.559  0.00  0.00    +0.000 A 
ATOM      7  C   UNL     1      10.009   1.586  24.456  0.00  0.00    +0.006 A 
ENDBRANCH   1   2
BRANCH   1   8
ATOM      8  C   UNL     1       7.301  -0.751  25.096  0.00  0.00    +0.025 C 
ATOM      9  C   UNL     1       6.527   0.483  24.604  0.00  0.00    +0.007 C 
ATOM     10  C   UNL     1       6.549   1.652  25.582  0.00  0.00    +0.000 C 
ATOM     11  C   UNL     1       6.046   1.263  26.971  0.00  0.00    +0.000 C 
ATOM     12  C   UNL     1       6.685  -0.007  27.515  0.00  0.00    +0.000 C 
ATOM     13  C   UNL     1       6.713  -1.136  26.488  0.00  0.00    +0.007 C 
ENDBRANCH   1   8
BRANCH   1  14
ATOM     14  O   UNL     1       9.444  -0.366  26.285  0.00  0.00    -0.384 OA
ATOM     15  H   UNL     1       9.189  -1.074  26.902  0.00  0.00    +0.211 HD
ENDBRANCH   1  14
BRANCH   1  16
ATOM     16  C   UNL     1       9.379  -2.070  24.571  0.00  0.00    +0.055 C 
BRANCH  16  17
ATOM     17  C   UNL     1       8.494  -3.020  23.757  0.00  0.00    +0.087 C 
BRANCH  17  18
ATOM     18  N   UNL     1       8.797  -4.424  24.152  0.00  0.00    -0.302 NA
ATOM     19  C   UNL     1       7.774  -5.424  23.803  0.00  0.00    +0.084 C 
ATOM     20  C   UNL     1       6.499  -5.264  24.624  0.00  0.00    +0.015 C 
ATOM     21  C   UNL     1       6.830  -5.480  26.096  0.00  0.00    +0.002 C 
ATOM     22  C   UNL     1       7.965  -4.559  26.540  0.00  0.00    +0.015 C 
ATOM     23  C   UNL     1       9.156  -4.564  25.571  0.00  0.00    +0.084 C 
ENDBRANCH  17  18
ENDBRANCH  16  17
ENDBRANCH   1  16
TORSDOF 6
ENDMDL
