MODEL 1
REMARK VINA RESULT:      -7.3      0.000      0.000
REMARK  Name = 
REMARK  8 active torsions:
REMARK  status: ('A' for Active; 'I' for Inactive)
REMARK    1  A    between atoms: C_1  and  C_2
REMARK    2  A    between atoms: C_2  and  C_3
REMARK    3  A    between atoms: C_2  and  N_4
REMARK    4  A    between atoms: C_7  and  N_10
REMARK    5  A    between atoms: C_11  and  C_13
REMARK    6  A    between atoms: N_21  and  C_22
REMARK    7  A    between atoms: C_22  and  C_23
REMARK    8  A    between atoms: N_25  and  C_26
REMARK                            x       y       z     vdW  Elec       q    Type
REMARK                         _______ _______ _______ _____ _____    ______ ____
ROOT
ATOM      1  C   UNL     1       8.219  -3.542  23.833  0.00  0.00    +0.106 A 
ATOM      2  N   UNL     1       7.627  -3.823  25.052  0.00  0.00    -0.327 N 
ATOM      3  C   UNL     1       6.648  -4.794  24.889  0.00  0.00    +0.050 A 
ATOM      4  C   UNL     1       5.837  -5.474  25.812  0.00  0.00    +0.026 A 
ATOM      5  C   UNL     1       4.916  -6.410  25.323  0.00  0.00    +0.002 A 
ATOM      6  C   UNL     1       4.802  -6.668  23.960  0.00  0.00    +0.001 A 
ATOM      7  C   UNL     1       5.619  -6.002  23.048  0.00  0.00    +0.010 A 
ATOM      8  C   UNL     1       6.554  -5.062  23.521  0.00  0.00    +0.001 A 
ATOM      9  C   UNL     1       7.521  -4.263  22.875  0.00  0.00    +0.041 A 
ENDROOT
BRANCH   1  12
ATOM     10  N   UNL     1       8.968  -1.421  23.198  0.00  0.00    -0.307 N 
ATOM     11  H   UNL     1       8.030  -1.343  22.828  0.00  0.00    +0.149 HD
ATOM     12  C   UNL     1       9.350  -2.667  23.625  0.00  0.00    +0.261 C 
ATOM     13  O   UNL     1      10.521  -2.999  23.768  0.00  0.00    -0.269 OA
BRANCH  10  17
ATOM     14  N   UNL     1       8.699   2.231  23.544  0.00  0.00    -0.300 NA
ATOM     15  C   UNL     1       9.198   1.333  24.584  0.00  0.00    +0.086 C 
ATOM     16  C   UNL     1      10.302   0.386  24.114  0.00  0.00    +0.037 C 
ATOM     17  C   UNL     1       9.909  -0.375  22.850  0.00  0.00    +0.076 C 
ATOM     18  C   UNL     1       9.330   0.543  21.776  0.00  0.00    +0.037 C 
ATOM     19  C   UNL     1       8.291   1.517  22.335  0.00  0.00    +0.086 C 
BRANCH  14  21
ATOM     20  C   UNL     1       9.091   4.629  24.375  0.00  0.00    +0.024 C 
ATOM     21  C   UNL     1       9.437   3.496  23.405  0.00  0.00    +0.050 C 
ATOM     22  C   UNL     1      10.952   3.259  23.427  0.00  0.00    +0.024 C 
ENDBRANCH  14  21
ENDBRANCH  10  17
ENDBRANCH   1  12
BRANCH   2  23
ATOM     23  C   UNL     1       8.002  -3.196  26.320  0.00  0.00    +0.218 C 
BRANCH  23  24
ATOM     24  C   UNL     1       7.500  -1.768  26.421  0.00  0.00    +0.237 C 
ATOM     25  N   UNL     1       6.243  -1.522  25.874  0.00  0.00    -0.284 N 
ATOM     26  H   UNL     1       5.731  -2.310  25.488  0.00  0.00    +0.155 HD
ATOM     27  O   UNL     1       8.174  -0.938  27.021  0.00  0.00    -0.274 OA
BRANCH  25  28
ATOM     28  C   UNL     1       5.562  -0.277  25.922  0.00  0.00    +0.034 A 
ATOM     29  C   UNL     1       4.794   0.040  27.051  0.00  0.00    +0.025 A 
ATOM     30  C   UNL     1       4.194   1.306  27.174  0.00  0.00    +0.022 A 
ATOM     31  C   UNL     1       4.339   2.249  26.158  0.00  0.00    +0.041 A 
ATOM     32 CL   UNL     1       3.656   3.819  26.325  0.00  0.00    -0.084 Cl
ATOM     33  C   UNL     1       5.044   1.925  25.009  0.00  0.00    +0.022 A 
ATOM     34  C   UNL     1       5.641   0.667  24.891  0.00  0.00    +0.025 A 
ENDBRANCH  25  28
ENDBRANCH  23  24
ENDBRANCH   2  23
TORSDOF 6
ENDMDL
MODEL 2
REMARK VINA RESULT:      -7.2      1.830      6.429
REMARK  Name = 
REMARK  8 active torsions:
REMARK  status: ('A' for Active; 'I' for Inactive)
REMARK    1  A    between atoms: C_1  and  C_2
REMARK    2  A    between atoms: C_2  and  C_3
REMARK    3  A    between atoms: C_2  and  N_4
REMARK    4  A    between atoms: C_7  and  N_10
REMARK    5  A    between atoms: C_11  and  C_13
REMARK    6  A    between atoms: N_21  and  C_22
REMARK    7  A    between atoms: C_22  and  C_23
REMARK    8  A    between atoms: N_25  and  C_26
REMARK                            x       y       z     vdW  Elec       q    Type
REMARK                         _______ _______ _______ _____ _____    ______ ____
ROOT
ATOM      1  C   UNL     1       9.207  -1.998  23.853  0.00  0.00    +0.106 A 
ATOM      2  N   UNL     1       9.298  -0.970  24.775  0.00  0.00    -0.327 N 
ATOM      3  C   UNL     1       9.556   0.228  24.121  0.00  0.00    +0.050 A 
ATOM      4  C   UNL     1       9.648   1.550  24.587  0.00  0.00    +0.026 A 
ATOM      5  C   UNL     1       9.939   2.560  23.661  0.00  0.00    +0.002 A 
ATOM      6  C   UNL     1      10.131   2.273  22.313  0.00  0.00    +0.001 A 
ATOM      7  C   UNL     1      10.024   0.961  21.853  0.00  0.00    +0.010 A 
ATOM      8  C   UNL     1       9.727  -0.067  22.767  0.00  0.00    +0.001 A 
ATOM      9  C   UNL     1       9.528  -1.455  22.617  0.00  0.00    +0.041 A 
ENDROOT
BRANCH   1  12
ATOM     10  N   UNL     1       7.490  -3.575  24.030  0.00  0.00    -0.307 N 
ATOM     11  H   UNL     1       6.907  -2.749  24.032  0.00  0.00    +0.149 HD
ATOM     12  C   UNL     1       8.840  -3.365  24.146  0.00  0.00    +0.261 C 
ATOM     13  O   UNL     1       9.629  -4.235  24.500  0.00  0.00    -0.269 OA
BRANCH  10  17
ATOM     14  N   UNL     1       4.173  -4.854  23.085  0.00  0.00    -0.300 NA
ATOM     15  C   UNL     1       5.381  -5.002  22.276  0.00  0.00    +0.086 C 
ATOM     16  C   UNL     1       6.573  -5.588  23.033  0.00  0.00    +0.037 C 
ATOM     17  C   UNL     1       6.852  -4.840  24.335  0.00  0.00    +0.076 C 
ATOM     18  C   UNL     1       5.587  -4.626  25.164  0.00  0.00    +0.037 C 
ATOM     19  C   UNL     1       4.415  -4.116  24.324  0.00  0.00    +0.086 C 
BRANCH  14  21
ATOM     20  C   UNL     1       3.488  -7.019  24.284  0.00  0.00    +0.024 C 
ATOM     21  C   UNL     1       3.300  -6.037  23.125  0.00  0.00    +0.050 C 
ATOM     22  C   UNL     1       1.821  -5.637  23.039  0.00  0.00    +0.024 C 
ENDBRANCH  14  21
ENDBRANCH  10  17
ENDBRANCH   1  12
BRANCH   2  23
ATOM     23  C   UNL     1       9.125  -1.132  26.218  0.00  0.00    +0.218 C 
BRANCH  23  24
ATOM     24  C   UNL     1       7.745  -0.704  26.679  0.00  0.00    +0.237 C 
ATOM     25  N   UNL     1       7.685   0.482  27.407  0.00  0.00    -0.284 N 
ATOM     26  H   UNL     1       8.549   0.999  27.543  0.00  0.00    +0.155 HD
ATOM     27  O   UNL     1       6.769  -1.364  26.342  0.00  0.00    -0.274 OA
BRANCH  25  28
ATOM     28  C   UNL     1       6.492   1.095  27.872  0.00  0.00    +0.034 A 
ATOM     29  C   UNL     1       5.843   2.035  27.059  0.00  0.00    +0.025 A 
ATOM     30  C   UNL     1       4.606   2.580  27.445  0.00  0.00    +0.022 A 
ATOM     31  C   UNL     1       4.026   2.208  28.656  0.00  0.00    +0.041 A 
ATOM     32 CL   UNL     1       2.486   2.827  29.110  0.00  0.00    -0.084 Cl
ATOM     33  C   UNL     1       4.687   1.326  29.498  0.00  0.00    +0.022 A 
ATOM     34  C   UNL     1       5.916   0.784  29.109  0.00  0.00    +0.025 A 
ENDBRANCH  25  28
ENDBRANCH  23  24
ENDBRANCH   2  23
TORSDOF 6
ENDMDL
MODEL 3
REMARK VINA RESULT:      -7.1      1.915      6.397
REMARK  Name = 
REMARK  8 active torsions:
REMARK  status: ('A' for Active; 'I' for Inactive)
REMARK    1  A    between atoms: C_1  and  C_2
REMARK    2  A    between atoms: C_2  and  C_3
REMARK    3  A    between atoms: C_2  and  N_4
REMARK    4  A    between atoms: C_7  and  N_10
REMARK    5  A    between atoms: C_11  and  C_13
REMARK    6  A    between atoms: N_21  and  C_22
REMARK    7  A    between atoms: C_22  and  C_23
REMARK    8  A    between atoms: N_25  and  C_26
REMARK                            x       y       z     vdW  Elec       q    Type
REMARK                         _______ _______ _______ _____ _____    ______ ____
ROOT
ATOM      1  C   UNL     1       9.400  -2.225  24.120  0.00  0.00    +0.106 A 
ATOM      2  N   UNL     1       9.329  -1.114  24.942  0.00  0.00    -0.327 N 
ATOM      3  C   UNL     1       9.496   0.042  24.190  0.00  0.00    +0.050 A 
ATOM      4  C   UNL     1       9.421   1.403  24.531  0.00  0.00    +0.026 A 
ATOM      5  C   UNL     1       9.656   2.351  23.527  0.00  0.00    +0.002 A 
ATOM      6  C   UNL     1       9.952   1.966  22.223  0.00  0.00    +0.001 A 
ATOM      7  C   UNL     1      10.011   0.615  21.886  0.00  0.00    +0.010 A 
ATOM      8  C   UNL     1       9.774  -0.353  22.880  0.00  0.00    +0.001 A 
ATOM      9  C   UNL     1       9.731  -1.763  22.854  0.00  0.00    +0.041 A 
ENDROOT
BRANCH   1  12
ATOM     10  N   UNL     1       7.834  -3.845  24.743  0.00  0.00    -0.307 N 
ATOM     11  H   UNL     1       7.239  -3.036  24.866  0.00  0.00    +0.149 HD
ATOM     12  C   UNL     1       9.164  -3.592  24.525  0.00  0.00    +0.261 C 
ATOM     13  O   UNL     1      10.045  -4.426  24.699  0.00  0.00    -0.269 OA
BRANCH  10  17
ATOM     14  N   UNL     1       5.014  -4.600  26.980  0.00  0.00    -0.300 NA
ATOM     15  C   UNL     1       4.907  -4.453  25.530  0.00  0.00    +0.086 C 
ATOM     16  C   UNL     1       5.898  -5.307  24.740  0.00  0.00    +0.037 C 
ATOM     17  C   UNL     1       7.335  -5.118  25.223  0.00  0.00    +0.076 C 
ATOM     18  C   UNL     1       7.452  -5.210  26.743  0.00  0.00    +0.037 C 
ATOM     19  C   UNL     1       6.378  -4.395  27.465  0.00  0.00    +0.086 C 
BRANCH  14  21
ATOM     20  C   UNL     1       4.653  -6.253  28.911  0.00  0.00    +0.024 C 
ATOM     21  C   UNL     1       4.213  -5.692  27.557  0.00  0.00    +0.050 C 
ATOM     22  C   UNL     1       2.728  -5.312  27.627  0.00  0.00    +0.024 C 
ENDBRANCH  14  21
ENDBRANCH  10  17
ENDBRANCH   1  12
BRANCH   2  23
ATOM     23  C   UNL     1       9.093  -1.164  26.385  0.00  0.00    +0.218 C 
BRANCH  23  24
ATOM     24  C   UNL     1       7.717  -0.646  26.756  0.00  0.00    +0.237 C 
ATOM     25  N   UNL     1       7.688   0.476  27.581  0.00  0.00    -0.284 N 
ATOM     26  H   UNL     1       8.575   0.896  27.842  0.00  0.00    +0.155 HD
ATOM     27  O   UNL     1       6.726  -1.181  26.273  0.00  0.00    -0.274 OA
BRANCH  25  28
ATOM     28  C   UNL     1       6.511   1.158  27.990  0.00  0.00    +0.034 A 
ATOM     29  C   UNL     1       6.045   2.237  27.226  0.00  0.00    +0.025 A 
ATOM     30  C   UNL     1       4.828   2.864  27.544  0.00  0.00    +0.022 A 
ATOM     31  C   UNL     1       4.087   2.433  28.643  0.00  0.00    +0.041 A 
ATOM     32 CL   UNL     1       2.570   3.159  29.007  0.00  0.00    -0.084 Cl
ATOM     33  C   UNL     1       4.569   1.408  29.444  0.00  0.00    +0.022 A 
ATOM     34  C   UNL     1       5.777   0.785  29.122  0.00  0.00    +0.025 A 
ENDBRANCH  25  28
ENDBRANCH  23  24
ENDBRANCH   2  23
TORSDOF 6
ENDMDL
MODEL 4
REMARK VINA RESULT:      -7.0      3.054      4.673
REMARK  Name = 
REMARK  8 active torsions:
REMARK  status: ('A' for Active; 'I' for Inactive)
REMARK    1  A    between atoms: C_1  and  C_2
REMARK    2  A    between atoms: C_2  and  C_3
REMARK    3  A    between atoms: C_2  and  N_4
REMARK    4  A    between atoms: C_7  and  N_10
REMARK    5  A    between atoms: C_11  and  C_13
REMARK    6  A    between atoms: N_21  and  C_22
REMARK    7  A    between atoms: C_22  and  C_23
REMARK    8  A    between atoms: N_25  and  C_26
REMARK                            x       y       z     vdW  Elec       q    Type
REMARK                         _______ _______ _______ _____ _____    ______ ____
ROOT
ATOM      1  C   UNL     1       7.210  -2.159  24.305  0.00  0.00    +0.106 A 
ATOM      2  N   UNL     1       7.667  -3.454  24.477  0.00  0.00    -0.327 N 
ATOM      3  C   UNL     1       7.307  -4.231  23.383  0.00  0.00    +0.050 A 
ATOM      4  C   UNL     1       7.602  -5.560  23.039  0.00  0.00    +0.026 A 
ATOM      5  C   UNL     1       7.068  -6.070  21.847  0.00  0.00    +0.002 A 
ATOM      6  C   UNL     1       6.268  -5.287  21.020  0.00  0.00    +0.001 A 
ATOM      7  C   UNL     1       5.991  -3.964  21.359  0.00  0.00    +0.010 A 
ATOM      8  C   UNL     1       6.522  -3.432  22.548  0.00  0.00    +0.001 A 
ATOM      9  C   UNL     1       6.453  -2.155  23.142  0.00  0.00    +0.041 A 
ENDROOT
BRANCH   1  12
ATOM     10  N   UNL     1       8.179  -0.045  24.543  0.00  0.00    -0.307 N 
ATOM     11  H   UNL     1       8.636  -0.300  23.677  0.00  0.00    +0.149 HD
ATOM     12  C   UNL     1       7.487  -1.042  25.180  0.00  0.00    +0.261 C 
ATOM     13  O   UNL     1       7.181  -0.999  26.367  0.00  0.00    -0.269 OA
BRANCH  10  17
ATOM     14  N   UNL     1       8.490   3.401  23.295  0.00  0.00    -0.300 NA
ATOM     15  C   UNL     1       7.280   2.841  23.894  0.00  0.00    +0.086 C 
ATOM     16  C   UNL     1       7.505   2.175  25.251  0.00  0.00    +0.037 C 
ATOM     17  C   UNL     1       8.641   1.155  25.211  0.00  0.00    +0.076 C 
ATOM     18  C   UNL     1       9.893   1.708  24.534  0.00  0.00    +0.037 C 
ATOM     19  C   UNL     1       9.580   2.430  23.222  0.00  0.00    +0.086 C 
BRANCH  14  21
ATOM     20  C   UNL     1      10.267   5.217  23.666  0.00  0.00    +0.024 C 
ATOM     21  C   UNL     1       8.798   4.785  23.688  0.00  0.00    +0.050 C 
ATOM     22  C   UNL     1       7.966   5.789  22.881  0.00  0.00    +0.024 C 
ENDBRANCH  14  21
ENDBRANCH  10  17
ENDBRANCH   1  12
BRANCH   2  23
ATOM     23  C   UNL     1       8.433  -3.916  25.634  0.00  0.00    +0.218 C 
BRANCH  23  24
ATOM     24  C   UNL     1       7.617  -4.826  26.533  0.00  0.00    +0.237 C 
ATOM     25  N   UNL     1       6.376  -4.334  26.934  0.00  0.00    -0.284 N 
ATOM     26  H   UNL     1       6.083  -3.433  26.570  0.00  0.00    +0.155 HD
ATOM     27  O   UNL     1       8.043  -5.943  26.800  0.00  0.00    -0.274 OA
BRANCH  25  28
ATOM     28  C   UNL     1       5.430  -5.048  27.715  0.00  0.00    +0.034 A 
ATOM     29  C   UNL     1       4.359  -5.689  27.077  0.00  0.00    +0.025 A 
ATOM     30  C   UNL     1       3.466  -6.490  27.810  0.00  0.00    +0.022 A 
ATOM     31  C   UNL     1       3.625  -6.631  29.187  0.00  0.00    +0.041 A 
ATOM     32 CL   UNL     1       2.571  -7.653  30.084  0.00  0.00    -0.084 Cl
ATOM     33  C   UNL     1       4.643  -5.952  29.840  0.00  0.00    +0.022 A 
ATOM     34  C   UNL     1       5.530  -5.159  29.107  0.00  0.00    +0.025 A 
ENDBRANCH  25  28
ENDBRANCH  23  24
ENDBRANCH   2  23
TORSDOF 6
ENDMDL
MODEL 5
REMARK VINA RESULT:      -7.0      3.405      7.773
REMARK  Name = 
REMARK  8 active torsions:
REMARK  status: ('A' for Active; 'I' for Inactive)
REMARK    1  A    between atoms: C_1  and  C_2
REMARK    2  A    between atoms: C_2  and  C_3
REMARK    3  A    between atoms: C_2  and  N_4
REMARK    4  A    between atoms: C_7  and  N_10
REMARK    5  A    between atoms: C_11  and  C_13
REMARK    6  A    between atoms: N_21  and  C_22
REMARK    7  A    between atoms: C_22  and  C_23
REMARK    8  A    between atoms: N_25  and  C_26
REMARK                            x       y       z     vdW  Elec       q    Type
REMARK                         _______ _______ _______ _____ _____    ______ ____
ROOT
ATOM      1  C   UNL     1       9.246   2.349  23.067  0.00  0.00    +0.106 A 
ATOM      2  N   UNL     1       8.809   3.462  23.763  0.00  0.00    -0.327 N 
ATOM      3  C   UNL     1       9.840   4.386  23.872  0.00  0.00    +0.050 A 
ATOM      4  C   UNL     1       9.883   5.688  24.399  0.00  0.00    +0.026 A 
ATOM      5  C   UNL     1      11.105   6.373  24.373  0.00  0.00    +0.002 A 
ATOM      6  C   UNL     1      12.250   5.791  23.840  0.00  0.00    +0.001 A 
ATOM      7  C   UNL     1      12.200   4.504  23.305  0.00  0.00    +0.010 A 
ATOM      8  C   UNL     1      10.981   3.801  23.317  0.00  0.00    +0.001 A 
ATOM      9  C   UNL     1      10.603   2.529  22.839  0.00  0.00    +0.041 A 
ENDROOT
BRANCH   1  12
ATOM     10  N   UNL     1       8.480   0.197  23.562  0.00  0.00    -0.307 N 
ATOM     11  H   UNL     1       9.252   0.213  24.216  0.00  0.00    +0.149 HD
ATOM     12  C   UNL     1       8.426   1.230  22.662  0.00  0.00    +0.261 C 
ATOM     13  O   UNL     1       7.786   1.180  21.617  0.00  0.00    -0.269 OA
BRANCH  10  17
ATOM     14  N   UNL     1       8.893  -3.018  25.301  0.00  0.00    -0.300 NA
ATOM     15  C   UNL     1       7.993  -1.950  25.732  0.00  0.00    +0.086 C 
ATOM     16  C   UNL     1       7.054  -1.444  24.637  0.00  0.00    +0.037 C 
ATOM     17  C   UNL     1       7.805  -1.069  23.362  0.00  0.00    +0.076 C 
ATOM     18  C   UNL     1       8.793  -2.151  22.931  0.00  0.00    +0.037 C 
ATOM     19  C   UNL     1       9.642  -2.666  24.095  0.00  0.00    +0.086 C 
BRANCH  14  21
ATOM     20  C   UNL     1       9.312  -5.549  25.194  0.00  0.00    +0.024 C 
ATOM     21  C   UNL     1       8.351  -4.380  25.425  0.00  0.00    +0.050 C 
ATOM     22  C   UNL     1       7.639  -4.572  26.771  0.00  0.00    +0.024 C 
ENDBRANCH  14  21
ENDBRANCH  10  17
ENDBRANCH   1  12
BRANCH   2  23
ATOM     23  C   UNL     1       7.452   3.636  24.282  0.00  0.00    +0.218 C 
BRANCH  23  24
ATOM     24  C   UNL     1       6.484   4.095  23.209  0.00  0.00    +0.237 C 
ATOM     25  N   UNL     1       5.131   4.008  23.528  0.00  0.00    -0.284 N 
ATOM     26  H   UNL     1       4.884   3.690  24.460  0.00  0.00    +0.155 HD
ATOM     27  O   UNL     1       6.926   4.569  22.168  0.00  0.00    -0.274 OA
BRANCH  25  28
ATOM     28  C   UNL     1       4.067   4.446  22.697  0.00  0.00    +0.034 A 
ATOM     29  C   UNL     1       3.775   5.815  22.623  0.00  0.00    +0.025 A 
ATOM     30  C   UNL     1       2.798   6.290  21.730  0.00  0.00    +0.022 A 
ATOM     31  C   UNL     1       2.092   5.396  20.929  0.00  0.00    +0.041 A 
ATOM     32 CL   UNL     1       0.934   5.973  19.794  0.00  0.00    -0.084 Cl
ATOM     33  C   UNL     1       2.327   4.034  21.037  0.00  0.00    +0.022 A 
ATOM     34  C   UNL     1       3.301   3.566  21.924  0.00  0.00    +0.025 A 
ENDBRANCH  25  28
ENDBRANCH  23  24
ENDBRANCH   2  23
TORSDOF 6
ENDMDL
MODEL 6
REMARK VINA RESULT:      -6.9      1.625      1.819
REMARK  Name = 
REMARK  8 active torsions:
REMARK  status: ('A' for Active; 'I' for Inactive)
REMARK    1  A    between atoms: C_1  and  C_2
REMARK    2  A    between atoms: C_2  and  C_3
REMARK    3  A    between atoms: C_2  and  N_4
REMARK    4  A    between atoms: C_7  and  N_10
REMARK    5  A    between atoms: C_11  and  C_13
REMARK    6  A    between atoms: N_21  and  C_22
REMARK    7  A    between atoms: C_22  and  C_23
REMARK    8  A    between atoms: N_25  and  C_26
REMARK                            x       y       z     vdW  Elec       q    Type
REMARK                         _______ _______ _______ _____ _____    ______ ____
ROOT
ATOM      1  C   UNL     1       8.385  -2.628  23.159  0.00  0.00    +0.106 A 
ATOM      2  N   UNL     1       7.876  -2.967  24.400  0.00  0.00    -0.327 N 
ATOM      3  C   UNL     1       7.010  -4.046  24.277  0.00  0.00    +0.050 A 
ATOM      4  C   UNL     1       6.319  -4.809  25.233  0.00  0.00    +0.026 A 
ATOM      5  C   UNL     1       5.494  -5.847  24.781  0.00  0.00    +0.002 A 
ATOM      6  C   UNL     1       5.358  -6.126  23.424  0.00  0.00    +0.001 A 
ATOM      7  C   UNL     1       6.057  -5.375  22.480  0.00  0.00    +0.010 A 
ATOM      8  C   UNL     1       6.895  -4.331  22.915  0.00  0.00    +0.001 A 
ATOM      9  C   UNL     1       7.737  -3.430  22.230  0.00  0.00    +0.041 A 
ENDROOT
BRANCH   1  12
ATOM     10  N   UNL     1       8.901  -0.354  22.992  0.00  0.00    -0.307 N 
ATOM     11  H   UNL     1       7.895  -0.262  22.944  0.00  0.00    +0.149 HD
ATOM     12  C   UNL     1       9.398  -1.629  22.905  0.00  0.00    +0.261 C 
ATOM     13  O   UNL     1      10.560  -1.880  22.605  0.00  0.00    -0.269 OA
BRANCH  10  17
ATOM     14  N   UNL     1       8.114   3.203  23.500  0.00  0.00    -0.300 NA
ATOM     15  C   UNL     1       8.717   2.334  24.508  0.00  0.00    +0.086 C 
ATOM     16  C   UNL     1       9.952   1.575  24.022  0.00  0.00    +0.037 C 
ATOM     17  C   UNL     1       9.691   0.829  22.715  0.00  0.00    +0.076 C 
ATOM     18  C   UNL     1       9.007   1.709  21.671  0.00  0.00    +0.037 C 
ATOM     19  C   UNL     1       7.832   2.499  22.250  0.00  0.00    +0.086 C 
BRANCH  14  21
ATOM     20  C   UNL     1       7.845   5.632  22.712  0.00  0.00    +0.024 C 
ATOM     21  C   UNL     1       8.669   4.564  23.436  0.00  0.00    +0.050 C 
ATOM     22  C   UNL     1       9.040   5.077  24.834  0.00  0.00    +0.024 C 
ENDBRANCH  14  21
ENDBRANCH  10  17
ENDBRANCH   1  12
BRANCH   2  23
ATOM     23  C   UNL     1       8.225  -2.294  25.652  0.00  0.00    +0.218 C 
BRANCH  23  24
ATOM     24  C   UNL     1       7.284  -1.147  25.964  0.00  0.00    +0.237 C 
ATOM     25  N   UNL     1       7.354  -0.634  27.257  0.00  0.00    -0.284 N 
ATOM     26  H   UNL     1       8.050  -1.025  27.886  0.00  0.00    +0.155 HD
ATOM     27  O   UNL     1       6.576  -0.694  25.072  0.00  0.00    -0.274 OA
BRANCH  25  28
ATOM     28  C   UNL     1       6.613   0.479  27.735  0.00  0.00    +0.034 A 
ATOM     29  C   UNL     1       5.308   0.281  28.208  0.00  0.00    +0.025 A 
ATOM     30  C   UNL     1       4.588   1.342  28.784  0.00  0.00    +0.022 A 
ATOM     31  C   UNL     1       5.159   2.611  28.863  0.00  0.00    +0.041 A 
ATOM     32 CL   UNL     1       4.307   3.902  29.616  0.00  0.00    -0.084 Cl
ATOM     33  C   UNL     1       6.425   2.834  28.342  0.00  0.00    +0.022 A 
ATOM     34  C   UNL     1       7.138   1.776  27.774  0.00  0.00    +0.025 A 
ENDBRANCH  25  28
ENDBRANCH  23  24
ENDBRANCH   2  23
TORSDOF 6
ENDMDL
MODEL 7
REMARK VINA RESULT:      -6.8      1.947      6.474
REMARK  Name = 
REMARK  8 active torsions:
REMARK  status: ('A' for Active; 'I' for Inactive)
REMARK    1  A    between atoms: C_1  and  C_2
REMARK    2  A    between atoms: C_2  and  C_3
REMARK    3  A    between atoms: C_2  and  N_4
REMARK    4  A    between atoms: C_7  and  N_10
REMARK    5  A    between atoms: C_11  and  C_13
REMARK    6  A    between atoms: N_21  and  C_22
REMARK    7  A    between atoms: C_22  and  C_23
REMARK    8  A    between atoms: N_25  and  C_26
REMARK                            x       y       z     vdW  Elec       q    Type
REMARK                         _______ _______ _______ _____ _____    ______ ____
ROOT
ATOM      1  C   UNL     1       8.744   0.041  22.606  0.00  0.00    +0.106 A 
ATOM      2  N   UNL     1       9.066   0.609  23.826  0.00  0.00    -0.327 N 
ATOM      3  C   UNL     1       8.715   1.953  23.828  0.00  0.00    +0.050 A 
ATOM      4  C   UNL     1       8.751   2.931  24.836  0.00  0.00    +0.026 A 
ATOM      5  C   UNL     1       8.332   4.229  24.515  0.00  0.00    +0.002 A 
ATOM      6  C   UNL     1       7.887   4.550  23.236  0.00  0.00    +0.001 A 
ATOM      7  C   UNL     1       7.839   3.573  22.243  0.00  0.00    +0.010 A 
ATOM      8  C   UNL     1       8.251   2.262  22.547  0.00  0.00    +0.001 A 
ATOM      9  C   UNL     1       8.294   1.071  21.793  0.00  0.00    +0.041 A 
ENDROOT
BRANCH   1  12
ATOM     10  N   UNL     1       7.698  -2.048  22.510  0.00  0.00    -0.307 N 
ATOM     11  H   UNL     1       7.028  -1.595  23.118  0.00  0.00    +0.149 HD
ATOM     12  C   UNL     1       8.860  -1.360  22.270  0.00  0.00    +0.261 C 
ATOM     13  O   UNL     1       9.885  -1.892  21.858  0.00  0.00    -0.269 OA
BRANCH  10  17
ATOM     14  N   UNL     1       5.500  -4.472  24.188  0.00  0.00    -0.300 NA
ATOM     15  C   UNL     1       5.134  -3.703  23.001  0.00  0.00    +0.086 C 
ATOM     16  C   UNL     1       6.147  -3.796  21.860  0.00  0.00    +0.037 C 
ATOM     17  C   UNL     1       7.567  -3.479  22.323  0.00  0.00    +0.076 C 
ATOM     18  C   UNL     1       7.943  -4.230  23.598  0.00  0.00    +0.037 C 
ATOM     19  C   UNL     1       6.848  -4.161  24.664  0.00  0.00    +0.086 C 
BRANCH  14  21
ATOM     20  C   UNL     1       4.939  -6.583  25.538  0.00  0.00    +0.024 C 
ATOM     21  C   UNL     1       5.056  -5.875  24.186  0.00  0.00    +0.050 C 
ATOM     22  C   UNL     1       3.738  -6.037  23.417  0.00  0.00    +0.024 C 
ENDBRANCH  14  21
ENDBRANCH  10  17
ENDBRANCH   1  12
BRANCH   2  23
ATOM     23  C   UNL     1       9.666  -0.116  24.946  0.00  0.00    +0.218 C 
BRANCH  23  24
ATOM     24  C   UNL     1       8.664  -0.388  26.052  0.00  0.00    +0.237 C 
ATOM     25  N   UNL     1       7.322  -0.254  25.706  0.00  0.00    -0.284 N 
ATOM     26  H   UNL     1       7.101  -0.030  24.741  0.00  0.00    +0.155 HD
ATOM     27  O   UNL     1       9.068  -0.768  27.145  0.00  0.00    -0.274 OA
BRANCH  25  28
ATOM     28  C   UNL     1       6.227  -0.528  26.568  0.00  0.00    +0.034 A 
ATOM     29  C   UNL     1       6.069   0.230  27.737  0.00  0.00    +0.025 A 
ATOM     30  C   UNL     1       4.939   0.055  28.555  0.00  0.00    +0.022 A 
ATOM     31  C   UNL     1       3.977  -0.897  28.222  0.00  0.00    +0.041 A 
ATOM     32 CL   UNL     1       2.564  -1.080  29.186  0.00  0.00    -0.084 Cl
ATOM     33  C   UNL     1       4.153  -1.697  27.102  0.00  0.00    +0.022 A 
ATOM     34  C   UNL     1       5.276  -1.517  26.290  0.00  0.00    +0.025 A 
ENDBRANCH  25  28
ENDBRANCH  23  24
ENDBRANCH   2  23
TORSDOF 6
ENDMDL
MODEL 8
REMARK VINA RESULT:      -6.8      2.029      6.905
REMARK  Name = 
REMARK  8 active torsions:
REMARK  status: ('A' for Active; 'I' for Inactive)
REMARK    1  A    between atoms: C_1  and  C_2
REMARK    2  A    between atoms: C_2  and  C_3
REMARK    3  A    between atoms: C_2  and  N_4
REMARK    4  A    between atoms: C_7  and  N_10
REMARK    5  A    between atoms: C_11  and  C_13
REMARK    6  A    between atoms: N_21  and  C_22
REMARK    7  A    between atoms: C_22  and  C_23
REMARK    8  A    between atoms: N_25  and  C_26
REMARK                            x       y       z     vdW  Elec       q    Type
REMARK                         _______ _______ _______ _____ _____    ______ ____
ROOT
ATOM      1  C   UNL     1       9.637   1.802  22.788  0.00  0.00    +0.106 A 
ATOM      2  N   UNL     1       8.644   2.592  23.342  0.00  0.00    -0.327 N 
ATOM      3  C   UNL     1       9.161   3.838  23.672  0.00  0.00    +0.050 A 
ATOM      4  C   UNL     1       8.555   5.003  24.170  0.00  0.00    +0.026 A 
ATOM      5  C   UNL     1       9.367   6.118  24.417  0.00  0.00    +0.002 A 
ATOM      6  C   UNL     1      10.737   6.083  24.177  0.00  0.00    +0.001 A 
ATOM      7  C   UNL     1      11.332   4.929  23.670  0.00  0.00    +0.010 A 
ATOM      8  C   UNL     1      10.532   3.800  23.409  0.00  0.00    +0.001 A 
ATOM      9  C   UNL     1      10.818   2.525  22.881  0.00  0.00    +0.041 A 
ENDROOT
BRANCH   1  12
ATOM     10  N   UNL     1       9.516  -0.500  23.177  0.00  0.00    -0.307 N 
ATOM     11  H   UNL     1       9.938  -0.241  24.060  0.00  0.00    +0.149 HD
ATOM     12  C   UNL     1       9.452   0.484  22.224  0.00  0.00    +0.261 C 
ATOM     13  O   UNL     1       9.298   0.256  21.030  0.00  0.00    -0.269 OA
BRANCH  10  17
ATOM     14  N   UNL     1       7.429  -3.136  24.668  0.00  0.00    -0.300 NA
ATOM     15  C   UNL     1       7.018  -2.281  23.556  0.00  0.00    +0.086 C 
ATOM     16  C   UNL     1       8.015  -2.239  22.398  0.00  0.00    +0.037 C 
ATOM     17  C   UNL     1       9.431  -1.913  22.869  0.00  0.00    +0.076 C 
ATOM     18  C   UNL     1       9.852  -2.758  24.069  0.00  0.00    +0.037 C 
ATOM     19  C   UNL     1       8.773  -2.820  25.151  0.00  0.00    +0.086 C 
BRANCH  14  21
ATOM     20  C   UNL     1       6.953  -5.372  25.837  0.00  0.00    +0.024 C 
ATOM     21  C   UNL     1       7.033  -4.549  24.549  0.00  0.00    +0.050 C 
ATOM     22  C   UNL     1       5.716  -4.692  23.776  0.00  0.00    +0.024 C 
ENDBRANCH  14  21
ENDBRANCH  10  17
ENDBRANCH   1  12
BRANCH   2  23
ATOM     23  C   UNL     1       7.256   2.170  23.528  0.00  0.00    +0.218 C 
BRANCH  23  24
ATOM     24  C   UNL     1       7.055   1.423  24.833  0.00  0.00    +0.237 C 
ATOM     25  N   UNL     1       5.735   1.156  25.187  0.00  0.00    -0.284 N 
ATOM     26  H   UNL     1       5.005   1.434  24.539  0.00  0.00    +0.155 HD
ATOM     27  O   UNL     1       8.037   1.042  25.461  0.00  0.00    -0.274 OA
BRANCH  25  28
ATOM     28  C   UNL     1       5.331   0.413  26.328  0.00  0.00    +0.034 A 
ATOM     29  C   UNL     1       5.237   1.060  27.568  0.00  0.00    +0.025 A 
ATOM     30  C   UNL     1       4.739   0.379  28.693  0.00  0.00    +0.022 A 
ATOM     31  C   UNL     1       4.361  -0.958  28.588  0.00  0.00    +0.041 A 
ATOM     32 CL   UNL     1       3.700  -1.783  29.946  0.00  0.00    -0.084 Cl
ATOM     33  C   UNL     1       4.509  -1.627  27.383  0.00  0.00    +0.022 A 
ATOM     34  C   UNL     1       5.000  -0.945  26.266  0.00  0.00    +0.025 A 
ENDBRANCH  25  28
ENDBRANCH  23  24
ENDBRANCH   2  23
TORSDOF 6
ENDMDL
MODEL 9
REMARK VINA RESULT:      -6.8      1.812      2.346
REMARK  Name = 
REMARK  8 active torsions:
REMARK  status: ('A' for Active; 'I' for Inactive)
REMARK    1  A    between atoms: C_1  and  C_2
REMARK    2  A    between atoms: C_2  and  C_3
REMARK    3  A    between atoms: C_2  and  N_4
REMARK    4  A    between atoms: C_7  and  N_10
REMARK    5  A    between atoms: C_11  and  C_13
REMARK    6  A    between atoms: N_21  and  C_22
REMARK    7  A    between atoms: C_22  and  C_23
REMARK    8  A    between atoms: N_25  and  C_26
REMARK                            x       y       z     vdW  Elec       q    Type
REMARK                         _______ _______ _______ _____ _____    ______ ____
ROOT
ATOM      1  C   UNL     1       6.699  -5.077  24.113  0.00  0.00    +0.106 A 
ATOM      2  N   UNL     1       6.056  -5.344  25.309  0.00  0.00    -0.327 N 
ATOM      3  C   UNL     1       4.831  -5.950  25.061  0.00  0.00    +0.050 A 
ATOM      4  C   UNL     1       3.858  -6.486  25.921  0.00  0.00    +0.026 A 
ATOM      5  C   UNL     1       2.698  -7.029  25.353  0.00  0.00    +0.002 A 
ATOM      6  C   UNL     1       2.506  -7.043  23.974  0.00  0.00    +0.001 A 
ATOM      7  C   UNL     1       3.480  -6.522  23.124  0.00  0.00    +0.010 A 
ATOM      8  C   UNL     1       4.655  -5.978  23.676  0.00  0.00    +0.001 A 
ATOM      9  C   UNL     1       5.813  -5.414  23.100  0.00  0.00    +0.041 A 
ENDROOT
BRANCH   1  12
ATOM     10  N   UNL     1       8.042  -3.241  23.574  0.00  0.00    -0.307 N 
ATOM     11  H   UNL     1       7.180  -2.893  23.175  0.00  0.00    +0.149 HD
ATOM     12  C   UNL     1       8.039  -4.553  23.973  0.00  0.00    +0.261 C 
ATOM     13  O   UNL     1       9.061  -5.207  24.146  0.00  0.00    -0.269 OA
BRANCH  10  17
ATOM     14  N   UNL     1       8.656   0.385  23.566  0.00  0.00    -0.300 NA
ATOM     15  C   UNL     1       8.770  -0.473  24.743  0.00  0.00    +0.086 C 
ATOM     16  C   UNL     1       9.653  -1.704  24.536  0.00  0.00    +0.037 C 
ATOM     17  C   UNL     1       9.253  -2.497  23.294  0.00  0.00    +0.076 C 
ATOM     18  C   UNL     1       9.072  -1.604  22.069  0.00  0.00    +0.037 C 
ATOM     19  C   UNL     1       8.247  -0.352  22.372  0.00  0.00    +0.086 C 
BRANCH  14  21
ATOM     20  C   UNL     1      10.069   1.880  22.029  0.00  0.00    +0.024 C 
ATOM     21  C   UNL     1       9.701   1.414  23.440  0.00  0.00    +0.050 C 
ATOM     22  C   UNL     1       9.380   2.638  24.308  0.00  0.00    +0.024 C 
ENDBRANCH  14  21
ENDBRANCH  10  17
ENDBRANCH   1  12
BRANCH   2  23
ATOM     23  C   UNL     1       6.606  -5.045  26.631  0.00  0.00    +0.218 C 
BRANCH  23  24
ATOM     24  C   UNL     1       5.982  -3.806  27.242  0.00  0.00    +0.237 C 
ATOM     25  N   UNL     1       6.237  -2.605  26.584  0.00  0.00    -0.284 N 
ATOM     26  H   UNL     1       6.779  -2.641  25.726  0.00  0.00    +0.155 HD
ATOM     27  O   UNL     1       5.249  -3.923  28.218  0.00  0.00    -0.274 OA
BRANCH  25  28
ATOM     28  C   UNL     1       5.696  -1.344  26.947  0.00  0.00    +0.034 A 
ATOM     29  C   UNL     1       4.337  -1.089  26.714  0.00  0.00    +0.025 A 
ATOM     30  C   UNL     1       3.749   0.109  27.158  0.00  0.00    +0.022 A 
ATOM     31  C   UNL     1       4.522   1.066  27.812  0.00  0.00    +0.041 A 
ATOM     32 CL   UNL     1       3.799   2.509  28.407  0.00  0.00    -0.084 Cl
ATOM     33  C   UNL     1       5.881   0.852  27.993  0.00  0.00    +0.022 A 
ATOM     34  C   UNL     1       6.461  -0.340  27.553  0.00  0.00    +0.025 A 
ENDBRANCH  25  28
ENDBRANCH  23  24
ENDBRANCH   2  23
TORSDOF 6
ENDMDL
