MODEL 1
REMARK VINA RESULT:      -5.1      0.000      0.000
REMARK  Name = 
REMARK  8 active torsions:
REMARK  status: ('A' for Active; 'I' for Inactive)
REMARK    1  A    between atoms: C_1  and  O_2
REMARK    2  A    between atoms: O_2  and  C_3
REMARK    3  A    between atoms: C_8  and  O_9
REMARK    4  A    between atoms: O_9  and  C_10
REMARK    5  A    between atoms: C_10  and  C_11
REMARK    6  A    between atoms: C_11  and  O_12
REMARK    7  A    between atoms: C_11  and  C_13
REMARK    8  A    between atoms: C_13  and  O_14
REMARK                            x       y       z     vdW  Elec       q    Type
REMARK                         _______ _______ _______ _____ _____    ______ ____
ROOT
ATOM      1  C   UNL     1       9.379  -0.958  24.787  0.00  0.00    +0.161 A 
ATOM      2  C   UNL     1       9.757  -1.971  23.891  0.00  0.00    +0.162 A 
ATOM      3  C   UNL     1      10.063  -1.627  22.564  0.00  0.00    +0.049 A 
ATOM      4  C   UNL     1       9.972  -0.308  22.116  0.00  0.00    +0.004 A 
ATOM      5  C   UNL     1       9.561   0.687  22.995  0.00  0.00    +0.004 A 
ATOM      6  C   UNL     1       9.258   0.362  24.317  0.00  0.00    +0.049 A 
ENDROOT
BRANCH   1   8
ATOM      7  C   UNL     1       7.750  -1.096  26.515  0.00  0.00    +0.277 C 
ATOM      8  O   UNL     1       9.094  -1.287  26.087  0.00  0.00    -0.491 OA
ENDBRANCH   1   8
BRANCH   2   9
ATOM      9  O   UNL     1       9.901  -3.316  24.119  0.00  0.00    -0.486 OA
BRANCH   9  10
ATOM     10  C   UNL     1       8.731  -4.118  24.232  0.00  0.00    +0.262 C 
BRANCH  10  11
ATOM     11  C   UNL     1       8.942  -5.198  25.298  0.00  0.00    +0.177 C 
BRANCH  11  12
ATOM     12  O   UNL     1      10.337  -5.517  25.390  0.00  0.00    -0.386 OA
ATOM     13  H   UNL     1      10.838  -4.727  25.117  0.00  0.00    +0.210 HD
ENDBRANCH  11  12
BRANCH  11  14
ATOM     14  C   UNL     1       8.407  -4.761  26.672  0.00  0.00    +0.190 C 
BRANCH  14  15
ATOM     15  O   UNL     1       7.956  -5.880  27.437  0.00  0.00    -0.392 OA
ATOM     16  H   UNL     1       6.988  -5.933  27.344  0.00  0.00    +0.210 HD
ENDBRANCH  14  15
ENDBRANCH  11  14
ENDBRANCH  10  11
ENDBRANCH   9  10
ENDBRANCH   2   9
TORSDOF 7
ENDMDL
MODEL 2
REMARK VINA RESULT:      -4.9      2.213      5.412
REMARK  Name = 
REMARK  8 active torsions:
REMARK  status: ('A' for Active; 'I' for Inactive)
REMARK    1  A    between atoms: C_1  and  O_2
REMARK    2  A    between atoms: O_2  and  C_3
REMARK    3  A    between atoms: C_8  and  O_9
REMARK    4  A    between atoms: O_9  and  C_10
REMARK    5  A    between atoms: C_10  and  C_11
REMARK    6  A    between atoms: C_11  and  O_12
REMARK    7  A    between atoms: C_11  and  C_13
REMARK    8  A    between atoms: C_13  and  O_14
REMARK                            x       y       z     vdW  Elec       q    Type
REMARK                         _______ _______ _______ _____ _____    ______ ____
ROOT
ATOM      1  C   UNL     1       7.750  -4.120  23.593  0.00  0.00    +0.161 A 
ATOM      2  C   UNL     1       8.923  -3.764  24.279  0.00  0.00    +0.162 A 
ATOM      3  C   UNL     1       9.108  -4.224  25.594  0.00  0.00    +0.049 A 
ATOM      4  C   UNL     1       8.142  -5.001  26.235  0.00  0.00    +0.004 A 
ATOM      5  C   UNL     1       6.965  -5.319  25.568  0.00  0.00    +0.004 A 
ATOM      6  C   UNL     1       6.768  -4.873  24.260  0.00  0.00    +0.049 A 
ENDROOT
BRANCH   1   8
ATOM      7  C   UNL     1       6.236  -3.386  21.911  0.00  0.00    +0.277 C 
ATOM      8  O   UNL     1       7.571  -3.686  22.305  0.00  0.00    -0.491 OA
ENDBRANCH   1   8
BRANCH   2   9
ATOM      9  O   UNL     1       9.985  -3.013  23.843  0.00  0.00    -0.486 OA
BRANCH   9  10
ATOM     10  C   UNL     1       9.879  -1.594  23.884  0.00  0.00    +0.262 C 
BRANCH  10  11
ATOM     11  C   UNL     1      10.330  -1.001  22.546  0.00  0.00    +0.177 C 
BRANCH  11  12
ATOM     12  O   UNL     1       9.736  -1.738  21.468  0.00  0.00    -0.386 OA
ATOM     13  H   UNL     1       9.396  -1.093  20.823  0.00  0.00    +0.210 HD
ENDBRANCH  11  12
BRANCH  11  14
ATOM     14  C   UNL     1       9.972   0.490  22.428  0.00  0.00    +0.190 C 
BRANCH  14  15
ATOM     15  O   UNL     1       9.341   0.779  21.179  0.00  0.00    -0.392 OA
ATOM     16  H   UNL     1       9.863   0.352  20.477  0.00  0.00    +0.210 HD
ENDBRANCH  14  15
ENDBRANCH  11  14
ENDBRANCH  10  11
ENDBRANCH   9  10
ENDBRANCH   2   9
TORSDOF 7
ENDMDL
MODEL 3
REMARK VINA RESULT:      -4.9      1.351      1.640
REMARK  Name = 
REMARK  8 active torsions:
REMARK  status: ('A' for Active; 'I' for Inactive)
REMARK    1  A    between atoms: C_1  and  O_2
REMARK    2  A    between atoms: O_2  and  C_3
REMARK    3  A    between atoms: C_8  and  O_9
REMARK    4  A    between atoms: O_9  and  C_10
REMARK    5  A    between atoms: C_10  and  C_11
REMARK    6  A    between atoms: C_11  and  O_12
REMARK    7  A    between atoms: C_11  and  C_13
REMARK    8  A    between atoms: C_13  and  O_14
REMARK                            x       y       z     vdW  Elec       q    Type
REMARK                         _______ _______ _______ _____ _____    ______ ____
ROOT
ATOM      1  C   UNL     1       9.787  -0.108  24.283  0.00  0.00    +0.161 A 
ATOM      2  C   UNL     1       9.648  -1.155  23.356  0.00  0.00    +0.162 A 
ATOM      3  C   UNL     1       9.618  -0.850  21.985  0.00  0.00    +0.049 A 
ATOM      4  C   UNL     1       9.696   0.468  21.532  0.00  0.00    +0.004 A 
ATOM      5  C   UNL     1       9.796   1.504  22.452  0.00  0.00    +0.004 A 
ATOM      6  C   UNL     1       9.831   1.217  23.817  0.00  0.00    +0.049 A 
ENDROOT
BRANCH   1   8
ATOM      7  C   UNL     1       8.582  -0.508  26.294  0.00  0.00    +0.277 C 
ATOM      8  O   UNL     1       9.832  -0.401  25.621  0.00  0.00    -0.491 OA
ENDBRANCH   1   8
BRANCH   2   9
ATOM      9  O   UNL     1       9.548  -2.504  23.586  0.00  0.00    -0.486 OA
BRANCH   9  10
ATOM     10  C   UNL     1       8.291  -3.139  23.380  0.00  0.00    +0.262 C 
BRANCH  10  11
ATOM     11  C   UNL     1       8.194  -4.393  24.256  0.00  0.00    +0.177 C 
BRANCH  11  12
ATOM     12  O   UNL     1       8.323  -5.563  23.436  0.00  0.00    -0.386 OA
ATOM     13  H   UNL     1       7.526  -6.105  23.571  0.00  0.00    +0.210 HD
ENDBRANCH  11  12
BRANCH  11  14
ATOM     14  C   UNL     1       9.258  -4.403  25.365  0.00  0.00    +0.190 C 
BRANCH  14  15
ATOM     15  O   UNL     1      10.424  -5.125  24.964  0.00  0.00    -0.392 OA
ATOM     16  H   UNL     1      10.132  -5.911  24.470  0.00  0.00    +0.210 HD
ENDBRANCH  14  15
ENDBRANCH  11  14
ENDBRANCH  10  11
ENDBRANCH   9  10
ENDBRANCH   2   9
TORSDOF 7
ENDMDL
MODEL 4
REMARK VINA RESULT:      -4.9      2.630      5.447
REMARK  Name = 
REMARK  8 active torsions:
REMARK  status: ('A' for Active; 'I' for Inactive)
REMARK    1  A    between atoms: C_1  and  O_2
REMARK    2  A    between atoms: O_2  and  C_3
REMARK    3  A    between atoms: C_8  and  O_9
REMARK    4  A    between atoms: O_9  and  C_10
REMARK    5  A    between atoms: C_10  and  C_11
REMARK    6  A    between atoms: C_11  and  O_12
REMARK    7  A    between atoms: C_11  and  C_13
REMARK    8  A    between atoms: C_13  and  O_14
REMARK                            x       y       z     vdW  Elec       q    Type
REMARK                         _______ _______ _______ _____ _____    ______ ____
ROOT
ATOM      1  C   UNL     1       7.871  -4.570  23.553  0.00  0.00    +0.161 A 
ATOM      2  C   UNL     1       8.010  -3.208  23.240  0.00  0.00    +0.162 A 
ATOM      3  C   UNL     1       6.924  -2.528  22.664  0.00  0.00    +0.049 A 
ATOM      4  C   UNL     1       5.726  -3.184  22.375  0.00  0.00    +0.004 A 
ATOM      5  C   UNL     1       5.605  -4.541  22.651  0.00  0.00    +0.004 A 
ATOM      6  C   UNL     1       6.673  -5.229  23.227  0.00  0.00    +0.049 A 
ENDROOT
BRANCH   1   8
ATOM      7  C   UNL     1       9.006  -5.192  25.549  0.00  0.00    +0.277 C 
ATOM      8  O   UNL     1       8.923  -5.234  24.129  0.00  0.00    -0.491 OA
ENDBRANCH   1   8
BRANCH   2   9
ATOM      9  O   UNL     1       9.089  -2.383  23.432  0.00  0.00    -0.486 OA
BRANCH   9  10
ATOM     10  C   UNL     1       8.897  -0.976  23.338  0.00  0.00    +0.262 C 
BRANCH  10  11
ATOM     11  C   UNL     1       9.853  -0.390  22.294  0.00  0.00    +0.177 C 
BRANCH  11  12
ATOM     12  O   UNL     1      10.323  -1.435  21.432  0.00  0.00    -0.386 OA
ATOM     13  H   UNL     1      11.280  -1.305  21.307  0.00  0.00    +0.210 HD
ENDBRANCH  11  12
BRANCH  11  14
ATOM     14  C   UNL     1       9.187   0.720  21.465  0.00  0.00    +0.190 C 
BRANCH  14  15
ATOM     15  O   UNL     1       9.916   1.946  21.550  0.00  0.00    -0.392 OA
ATOM     16  H   UNL     1       9.956   2.330  20.656  0.00  0.00    +0.210 HD
ENDBRANCH  14  15
ENDBRANCH  11  14
ENDBRANCH  10  11
ENDBRANCH   9  10
ENDBRANCH   2   9
TORSDOF 7
ENDMDL
MODEL 5
REMARK VINA RESULT:      -4.7      2.411      5.164
REMARK  Name = 
REMARK  8 active torsions:
REMARK  status: ('A' for Active; 'I' for Inactive)
REMARK    1  A    between atoms: C_1  and  O_2
REMARK    2  A    between atoms: O_2  and  C_3
REMARK    3  A    between atoms: C_8  and  O_9
REMARK    4  A    between atoms: O_9  and  C_10
REMARK    5  A    between atoms: C_10  and  C_11
REMARK    6  A    between atoms: C_11  and  O_12
REMARK    7  A    between atoms: C_11  and  C_13
REMARK    8  A    between atoms: C_13  and  O_14
REMARK                            x       y       z     vdW  Elec       q    Type
REMARK                         _______ _______ _______ _____ _____    ______ ____
ROOT
ATOM      1  C   UNL     1       7.786  -3.944  23.520  0.00  0.00    +0.161 A 
ATOM      2  C   UNL     1       7.111  -2.989  22.742  0.00  0.00    +0.162 A 
ATOM      3  C   UNL     1       5.765  -3.212  22.408  0.00  0.00    +0.049 A 
ATOM      4  C   UNL     1       5.099  -4.371  22.810  0.00  0.00    +0.004 A 
ATOM      5  C   UNL     1       5.779  -5.332  23.548  0.00  0.00    +0.004 A 
ATOM      6  C   UNL     1       7.116  -5.123  23.891  0.00  0.00    +0.049 A 
ENDROOT
BRANCH   1   8
ATOM      7  C   UNL     1       9.574  -4.391  25.024  0.00  0.00    +0.277 C 
ATOM      8  O   UNL     1       9.095  -3.725  23.861  0.00  0.00    -0.491 OA
ENDBRANCH   1   8
BRANCH   2   9
ATOM      9  O   UNL     1       7.575  -1.799  22.242  0.00  0.00    -0.486 OA
BRANCH   9  10
ATOM     10  C   UNL     1       7.632  -0.671  23.109  0.00  0.00    +0.262 C 
BRANCH  10  11
ATOM     11  C   UNL     1       9.079  -0.186  23.235  0.00  0.00    +0.177 C 
BRANCH  11  12
ATOM     12  O   UNL     1       9.723  -0.870  24.320  0.00  0.00    -0.386 OA
ATOM     13  H   UNL     1       9.319  -1.753  24.390  0.00  0.00    +0.210 HD
ENDBRANCH  11  12
BRANCH  11  14
ATOM     14  C   UNL     1       9.871  -0.395  21.934  0.00  0.00    +0.190 C 
BRANCH  14  15
ATOM     15  O   UNL     1      10.353  -1.735  21.824  0.00  0.00    -0.392 OA
ATOM     16  H   UNL     1      10.964  -1.893  22.566  0.00  0.00    +0.210 HD
ENDBRANCH  14  15
ENDBRANCH  11  14
ENDBRANCH  10  11
ENDBRANCH   9  10
ENDBRANCH   2   9
TORSDOF 7
ENDMDL
MODEL 6
REMARK VINA RESULT:      -4.6      3.611      5.101
REMARK  Name = 
REMARK  8 active torsions:
REMARK  status: ('A' for Active; 'I' for Inactive)
REMARK    1  A    between atoms: C_1  and  O_2
REMARK    2  A    between atoms: O_2  and  C_3
REMARK    3  A    between atoms: C_8  and  O_9
REMARK    4  A    between atoms: O_9  and  C_10
REMARK    5  A    between atoms: C_10  and  C_11
REMARK    6  A    between atoms: C_11  and  O_12
REMARK    7  A    between atoms: C_11  and  C_13
REMARK    8  A    between atoms: C_13  and  O_14
REMARK                            x       y       z     vdW  Elec       q    Type
REMARK                         _______ _______ _______ _____ _____    ______ ____
ROOT
ATOM      1  C   UNL     1       7.443  -4.783  23.764  0.00  0.00    +0.161 A 
ATOM      2  C   UNL     1       6.310  -5.335  24.385  0.00  0.00    +0.162 A 
ATOM      3  C   UNL     1       5.333  -5.957  23.589  0.00  0.00    +0.049 A 
ATOM      4  C   UNL     1       5.456  -6.013  22.200  0.00  0.00    +0.004 A 
ATOM      5  C   UNL     1       6.558  -5.434  21.585  0.00  0.00    +0.004 A 
ATOM      6  C   UNL     1       7.539  -4.815  22.362  0.00  0.00    +0.049 A 
ENDROOT
BRANCH   1   8
ATOM      7  C   UNL     1       9.397  -5.043  25.095  0.00  0.00    +0.277 C 
ATOM      8  O   UNL     1       8.405  -4.188  24.537  0.00  0.00    -0.491 OA
ENDBRANCH   1   8
BRANCH   2   9
ATOM      9  O   UNL     1       5.993  -5.382  25.719  0.00  0.00    -0.486 OA
BRANCH   9  10
ATOM     10  C   UNL     1       5.192  -6.459  26.192  0.00  0.00    +0.262 C 
BRANCH  10  11
ATOM     11  C   UNL     1       5.160  -6.449  27.723  0.00  0.00    +0.177 C 
BRANCH  11  12
ATOM     12  O   UNL     1       5.286  -7.791  28.215  0.00  0.00    -0.386 OA
ATOM     13  H   UNL     1       4.390  -8.117  28.414  0.00  0.00    +0.210 HD
ENDBRANCH  11  12
BRANCH  11  14
ATOM     14  C   UNL     1       6.266  -5.562  28.316  0.00  0.00    +0.190 C 
BRANCH  14  15
ATOM     15  O   UNL     1       7.564  -6.006  27.915  0.00  0.00    -0.392 OA
ATOM     16  H   UNL     1       7.446  -6.708  27.251  0.00  0.00    +0.210 HD
ENDBRANCH  14  15
ENDBRANCH  11  14
ENDBRANCH  10  11
ENDBRANCH   9  10
ENDBRANCH   2   9
TORSDOF 7
ENDMDL
MODEL 7
REMARK VINA RESULT:      -4.6      1.344      2.632
REMARK  Name = 
REMARK  8 active torsions:
REMARK  status: ('A' for Active; 'I' for Inactive)
REMARK    1  A    between atoms: C_1  and  O_2
REMARK    2  A    between atoms: O_2  and  C_3
REMARK    3  A    between atoms: C_8  and  O_9
REMARK    4  A    between atoms: O_9  and  C_10
REMARK    5  A    between atoms: C_10  and  C_11
REMARK    6  A    between atoms: C_11  and  O_12
REMARK    7  A    between atoms: C_11  and  C_13
REMARK    8  A    between atoms: C_13  and  O_14
REMARK                            x       y       z     vdW  Elec       q    Type
REMARK                         _______ _______ _______ _____ _____    ______ ____
ROOT
ATOM      1  C   UNL     1       9.033  -2.030  22.833  0.00  0.00    +0.161 A 
ATOM      2  C   UNL     1       9.552  -1.626  24.074  0.00  0.00    +0.162 A 
ATOM      3  C   UNL     1      10.127  -0.350  24.188  0.00  0.00    +0.049 A 
ATOM      4  C   UNL     1      10.216   0.508  23.090  0.00  0.00    +0.004 A 
ATOM      5  C   UNL     1       9.736   0.091  21.854  0.00  0.00    +0.004 A 
ATOM      6  C   UNL     1       9.159  -1.173  21.726  0.00  0.00    +0.049 A 
ENDROOT
BRANCH   1   8
ATOM      7  C   UNL     1       7.097  -3.307  22.303  0.00  0.00    +0.277 C 
ATOM      8  O   UNL     1       8.458  -3.270  22.720  0.00  0.00    -0.491 OA
ENDBRANCH   1   8
BRANCH   2   9
ATOM      9  O   UNL     1       9.573  -2.308  25.265  0.00  0.00    -0.486 OA
BRANCH   9  10
ATOM     10  C   UNL     1       8.349  -2.823  25.777  0.00  0.00    +0.262 C 
BRANCH  10  11
ATOM     11  C   UNL     1       8.603  -4.159  26.482  0.00  0.00    +0.177 C 
BRANCH  11  12
ATOM     12  O   UNL     1       7.483  -4.481  27.319  0.00  0.00    -0.386 OA
ATOM     13  H   UNL     1       7.725  -5.264  27.845  0.00  0.00    +0.210 HD
ENDBRANCH  11  12
BRANCH  11  14
ATOM     14  C   UNL     1       8.860  -5.297  25.482  0.00  0.00    +0.190 C 
BRANCH  14  15
ATOM     15  O   UNL     1      10.093  -5.112  24.785  0.00  0.00    -0.392 OA
ATOM     16  H   UNL     1      10.704  -4.643  25.380  0.00  0.00    +0.210 HD
ENDBRANCH  14  15
ENDBRANCH  11  14
ENDBRANCH  10  11
ENDBRANCH   9  10
ENDBRANCH   2   9
TORSDOF 7
ENDMDL
MODEL 8
REMARK VINA RESULT:      -4.5      4.062      5.879
REMARK  Name = 
REMARK  8 active torsions:
REMARK  status: ('A' for Active; 'I' for Inactive)
REMARK    1  A    between atoms: C_1  and  O_2
REMARK    2  A    between atoms: O_2  and  C_3
REMARK    3  A    between atoms: C_8  and  O_9
REMARK    4  A    between atoms: O_9  and  C_10
REMARK    5  A    between atoms: C_10  and  C_11
REMARK    6  A    between atoms: C_11  and  O_12
REMARK    7  A    between atoms: C_11  and  C_13
REMARK    8  A    between atoms: C_13  and  O_14
REMARK                            x       y       z     vdW  Elec       q    Type
REMARK                         _______ _______ _______ _____ _____    ______ ____
ROOT
ATOM      1  C   UNL     1       7.094  -5.163  24.358  0.00  0.00    +0.161 A 
ATOM      2  C   UNL     1       6.529  -5.197  25.643  0.00  0.00    +0.162 A 
ATOM      3  C   UNL     1       7.364  -5.015  26.758  0.00  0.00    +0.049 A 
ATOM      4  C   UNL     1       8.740  -4.828  26.613  0.00  0.00    +0.004 A 
ATOM      5  C   UNL     1       9.302  -4.833  25.343  0.00  0.00    +0.004 A 
ATOM      6  C   UNL     1       8.485  -5.009  24.225  0.00  0.00    +0.049 A 
ENDROOT
BRANCH   1   8
ATOM      7  C   UNL     1       6.893  -5.836  22.085  0.00  0.00    +0.277 C 
ATOM      8  O   UNL     1       6.282  -5.326  23.265  0.00  0.00    -0.491 OA
ENDBRANCH   1   8
BRANCH   2   9
ATOM      9  O   UNL     1       5.218  -5.372  26.006  0.00  0.00    -0.486 OA
BRANCH   9  10
ATOM     10  C   UNL     1       4.705  -6.697  26.092  0.00  0.00    +0.262 C 
BRANCH  10  11
ATOM     11  C   UNL     1       3.709  -6.943  24.954  0.00  0.00    +0.177 C 
BRANCH  11  12
ATOM     12  O   UNL     1       4.372  -7.608  23.870  0.00  0.00    -0.386 OA
ATOM     13  H   UNL     1       4.333  -8.565  24.044  0.00  0.00    +0.210 HD
ENDBRANCH  11  12
BRANCH  11  14
ATOM     14  C   UNL     1       2.498  -7.767  25.419  0.00  0.00    +0.190 C 
BRANCH  14  15
ATOM     15  O   UNL     1       2.698  -9.164  25.195  0.00  0.00    -0.392 OA
ATOM     16  H   UNL     1       2.711  -9.312  24.233  0.00  0.00    +0.210 HD
ENDBRANCH  14  15
ENDBRANCH  11  14
ENDBRANCH  10  11
ENDBRANCH   9  10
ENDBRANCH   2   9
TORSDOF 7
ENDMDL
MODEL 9
REMARK VINA RESULT:      -4.5      3.158      3.868
REMARK  Name = 
REMARK  8 active torsions:
REMARK  status: ('A' for Active; 'I' for Inactive)
REMARK    1  A    between atoms: C_1  and  O_2
REMARK    2  A    between atoms: O_2  and  C_3
REMARK    3  A    between atoms: C_8  and  O_9
REMARK    4  A    between atoms: O_9  and  C_10
REMARK    5  A    between atoms: C_10  and  C_11
REMARK    6  A    between atoms: C_11  and  O_12
REMARK    7  A    between atoms: C_11  and  C_13
REMARK    8  A    between atoms: C_13  and  O_14
REMARK                            x       y       z     vdW  Elec       q    Type
REMARK                         _______ _______ _______ _____ _____    ______ ____
ROOT
ATOM      1  C   UNL     1       8.702  -3.404  23.715  0.00  0.00    +0.161 A 
ATOM      2  C   UNL     1       7.558  -2.792  23.179  0.00  0.00    +0.162 A 
ATOM      3  C   UNL     1       7.592  -1.416  22.895  0.00  0.00    +0.049 A 
ATOM      4  C   UNL     1       8.727  -0.648  23.160  0.00  0.00    +0.004 A 
ATOM      5  C   UNL     1       9.845  -1.249  23.725  0.00  0.00    +0.004 A 
ATOM      6  C   UNL     1       9.827  -2.615  24.009  0.00  0.00    +0.049 A 
ENDROOT
BRANCH   1   8
ATOM      7  C   UNL     1       8.321  -5.134  25.303  0.00  0.00    +0.277 C 
ATOM      8  O   UNL     1       8.679  -4.749  23.980  0.00  0.00    -0.491 OA
ENDBRANCH   1   8
BRANCH   2   9
ATOM      9  O   UNL     1       6.349  -3.354  22.853  0.00  0.00    -0.486 OA
BRANCH   9  10
ATOM     10  C   UNL     1       6.191  -3.929  21.561  0.00  0.00    +0.262 C 
BRANCH  10  11
ATOM     11  C   UNL     1       5.974  -5.440  21.687  0.00  0.00    +0.177 C 
BRANCH  11  12
ATOM     12  O   UNL     1       7.236  -6.092  21.886  0.00  0.00    -0.386 OA
ATOM     13  H   UNL     1       7.679  -6.144  21.020  0.00  0.00    +0.210 HD
ENDBRANCH  11  12
BRANCH  11  14
ATOM     14  C   UNL     1       5.011  -5.788  22.834  0.00  0.00    +0.190 C 
BRANCH  14  15
ATOM     15  O   UNL     1       3.846  -4.962  22.809  0.00  0.00    -0.392 OA
ATOM     16  H   UNL     1       4.058  -4.135  23.279  0.00  0.00    +0.210 HD
ENDBRANCH  14  15
ENDBRANCH  11  14
ENDBRANCH  10  11
ENDBRANCH   9  10
ENDBRANCH   2   9
TORSDOF 7
ENDMDL
