MODEL 1
REMARK VINA RESULT:      -7.0      0.000      0.000
REMARK  Name = 
REMARK  1 active torsions:
REMARK  status: ('A' for Active; 'I' for Inactive)
REMARK    1  A    between atoms: C_3  and  C_4
REMARK                            x       y       z     vdW  Elec       q    Type
REMARK                         _______ _______ _______ _____ _____    ______ ____
ROOT
ATOM      1  N   UNL     1       9.312  -5.428  25.647  0.00  0.00    -0.276 N 
ATOM      2  H   UNL     1       9.758  -6.338  25.679  0.00  0.00    +0.189 HD
ATOM      3  C   UNL     1       8.191  -5.035  26.325  0.00  0.00    +0.066 A 
ATOM      4  C   UNL     1       7.358  -5.719  27.218  0.00  0.00    +0.028 A 
ATOM      5  C   UNL     1       6.272  -5.014  27.744  0.00  0.00    +0.002 A 
ATOM      6  C   UNL     1       6.034  -3.686  27.390  0.00  0.00    +0.001 A 
ATOM      7  C   UNL     1       6.881  -3.021  26.493  0.00  0.00    +0.012 A 
ATOM      8  C   UNL     1       7.982  -3.711  25.951  0.00  0.00    +0.030 A 
ATOM      9  C   UNL     1       9.040  -3.424  25.047  0.00  0.00    +0.135 A 
ATOM     10  N   UNL     1       9.854  -4.478  24.864  0.00  0.00    -0.170 NA
ENDROOT
BRANCH   9  11
ATOM     11  C   UNL     1       9.291  -2.132  24.342  0.00  0.00    +0.160 A 
ATOM     12  N   UNL     1       9.653  -0.991  25.012  0.00  0.00    -0.337 N 
ATOM     13  H   UNL     1       9.773  -0.941  26.013  0.00  0.00    +0.167 HD
ATOM     14  C   UNL     1       9.812   0.018  24.100  0.00  0.00    +0.067 A 
ATOM     15  C   UNL     1       9.528  -0.585  22.880  0.00  0.00    +0.090 A 
ATOM     16  C   UNL     1       9.598   0.183  21.707  0.00  0.00    +0.030 A 
ATOM     17  C   UNL     1       9.953   1.535  21.807  0.00  0.00    +0.002 A 
ATOM     18  C   UNL     1      10.232   2.111  23.050  0.00  0.00    +0.002 A 
ATOM     19  C   UNL     1      10.167   1.362  24.231  0.00  0.00    +0.028 A 
ATOM     20  N   UNL     1       9.208  -1.912  23.044  0.00  0.00    -0.226 NA
ENDBRANCH   9  11
TORSDOF 1
ENDMDL
MODEL 2
REMARK VINA RESULT:      -6.9      2.482      6.267
REMARK  Name = 
REMARK  1 active torsions:
REMARK  status: ('A' for Active; 'I' for Inactive)
REMARK    1  A    between atoms: C_3  and  C_4
REMARK                            x       y       z     vdW  Elec       q    Type
REMARK                         _______ _______ _______ _____ _____    ______ ____
ROOT
ATOM      1  N   UNL     1       9.814  -0.004  25.663  0.00  0.00    -0.276 N 
ATOM      2  H   UNL     1      10.162   0.315  26.560  0.00  0.00    +0.189 HD
ATOM      3  C   UNL     1       9.921   0.639  24.460  0.00  0.00    +0.066 A 
ATOM      4  C   UNL     1      10.505   1.861  24.110  0.00  0.00    +0.028 A 
ATOM      5  C   UNL     1      10.440   2.237  22.765  0.00  0.00    +0.002 A 
ATOM      6  C   UNL     1       9.818   1.422  21.818  0.00  0.00    +0.001 A 
ATOM      7  C   UNL     1       9.239   0.202  22.192  0.00  0.00    +0.012 A 
ATOM      8  C   UNL     1       9.293  -0.196  23.541  0.00  0.00    +0.030 A 
ATOM      9  C   UNL     1       8.851  -1.306  24.310  0.00  0.00    +0.135 A 
ATOM     10  N   UNL     1       9.172  -1.186  25.610  0.00  0.00    -0.170 NA
ENDROOT
BRANCH   9  11
ATOM     11  C   UNL     1       8.112  -2.504  23.814  0.00  0.00    +0.160 A 
ATOM     12  N   UNL     1       6.741  -2.556  23.779  0.00  0.00    -0.337 N 
ATOM     13  H   UNL     1       6.143  -1.802  24.082  0.00  0.00    +0.167 HD
ATOM     14  C   UNL     1       6.363  -3.773  23.277  0.00  0.00    +0.067 A 
ATOM     15  C   UNL     1       7.568  -4.420  23.025  0.00  0.00    +0.090 A 
ATOM     16  C   UNL     1       7.546  -5.719  22.493  0.00  0.00    +0.030 A 
ATOM     17  C   UNL     1       6.307  -6.319  22.234  0.00  0.00    +0.002 A 
ATOM     18  C   UNL     1       5.114  -5.642  22.499  0.00  0.00    +0.002 A 
ATOM     19  C   UNL     1       5.115  -4.346  23.030  0.00  0.00    +0.028 A 
ATOM     20  N   UNL     1       8.639  -3.625  23.361  0.00  0.00    -0.226 NA
ENDBRANCH   9  11
TORSDOF 1
ENDMDL
MODEL 3
REMARK VINA RESULT:      -6.8      2.547      6.328
REMARK  Name = 
REMARK  1 active torsions:
REMARK  status: ('A' for Active; 'I' for Inactive)
REMARK    1  A    between atoms: C_3  and  C_4
REMARK                            x       y       z     vdW  Elec       q    Type
REMARK                         _______ _______ _______ _____ _____    ______ ____
ROOT
ATOM      1  N   UNL     1       9.754   0.030  25.655  0.00  0.00    -0.276 N 
ATOM      2  H   UNL     1      10.164   0.318  26.536  0.00  0.00    +0.189 HD
ATOM      3  C   UNL     1       9.852   0.672  24.450  0.00  0.00    +0.066 A 
ATOM      4  C   UNL     1      10.507   1.852  24.078  0.00  0.00    +0.028 A 
ATOM      5  C   UNL     1      10.408   2.240  22.738  0.00  0.00    +0.002 A 
ATOM      6  C   UNL     1       9.687   1.478  21.818  0.00  0.00    +0.001 A 
ATOM      7  C   UNL     1       9.039   0.300  22.214  0.00  0.00    +0.012 A 
ATOM      8  C   UNL     1       9.125  -0.110  23.558  0.00  0.00    +0.030 A 
ATOM      9  C   UNL     1       8.639  -1.189  24.343  0.00  0.00    +0.135 A 
ATOM     10  N   UNL     1       9.026  -1.101  25.627  0.00  0.00    -0.170 NA
ENDROOT
BRANCH   9  11
ATOM     11  C   UNL     1       7.793  -2.328  23.876  0.00  0.00    +0.160 A 
ATOM     12  N   UNL     1       8.280  -3.310  23.052  0.00  0.00    -0.337 N 
ATOM     13  H   UNL     1       9.227  -3.336  22.705  0.00  0.00    +0.167 HD
ATOM     14  C   UNL     1       7.275  -4.208  22.803  0.00  0.00    +0.067 A 
ATOM     15  C   UNL     1       6.192  -3.705  23.516  0.00  0.00    +0.090 A 
ATOM     16  C   UNL     1       4.971  -4.396  23.480  0.00  0.00    +0.030 A 
ATOM     17  C   UNL     1       4.886  -5.573  22.725  0.00  0.00    +0.002 A 
ATOM     18  C   UNL     1       5.994  -6.053  22.019  0.00  0.00    +0.002 A 
ATOM     19  C   UNL     1       7.220  -5.377  22.042  0.00  0.00    +0.028 A 
ATOM     20  N   UNL     1       6.527  -2.544  24.173  0.00  0.00    -0.226 NA
ENDBRANCH   9  11
TORSDOF 1
ENDMDL
MODEL 4
REMARK VINA RESULT:      -6.8      1.353      6.425
REMARK  Name = 
REMARK  1 active torsions:
REMARK  status: ('A' for Active; 'I' for Inactive)
REMARK    1  A    between atoms: C_3  and  C_4
REMARK                            x       y       z     vdW  Elec       q    Type
REMARK                         _______ _______ _______ _____ _____    ______ ____
ROOT
ATOM      1  N   UNL     1       9.766  -0.587  21.296  0.00  0.00    -0.276 N 
ATOM      2  H   UNL     1      10.078  -0.563  20.331  0.00  0.00    +0.189 HD
ATOM      3  C   UNL     1       9.736   0.458  22.179  0.00  0.00    +0.066 A 
ATOM      4  C   UNL     1      10.101   1.801  22.040  0.00  0.00    +0.028 A 
ATOM      5  C   UNL     1       9.943   2.624  23.160  0.00  0.00    +0.002 A 
ATOM      6  C   UNL     1       9.441   2.120  24.360  0.00  0.00    +0.001 A 
ATOM      7  C   UNL     1       9.082   0.770  24.476  0.00  0.00    +0.012 A 
ATOM      8  C   UNL     1       9.232  -0.077  23.361  0.00  0.00    +0.030 A 
ATOM      9  C   UNL     1       9.000  -1.446  23.064  0.00  0.00    +0.135 A 
ATOM     10  N   UNL     1       9.327  -1.756  21.798  0.00  0.00    -0.170 NA
ENDROOT
BRANCH   9  11
ATOM     11  C   UNL     1       8.459  -2.486  23.989  0.00  0.00    +0.160 A 
ATOM     12  N   UNL     1       7.249  -3.095  23.777  0.00  0.00    -0.337 N 
ATOM     13  H   UNL     1       6.645  -2.889  22.995  0.00  0.00    +0.167 HD
ATOM     14  C   UNL     1       7.030  -3.994  24.787  0.00  0.00    +0.067 A 
ATOM     15  C   UNL     1       8.161  -3.880  25.588  0.00  0.00    +0.090 A 
ATOM     16  C   UNL     1       8.266  -4.679  26.737  0.00  0.00    +0.030 A 
ATOM     17  C   UNL     1       7.226  -5.567  27.037  0.00  0.00    +0.002 A 
ATOM     18  C   UNL     1       6.102  -5.659  26.211  0.00  0.00    +0.002 A 
ATOM     19  C   UNL     1       5.978  -4.870  25.061  0.00  0.00    +0.028 A 
ATOM     20  N   UNL     1       9.034  -2.944  25.084  0.00  0.00    -0.226 NA
ENDBRANCH   9  11
TORSDOF 1
ENDMDL
MODEL 5
REMARK VINA RESULT:      -6.8      2.340      6.350
REMARK  Name = 
REMARK  1 active torsions:
REMARK  status: ('A' for Active; 'I' for Inactive)
REMARK    1  A    between atoms: C_3  and  C_4
REMARK                            x       y       z     vdW  Elec       q    Type
REMARK                         _______ _______ _______ _____ _____    ______ ____
ROOT
ATOM      1  N   UNL     1      10.117   2.302  21.952  0.00  0.00    -0.276 N 
ATOM      2  H   UNL     1      10.614   2.829  21.243  0.00  0.00    +0.189 HD
ATOM      3  C   UNL     1       9.508   2.796  23.073  0.00  0.00    +0.066 A 
ATOM      4  C   UNL     1       9.386   4.101  23.564  0.00  0.00    +0.028 A 
ATOM      5  C   UNL     1       8.687   4.267  24.764  0.00  0.00    +0.002 A 
ATOM      6  C   UNL     1       8.138   3.175  25.436  0.00  0.00    +0.001 A 
ATOM      7  C   UNL     1       8.273   1.878  24.925  0.00  0.00    +0.012 A 
ATOM      8  C   UNL     1       8.972   1.686  23.719  0.00  0.00    +0.030 A 
ATOM      9  C   UNL     1       9.325   0.586  22.891  0.00  0.00    +0.135 A 
ATOM     10  N   UNL     1      10.025   0.967  21.809  0.00  0.00    -0.170 NA
ENDROOT
BRANCH   9  11
ATOM     11  C   UNL     1       8.996  -0.852  23.122  0.00  0.00    +0.160 A 
ATOM     12  N   UNL     1       9.606  -1.593  24.101  0.00  0.00    -0.337 N 
ATOM     13  H   UNL     1      10.309  -1.229  24.727  0.00  0.00    +0.167 HD
ATOM     14  C   UNL     1       9.098  -2.865  24.066  0.00  0.00    +0.067 A 
ATOM     15  C   UNL     1       8.172  -2.827  23.029  0.00  0.00    +0.090 A 
ATOM     16  C   UNL     1       7.451  -3.989  22.715  0.00  0.00    +0.030 A 
ATOM     17  C   UNL     1       7.690  -5.151  23.460  0.00  0.00    +0.002 A 
ATOM     18  C   UNL     1       8.628  -5.157  24.497  0.00  0.00    +0.002 A 
ATOM     19  C   UNL     1       9.357  -4.007  24.824  0.00  0.00    +0.028 A 
ATOM     20  N   UNL     1       8.120  -1.578  22.455  0.00  0.00    -0.226 NA
ENDBRANCH   9  11
TORSDOF 1
ENDMDL
MODEL 6
REMARK VINA RESULT:      -6.7      2.142      2.234
REMARK  Name = 
REMARK  1 active torsions:
REMARK  status: ('A' for Active; 'I' for Inactive)
REMARK    1  A    between atoms: C_3  and  C_4
REMARK                            x       y       z     vdW  Elec       q    Type
REMARK                         _______ _______ _______ _____ _____    ______ ____
ROOT
ATOM      1  N   UNL     1       8.329  -5.252  24.437  0.00  0.00    -0.276 N 
ATOM      2  H   UNL     1       8.705  -6.117  24.806  0.00  0.00    +0.189 HD
ATOM      3  C   UNL     1       7.045  -5.021  24.023  0.00  0.00    +0.066 A 
ATOM      4  C   UNL     1       5.919  -5.851  23.982  0.00  0.00    +0.028 A 
ATOM      5  C   UNL     1       4.734  -5.294  23.492  0.00  0.00    +0.002 A 
ATOM      6  C   UNL     1       4.683  -3.967  23.065  0.00  0.00    +0.001 A 
ATOM      7  C   UNL     1       5.823  -3.154  23.116  0.00  0.00    +0.012 A 
ATOM      8  C   UNL     1       7.028  -3.693  23.605  0.00  0.00    +0.030 A 
ATOM      9  C   UNL     1       8.356  -3.235  23.816  0.00  0.00    +0.135 A 
ATOM     10  N   UNL     1       9.151  -4.192  24.326  0.00  0.00    -0.170 NA
ENDROOT
BRANCH   9  11
ATOM     11  C   UNL     1       8.890  -1.870  23.532  0.00  0.00    +0.160 A 
ATOM     12  N   UNL     1       9.566  -1.139  24.475  0.00  0.00    -0.337 N 
ATOM     13  H   UNL     1       9.749  -1.463  25.413  0.00  0.00    +0.167 HD
ATOM     14  C   UNL     1       9.927   0.061  23.920  0.00  0.00    +0.067 A 
ATOM     15  C   UNL     1       9.433  -0.008  22.622  0.00  0.00    +0.090 A 
ATOM     16  C   UNL     1       9.632   1.080  21.758  0.00  0.00    +0.030 A 
ATOM     17  C   UNL     1      10.325   2.200  22.234  0.00  0.00    +0.002 A 
ATOM     18  C   UNL     1      10.809   2.238  23.545  0.00  0.00    +0.002 A 
ATOM     19  C   UNL     1      10.620   1.163  24.422  0.00  0.00    +0.028 A 
ATOM     20  N   UNL     1       8.794  -1.205  22.397  0.00  0.00    -0.226 NA
ENDBRANCH   9  11
TORSDOF 1
ENDMDL
MODEL 7
REMARK VINA RESULT:      -6.6      2.583      6.540
REMARK  Name = 
REMARK  1 active torsions:
REMARK  status: ('A' for Active; 'I' for Inactive)
REMARK    1  A    between atoms: C_3  and  C_4
REMARK                            x       y       z     vdW  Elec       q    Type
REMARK                         _______ _______ _______ _____ _____    ______ ____
ROOT
ATOM      1  N   UNL     1      10.171  -0.787  21.603  0.00  0.00    -0.276 N 
ATOM      2  H   UNL     1      11.095  -0.700  21.195  0.00  0.00    +0.189 HD
ATOM      3  C   UNL     1       9.300   0.227  21.898  0.00  0.00    +0.066 A 
ATOM      4  C   UNL     1       9.402   1.613  21.740  0.00  0.00    +0.028 A 
ATOM      5  C   UNL     1       8.310   2.384  22.152  0.00  0.00    +0.002 A 
ATOM      6  C   UNL     1       7.172   1.789  22.695  0.00  0.00    +0.001 A 
ATOM      7  C   UNL     1       7.092   0.398  22.843  0.00  0.00    +0.012 A 
ATOM      8  C   UNL     1       8.179  -0.398  22.436  0.00  0.00    +0.030 A 
ATOM      9  C   UNL     1       8.496  -1.783  22.413  0.00  0.00    +0.135 A 
ATOM     10  N   UNL     1       9.716  -2.018  21.902  0.00  0.00    -0.170 NA
ENDROOT
BRANCH   9  11
ATOM     11  C   UNL     1       7.634  -2.908  22.881  0.00  0.00    +0.160 A 
ATOM     12  N   UNL     1       7.467  -3.198  24.211  0.00  0.00    -0.337 N 
ATOM     13  H   UNL     1       7.906  -2.681  24.958  0.00  0.00    +0.167 HD
ATOM     14  C   UNL     1       6.626  -4.274  24.321  0.00  0.00    +0.067 A 
ATOM     15  C   UNL     1       6.316  -4.592  23.003  0.00  0.00    +0.090 A 
ATOM     16  C   UNL     1       5.456  -5.672  22.748  0.00  0.00    +0.030 A 
ATOM     17  C   UNL     1       4.938  -6.392  23.832  0.00  0.00    +0.002 A 
ATOM     18  C   UNL     1       5.269  -6.046  25.145  0.00  0.00    +0.002 A 
ATOM     19  C   UNL     1       6.126  -4.973  25.420  0.00  0.00    +0.028 A 
ATOM     20  N   UNL     1       6.945  -3.742  22.125  0.00  0.00    -0.226 NA
ENDBRANCH   9  11
TORSDOF 1
ENDMDL
MODEL 8
REMARK VINA RESULT:      -6.5      2.805      3.040
REMARK  Name = 
REMARK  1 active torsions:
REMARK  status: ('A' for Active; 'I' for Inactive)
REMARK    1  A    between atoms: C_3  and  C_4
REMARK                            x       y       z     vdW  Elec       q    Type
REMARK                         _______ _______ _______ _____ _____    ______ ____
ROOT
ATOM      1  N   UNL     1       4.733  -5.261  22.658  0.00  0.00    -0.276 N 
ATOM      2  H   UNL     1       4.075  -5.821  22.129  0.00  0.00    +0.189 HD
ATOM      3  C   UNL     1       5.134  -5.461  23.951  0.00  0.00    +0.066 A 
ATOM      4  C   UNL     1       4.785  -6.437  24.891  0.00  0.00    +0.028 A 
ATOM      5  C   UNL     1       5.387  -6.354  26.150  0.00  0.00    +0.002 A 
ATOM      6  C   UNL     1       6.297  -5.340  26.449  0.00  0.00    +0.001 A 
ATOM      7  C   UNL     1       6.631  -4.372  25.492  0.00  0.00    +0.012 A 
ATOM      8  C   UNL     1       6.037  -4.436  24.218  0.00  0.00    +0.030 A 
ATOM      9  C   UNL     1       6.095  -3.688  23.011  0.00  0.00    +0.135 A 
ATOM     10  N   UNL     1       5.296  -4.196  22.058  0.00  0.00    -0.170 NA
ENDROOT
BRANCH   9  11
ATOM     11  C   UNL     1       6.918  -2.471  22.749  0.00  0.00    +0.160 A 
ATOM     12  N   UNL     1       6.449  -1.204  22.990  0.00  0.00    -0.337 N 
ATOM     13  H   UNL     1       5.530  -1.005  23.355  0.00  0.00    +0.167 HD
ATOM     14  C   UNL     1       7.427  -0.306  22.654  0.00  0.00    +0.067 A 
ATOM     15  C   UNL     1       8.477  -1.103  22.210  0.00  0.00    +0.090 A 
ATOM     16  C   UNL     1       9.663  -0.490  21.780  0.00  0.00    +0.030 A 
ATOM     17  C   UNL     1       9.750   0.908  21.813  0.00  0.00    +0.002 A 
ATOM     18  C   UNL     1       8.677   1.681  22.265  0.00  0.00    +0.002 A 
ATOM     19  C   UNL     1       7.484   1.088  22.698  0.00  0.00    +0.028 A 
ATOM     20  N   UNL     1       8.148  -2.437  22.274  0.00  0.00    -0.226 NA
ENDBRANCH   9  11
TORSDOF 1
ENDMDL
MODEL 9
REMARK VINA RESULT:      -6.5      2.656      6.556
REMARK  Name = 
REMARK  1 active torsions:
REMARK  status: ('A' for Active; 'I' for Inactive)
REMARK    1  A    between atoms: C_3  and  C_4
REMARK                            x       y       z     vdW  Elec       q    Type
REMARK                         _______ _______ _______ _____ _____    ______ ____
ROOT
ATOM      1  N   UNL     1       9.469   2.006  21.485  0.00  0.00    -0.276 N 
ATOM      2  H   UNL     1      10.124   2.573  20.960  0.00  0.00    +0.189 HD
ATOM      3  C   UNL     1       8.254   2.393  21.982  0.00  0.00    +0.066 A 
ATOM      4  C   UNL     1       7.576   3.616  21.926  0.00  0.00    +0.028 A 
ATOM      5  C   UNL     1       6.326   3.681  22.550  0.00  0.00    +0.002 A 
ATOM      6  C   UNL     1       5.784   2.570  23.196  0.00  0.00    +0.001 A 
ATOM      7  C   UNL     1       6.481   1.356  23.239  0.00  0.00    +0.012 A 
ATOM      8  C   UNL     1       7.742   1.267  22.618  0.00  0.00    +0.030 A 
ATOM      9  C   UNL     1       8.737   0.270  22.437  0.00  0.00    +0.135 A 
ATOM     10  N   UNL     1       9.794   0.725  21.741  0.00  0.00    -0.170 NA
ENDROOT
BRANCH   9  11
ATOM     11  C   UNL     1       8.695  -1.140  22.926  0.00  0.00    +0.160 A 
ATOM     12  N   UNL     1       7.881  -2.087  22.358  0.00  0.00    -0.337 N 
ATOM     13  H   UNL     1       7.263  -1.904  21.582  0.00  0.00    +0.167 HD
ATOM     14  C   UNL     1       8.065  -3.273  23.019  0.00  0.00    +0.067 A 
ATOM     15  C   UNL     1       9.016  -2.972  23.989  0.00  0.00    +0.090 A 
ATOM     16  C   UNL     1       9.443  -3.985  24.861  0.00  0.00    +0.030 A 
ATOM     17  C   UNL     1       8.896  -5.267  24.724  0.00  0.00    +0.002 A 
ATOM     18  C   UNL     1       7.943  -5.537  23.739  0.00  0.00    +0.002 A 
ATOM     19  C   UNL     1       7.503  -4.540  22.859  0.00  0.00    +0.028 A 
ATOM     20  N   UNL     1       9.395  -1.652  23.920  0.00  0.00    -0.226 NA
ENDBRANCH   9  11
TORSDOF 1
ENDMDL
