MODEL 1
REMARK VINA RESULT:      -7.3      0.000      0.000
REMARK  Name = 
REMARK  17 active torsions:
REMARK  status: ('A' for Active; 'I' for Inactive)
REMARK    1  A    between atoms: C_1  and  N_2
REMARK    2  A    between atoms: N_2  and  C_3
REMARK    3  A    between atoms: C_3  and  C_4
REMARK    4  A    between atoms: C_3  and  C_5
REMARK    5  A    between atoms: C_8  and  N_9
REMARK    6  A    between atoms: C_10  and  O_11
REMARK    7  A    between atoms: O_11  and  C_12
REMARK    8  A    between atoms: C_13  and  N_14
REMARK    9  A    between atoms: C_16  and  N_17
REMARK   10  A    between atoms: C_18  and  O_19
REMARK   11  A    between atoms: O_19  and  C_20
REMARK   12  A    between atoms: C_23  and  C_24
REMARK   13  A    between atoms: C_23  and  O_25
REMARK   14  A    between atoms: C_26  and  N_27
REMARK   15  A    between atoms: N_27  and  C_28
REMARK   16  A    between atoms: C_29  and  O_30
REMARK   17  A    between atoms: C_31  and  O_32
REMARK                            x       y       z     vdW  Elec       q    Type
REMARK                         _______ _______ _______ _____ _____    ______ ____
ROOT
ATOM      1  C   UNL     1       8.831  -0.510  23.901  0.00  0.00    +0.169 C 
ATOM      2  C   UNL     1       8.461   0.973  24.129  0.00  0.00    +0.175 C 
ATOM      3  C   UNL     1       7.956   1.646  22.816  0.00  0.00    +0.169 C 
ATOM      4  C   UNL     1       8.964   1.472  21.643  0.00  0.00    +0.084 C 
ATOM      5  C   UNL     1       9.433   0.011  21.505  0.00  0.00    +0.042 C 
ATOM      6  C   UNL     1       9.953  -0.554  22.835  0.00  0.00    +0.084 C 
ENDROOT
BRANCH   4   7
ATOM      7  N   UNL     1      10.140   2.355  21.703  0.00  0.00    -0.325 NA
ATOM      8  H   UNL     1      10.753   2.148  22.484  0.00  0.00    +0.119 HD
ATOM      9  H   UNL     1      10.689   2.344  20.853  0.00  0.00    +0.119 HD
ENDBRANCH   4   7
BRANCH   6  10
ATOM     10  N   UNL     1      10.572  -1.872  22.637  0.00  0.00    -0.325 NA
ATOM     11  H   UNL     1      11.543  -1.861  22.937  0.00  0.00    +0.119 HD
ATOM     12  H   UNL     1      10.068  -2.608  23.105  0.00  0.00    +0.119 HD
ENDBRANCH   6  10
BRANCH   2  13
ATOM     13  O   UNL     1       9.594   1.659  24.690  0.00  0.00    -0.387 OA
ATOM     14  H   UNL     1      10.384   1.152  24.435  0.00  0.00    +0.210 HD
ENDBRANCH   2  13
BRANCH   1  15
ATOM     15  O   UNL     1       7.599  -1.125  23.533  0.00  0.00    -0.342 OA
BRANCH  15  18
ATOM     16  C   UNL     1       7.788  -4.564  24.620  0.00  0.00    +0.138 C 
ATOM     17  O   UNL     1       8.043  -3.285  24.030  0.00  0.00    -0.345 OA
ATOM     18  C   UNL     1       7.083  -2.242  24.248  0.00  0.00    +0.268 C 
ATOM     19  C   UNL     1       5.667  -2.694  23.780  0.00  0.00    +0.107 C 
ATOM     20  C   UNL     1       5.311  -4.002  24.487  0.00  0.00    +0.026 C 
ATOM     21  C   UNL     1       6.380  -5.062  24.254  0.00  0.00    +0.035 C 
BRANCH  19  22
ATOM     22  N   UNL     1       5.560  -2.886  22.317  0.00  0.00    -0.323 NA
ATOM     23  H   UNL     1       4.577  -2.824  22.047  0.00  0.00    +0.119 HD
ATOM     24  H   UNL     1       5.975  -2.070  21.862  0.00  0.00    +0.119 HD
ENDBRANCH  19  22
BRANCH  16  25
ATOM     25  C   UNL     1       8.141  -4.656  26.147  0.00  0.00    +0.079 C 
ATOM     26  C   UNL     1       9.664  -4.698  26.349  0.00  0.00    +0.026 C 
BRANCH  25  28
ATOM     27  C   UNL     1       6.643  -5.622  27.874  0.00  0.00    +0.101 C 
ATOM     28  N   UNL     1       7.506  -5.862  26.729  0.00  0.00    -0.314 NA
ATOM     29  H   UNL     1       6.964  -6.352  26.019  0.00  0.00    +0.122 HD
ENDBRANCH  25  28
ENDBRANCH  16  25
ENDBRANCH  15  18
ENDBRANCH   1  15
BRANCH   3  30
ATOM     30  O   UNL     1       7.681   2.998  23.186  0.00  0.00    -0.341 OA
BRANCH  30  31
ATOM     31  C   UNL     1       6.993   3.863  22.280  0.00  0.00    +0.281 C 
ATOM     32  C   UNL     1       7.712   5.217  22.462  0.00  0.00    +0.190 C 
ATOM     33  C   UNL     1       7.326   5.785  23.862  0.00  0.00    +0.121 C 
ATOM     34  C   UNL     1       5.775   5.982  23.878  0.00  0.00    +0.104 C 
ATOM     35  C   UNL     1       5.233   6.587  25.172  0.00  0.00    +0.045 C 
ATOM     36  C   UNL     1       5.132   4.591  23.647  0.00  0.00    +0.199 C 
ATOM     37  O   UNL     1       5.583   3.917  22.477  0.00  0.00    -0.346 OA
BRANCH  33  38
ATOM     38  N   UNL     1       8.104   6.998  24.223  0.00  0.00    -0.311 NA
ATOM     39  H   UNL     1       7.865   7.274  25.175  0.00  0.00    +0.122 HD
ATOM     40  C   UNL     1       9.542   6.741  24.177  0.00  0.00    +0.101 C 
ENDBRANCH  33  38
BRANCH  32  41
ATOM     41  O   UNL     1       7.451   6.109  21.375  0.00  0.00    -0.385 OA
ATOM     42  H   UNL     1       7.033   6.899  21.785  0.00  0.00    +0.210 HD
ENDBRANCH  32  41
BRANCH  34  43
ATOM     43  O   UNL     1       5.401   6.879  22.805  0.00  0.00    -0.385 OA
ATOM     44  H   UNL     1       6.064   6.791  22.096  0.00  0.00    +0.210 HD
ENDBRANCH  34  43
ENDBRANCH  30  31
ENDBRANCH   3  30
TORSDOF 13
ENDMDL
MODEL 2
REMARK VINA RESULT:      -7.0      1.886      8.987
REMARK  Name = 
REMARK  17 active torsions:
REMARK  status: ('A' for Active; 'I' for Inactive)
REMARK    1  A    between atoms: C_1  and  N_2
REMARK    2  A    between atoms: N_2  and  C_3
REMARK    3  A    between atoms: C_3  and  C_4
REMARK    4  A    between atoms: C_3  and  C_5
REMARK    5  A    between atoms: C_8  and  N_9
REMARK    6  A    between atoms: C_10  and  O_11
REMARK    7  A    between atoms: O_11  and  C_12
REMARK    8  A    between atoms: C_13  and  N_14
REMARK    9  A    between atoms: C_16  and  N_17
REMARK   10  A    between atoms: C_18  and  O_19
REMARK   11  A    between atoms: O_19  and  C_20
REMARK   12  A    between atoms: C_23  and  C_24
REMARK   13  A    between atoms: C_23  and  O_25
REMARK   14  A    between atoms: C_26  and  N_27
REMARK   15  A    between atoms: N_27  and  C_28
REMARK   16  A    between atoms: C_29  and  O_30
REMARK   17  A    between atoms: C_31  and  O_32
REMARK                            x       y       z     vdW  Elec       q    Type
REMARK                         _______ _______ _______ _____ _____    ______ ____
ROOT
ATOM      1  C   UNL     1       8.237   1.294  22.863  0.00  0.00    +0.169 C 
ATOM      2  C   UNL     1       7.732  -0.089  23.331  0.00  0.00    +0.175 C 
ATOM      3  C   UNL     1       8.724  -0.753  24.334  0.00  0.00    +0.169 C 
ATOM      4  C   UNL     1      10.172  -0.824  23.766  0.00  0.00    +0.084 C 
ATOM      5  C   UNL     1      10.622   0.527  23.178  0.00  0.00    +0.042 C 
ATOM      6  C   UNL     1       9.605   1.084  22.170  0.00  0.00    +0.084 C 
ENDROOT
BRANCH   4   7
ATOM      7  N   UNL     1      10.392  -1.883  22.768  0.00  0.00    -0.325 NA
ATOM      8  H   UNL     1       9.771  -2.677  22.886  0.00  0.00    +0.119 HD
ATOM      9  H   UNL     1      10.312  -1.554  21.814  0.00  0.00    +0.119 HD
ENDBRANCH   4   7
BRANCH   6  10
ATOM     10  N   UNL     1      10.144   2.265  21.482  0.00  0.00    -0.325 NA
ATOM     11  H   UNL     1      10.788   2.769  22.086  0.00  0.00    +0.119 HD
ATOM     12  H   UNL     1      10.590   2.032  20.611  0.00  0.00    +0.119 HD
ENDBRANCH   6  10
BRANCH   2  13
ATOM     13  O   UNL     1       7.490  -0.916  22.179  0.00  0.00    -0.387 OA
ATOM     14  H   UNL     1       8.133  -1.645  22.217  0.00  0.00    +0.210 HD
ENDBRANCH   2  13
BRANCH   1  15
ATOM     15  O   UNL     1       8.257   2.080  24.052  0.00  0.00    -0.342 OA
BRANCH  15  18
ATOM     16  C   UNL     1       6.981   5.012  22.373  0.00  0.00    +0.138 C 
ATOM     17  O   UNL     1       7.425   3.692  22.703  0.00  0.00    -0.345 OA
ATOM     18  C   UNL     1       7.870   3.449  24.045  0.00  0.00    +0.268 C 
ATOM     19  C   UNL     1       9.017   4.432  24.428  0.00  0.00    +0.107 C 
ATOM     20  C   UNL     1       8.532   5.864  24.201  0.00  0.00    +0.026 C 
ATOM     21  C   UNL     1       8.036   6.057  22.773  0.00  0.00    +0.035 C 
BRANCH  19  22
ATOM     22  N   UNL     1      10.265   4.214  23.664  0.00  0.00    -0.323 NA
ATOM     23  H   UNL     1      10.416   5.009  23.042  0.00  0.00    +0.119 HD
ATOM     24  H   UNL     1      11.049   4.281  24.317  0.00  0.00    +0.119 HD
ENDBRANCH  19  22
BRANCH  16  25
ATOM     25  C   UNL     1       5.519   5.341  22.842  0.00  0.00    +0.079 C 
ATOM     26  C   UNL     1       4.614   4.108  22.696  0.00  0.00    +0.026 C 
BRANCH  25  28
ATOM     27  C   UNL     1       3.593   6.803  22.285  0.00  0.00    +0.101 C 
ATOM     28  N   UNL     1       4.989   6.473  22.047  0.00  0.00    -0.314 NA
ATOM     29  H   UNL     1       5.546   7.310  22.210  0.00  0.00    +0.122 HD
ENDBRANCH  25  28
ENDBRANCH  16  25
ENDBRANCH  15  18
ENDBRANCH   1  15
BRANCH   3  30
ATOM     30  O   UNL     1       8.131  -2.014  24.648  0.00  0.00    -0.341 OA
BRANCH  30  31
ATOM     31  C   UNL     1       8.867  -2.985  25.395  0.00  0.00    +0.281 C 
ATOM     32  C   UNL     1       8.793  -4.248  24.510  0.00  0.00    +0.190 C 
ATOM     33  C   UNL     1       7.330  -4.789  24.561  0.00  0.00    +0.121 C 
ATOM     34  C   UNL     1       7.013  -5.144  26.051  0.00  0.00    +0.104 C 
ATOM     35  C   UNL     1       5.624  -5.742  26.270  0.00  0.00    +0.045 C 
ATOM     36  C   UNL     1       7.151  -3.838  26.874  0.00  0.00    +0.199 C 
ATOM     37  O   UNL     1       8.402  -3.175  26.728  0.00  0.00    -0.346 OA
BRANCH  33  38
ATOM     38  N   UNL     1       7.096  -5.898  23.601  0.00  0.00    -0.311 NA
ATOM     39  H   UNL     1       6.156  -6.268  23.746  0.00  0.00    +0.122 HD
ATOM     40  C   UNL     1       7.187  -5.433  22.218  0.00  0.00    +0.101 C 
ENDBRANCH  33  38
BRANCH  32  41
ATOM     41  O   UNL     1       9.787  -5.211  24.871  0.00  0.00    -0.385 OA
ATOM     42  H   UNL     1      10.493  -4.695  25.322  0.00  0.00    +0.210 HD
ENDBRANCH  32  41
BRANCH  34  43
ATOM     43  O   UNL     1       7.972  -6.122  26.519  0.00  0.00    -0.385 OA
ATOM     44  H   UNL     1       8.360  -5.788  27.348  0.00  0.00    +0.210 HD
ENDBRANCH  34  43
ENDBRANCH  30  31
ENDBRANCH   3  30
TORSDOF 13
ENDMDL
MODEL 3
REMARK VINA RESULT:      -7.0      1.756      2.032
REMARK  Name = 
REMARK  17 active torsions:
REMARK  status: ('A' for Active; 'I' for Inactive)
REMARK    1  A    between atoms: C_1  and  N_2
REMARK    2  A    between atoms: N_2  and  C_3
REMARK    3  A    between atoms: C_3  and  C_4
REMARK    4  A    between atoms: C_3  and  C_5
REMARK    5  A    between atoms: C_8  and  N_9
REMARK    6  A    between atoms: C_10  and  O_11
REMARK    7  A    between atoms: O_11  and  C_12
REMARK    8  A    between atoms: C_13  and  N_14
REMARK    9  A    between atoms: C_16  and  N_17
REMARK   10  A    between atoms: C_18  and  O_19
REMARK   11  A    between atoms: O_19  and  C_20
REMARK   12  A    between atoms: C_23  and  C_24
REMARK   13  A    between atoms: C_23  and  O_25
REMARK   14  A    between atoms: C_26  and  N_27
REMARK   15  A    between atoms: N_27  and  C_28
REMARK   16  A    between atoms: C_29  and  O_30
REMARK   17  A    between atoms: C_31  and  O_32
REMARK                            x       y       z     vdW  Elec       q    Type
REMARK                         _______ _______ _______ _____ _____    ______ ____
ROOT
ATOM      1  C   UNL     1       8.590  -0.630  23.619  0.00  0.00    +0.169 C 
ATOM      2  C   UNL     1       8.222   0.838  23.924  0.00  0.00    +0.175 C 
ATOM      3  C   UNL     1       7.887   1.628  22.622  0.00  0.00    +0.169 C 
ATOM      4  C   UNL     1       9.024   1.522  21.563  0.00  0.00    +0.084 C 
ATOM      5  C   UNL     1       9.480   0.064  21.360  0.00  0.00    +0.042 C 
ATOM      6  C   UNL     1       9.829  -0.620  22.691  0.00  0.00    +0.084 C 
ENDROOT
BRANCH   4   7
ATOM      7  N   UNL     1      10.199   2.364  21.833  0.00  0.00    -0.325 NA
ATOM      8  H   UNL     1       9.970   3.223  22.321  0.00  0.00    +0.119 HD
ATOM      9  H   UNL     1      10.923   1.883  22.353  0.00  0.00    +0.119 HD
ENDBRANCH   4   7
BRANCH   6  10
ATOM     10  N   UNL     1      10.444  -1.934  22.457  0.00  0.00    -0.325 NA
ATOM     11  H   UNL     1      11.447  -1.842  22.326  0.00  0.00    +0.119 HD
ATOM     12  H   UNL     1      10.245  -2.588  23.196  0.00  0.00    +0.119 HD
ENDBRANCH   6  10
BRANCH   2  13
ATOM     13  O   UNL     1       9.292   1.447  24.668  0.00  0.00    -0.387 OA
ATOM     14  H   UNL     1       9.046   2.378  24.805  0.00  0.00    +0.210 HD
ENDBRANCH   2  13
BRANCH   1  15
ATOM     15  O   UNL     1       7.400  -1.180  23.060  0.00  0.00    -0.342 OA
BRANCH  15  18
ATOM     16  C   UNL     1       4.915  -3.802  23.036  0.00  0.00    +0.138 C 
ATOM     17  O   UNL     1       5.774  -2.708  22.695  0.00  0.00    -0.345 OA
ATOM     18  C   UNL     1       6.724  -2.272  23.677  0.00  0.00    +0.268 C 
ATOM     19  C   UNL     1       6.006  -1.900  25.009  0.00  0.00    +0.107 C 
ATOM     20  C   UNL     1       5.171  -3.096  25.466  0.00  0.00    +0.026 C 
ATOM     21  C   UNL     1       4.206  -3.543  24.375  0.00  0.00    +0.035 C 
BRANCH  19  22
ATOM     22  N   UNL     1       5.134  -0.710  24.900  0.00  0.00    -0.323 NA
ATOM     23  H   UNL     1       4.489  -0.699  25.692  0.00  0.00    +0.119 HD
ATOM     24  H   UNL     1       5.711   0.118  25.063  0.00  0.00    +0.119 HD
ENDBRANCH  19  22
BRANCH  16  25
ATOM     25  C   UNL     1       5.587  -5.216  22.911  0.00  0.00    +0.079 C 
ATOM     26  C   UNL     1       6.341  -5.342  21.578  0.00  0.00    +0.026 C 
BRANCH  25  28
ATOM     27  C   UNL     1       4.513  -6.980  24.289  0.00  0.00    +0.101 C 
ATOM     28  N   UNL     1       4.548  -6.267  23.022  0.00  0.00    -0.314 NA
ATOM     29  H   UNL     1       3.625  -5.869  22.855  0.00  0.00    +0.122 HD
ENDBRANCH  25  28
ENDBRANCH  16  25
ENDBRANCH  15  18
ENDBRANCH   1  15
BRANCH   3  30
ATOM     30  O   UNL     1       7.594   2.954  23.068  0.00  0.00    -0.341 OA
BRANCH  30  31
ATOM     31  C   UNL     1       6.910   3.865  22.206  0.00  0.00    +0.281 C 
ATOM     32  C   UNL     1       7.701   5.180  22.375  0.00  0.00    +0.190 C 
ATOM     33  C   UNL     1       7.405   5.743  23.799  0.00  0.00    +0.121 C 
ATOM     34  C   UNL     1       5.867   6.013  23.886  0.00  0.00    +0.104 C 
ATOM     35  C   UNL     1       5.411   6.622  25.211  0.00  0.00    +0.045 C 
ATOM     36  C   UNL     1       5.148   4.659  23.663  0.00  0.00    +0.199 C 
ATOM     37  O   UNL     1       5.515   3.983  22.466  0.00  0.00    -0.346 OA
BRANCH  33  38
ATOM     38  N   UNL     1       8.255   6.911  24.143  0.00  0.00    -0.311 NA
ATOM     39  H   UNL     1       8.042   7.208  25.095  0.00  0.00    +0.122 HD
ATOM     40  C   UNL     1       9.676   6.570  24.086  0.00  0.00    +0.101 C 
ENDBRANCH  33  38
BRANCH  32  41
ATOM     41  O   UNL     1       7.438   6.101  21.314  0.00  0.00    -0.385 OA
ATOM     42  H   UNL     1       6.878   5.604  20.675  0.00  0.00    +0.210 HD
ENDBRANCH  32  41
BRANCH  34  43
ATOM     43  O   UNL     1       5.491   6.944  22.843  0.00  0.00    -0.385 OA
ATOM     44  H   UNL     1       4.977   7.663  23.254  0.00  0.00    +0.210 HD
ENDBRANCH  34  43
ENDBRANCH  30  31
ENDBRANCH   3  30
TORSDOF 13
ENDMDL
MODEL 4
REMARK VINA RESULT:      -7.0      2.018      2.438
REMARK  Name = 
REMARK  17 active torsions:
REMARK  status: ('A' for Active; 'I' for Inactive)
REMARK    1  A    between atoms: C_1  and  N_2
REMARK    2  A    between atoms: N_2  and  C_3
REMARK    3  A    between atoms: C_3  and  C_4
REMARK    4  A    between atoms: C_3  and  C_5
REMARK    5  A    between atoms: C_8  and  N_9
REMARK    6  A    between atoms: C_10  and  O_11
REMARK    7  A    between atoms: O_11  and  C_12
REMARK    8  A    between atoms: C_13  and  N_14
REMARK    9  A    between atoms: C_16  and  N_17
REMARK   10  A    between atoms: C_18  and  O_19
REMARK   11  A    between atoms: O_19  and  C_20
REMARK   12  A    between atoms: C_23  and  C_24
REMARK   13  A    between atoms: C_23  and  O_25
REMARK   14  A    between atoms: C_26  and  N_27
REMARK   15  A    between atoms: N_27  and  C_28
REMARK   16  A    between atoms: C_29  and  O_30
REMARK   17  A    between atoms: C_31  and  O_32
REMARK                            x       y       z     vdW  Elec       q    Type
REMARK                         _______ _______ _______ _____ _____    ______ ____
ROOT
ATOM      1  C   UNL     1       8.388  -1.668  25.010  0.00  0.00    +0.169 C 
ATOM      2  C   UNL     1       8.383  -0.187  25.451  0.00  0.00    +0.175 C 
ATOM      3  C   UNL     1       8.577   0.773  24.237  0.00  0.00    +0.169 C 
ATOM      4  C   UNL     1       9.845   0.418  23.406  0.00  0.00    +0.084 C 
ATOM      5  C   UNL     1       9.913  -1.087  23.083  0.00  0.00    +0.042 C 
ATOM      6  C   UNL     1       9.754  -1.953  24.342  0.00  0.00    +0.084 C 
ENDROOT
BRANCH   4   7
ATOM      7  N   UNL     1      11.118   0.841  24.011  0.00  0.00    -0.325 NA
ATOM      8  H   UNL     1      11.165   0.662  25.008  0.00  0.00    +0.119 HD
ATOM      9  H   UNL     1      11.927   0.420  23.571  0.00  0.00    +0.119 HD
ENDBRANCH   4   7
BRANCH   6  10
ATOM     10  N   UNL     1      10.017  -3.367  24.040  0.00  0.00    -0.325 NA
ATOM     11  H   UNL     1       9.396  -3.970  24.572  0.00  0.00    +0.119 HD
ATOM     12  H   UNL     1       9.945  -3.570  23.056  0.00  0.00    +0.119 HD
ENDBRANCH   6  10
BRANCH   2  13
ATOM     13  O   UNL     1       9.387   0.006  26.462  0.00  0.00    -0.387 OA
ATOM     14  H   UNL     1       9.555  -0.866  26.861  0.00  0.00    +0.210 HD
ENDBRANCH   2  13
BRANCH   1  15
ATOM     15  O   UNL     1       7.246  -1.785  24.165  0.00  0.00    -0.342 OA
BRANCH  15  18
ATOM     16  C   UNL     1       6.467  -5.257  24.787  0.00  0.00    +0.138 C 
ATOM     17  O   UNL     1       7.128  -4.000  24.600  0.00  0.00    -0.345 OA
ATOM     18  C   UNL     1       6.316  -2.852  24.315  0.00  0.00    +0.268 C 
ATOM     19  C   UNL     1       5.433  -3.104  23.056  0.00  0.00    +0.107 C 
ATOM     20  C   UNL     1       4.620  -4.380  23.274  0.00  0.00    +0.026 C 
ATOM     21  C   UNL     1       5.525  -5.559  23.610  0.00  0.00    +0.035 C 
BRANCH  19  22
ATOM     22  N   UNL     1       6.209  -3.228  21.803  0.00  0.00    -0.323 NA
ATOM     23  H   UNL     1       6.220  -4.208  21.517  0.00  0.00    +0.119 HD
ATOM     24  H   UNL     1       5.676  -2.777  21.057  0.00  0.00    +0.119 HD
ENDBRANCH  19  22
BRANCH  16  25
ATOM     25  C   UNL     1       5.825  -5.446  26.208  0.00  0.00    +0.079 C 
ATOM     26  C   UNL     1       6.888  -5.293  27.307  0.00  0.00    +0.026 C 
BRANCH  25  28
ATOM     27  C   UNL     1       3.768  -6.775  26.612  0.00  0.00    +0.101 C 
ATOM     28  N   UNL     1       5.185  -6.780  26.286  0.00  0.00    -0.314 NA
ATOM     29  H   UNL     1       5.307  -7.282  25.408  0.00  0.00    +0.122 HD
ENDBRANCH  25  28
ENDBRANCH  16  25
ENDBRANCH  15  18
ENDBRANCH   1  15
BRANCH   3  30
ATOM     30  O   UNL     1       8.571   2.083  24.808  0.00  0.00    -0.341 OA
BRANCH  30  31
ATOM     31  C   UNL     1       7.726   3.097  24.263  0.00  0.00    +0.281 C 
ATOM     32  C   UNL     1       8.642   3.825  23.257  0.00  0.00    +0.190 C 
ATOM     33  C   UNL     1       9.701   4.636  24.066  0.00  0.00    +0.121 C 
ATOM     34  C   UNL     1       8.927   5.670  24.948  0.00  0.00    +0.104 C 
ATOM     35  C   UNL     1       9.826   6.589  25.772  0.00  0.00    +0.045 C 
ATOM     36  C   UNL     1       8.002   4.864  25.895  0.00  0.00    +0.199 C 
ATOM     37  O   UNL     1       7.132   3.951  25.237  0.00  0.00    -0.346 OA
BRANCH  33  38
ATOM     38  N   UNL     1      10.751   5.231  23.200  0.00  0.00    -0.311 NA
ATOM     39  H   UNL     1      10.937   6.184  23.512  0.00  0.00    +0.122 HD
ATOM     40  C   UNL     1      12.002   4.479  23.287  0.00  0.00    +0.101 C 
ENDBRANCH  33  38
BRANCH  32  41
ATOM     41  O   UNL     1       7.894   4.607  22.322  0.00  0.00    -0.385 OA
ATOM     42  H   UNL     1       8.514   4.782  21.578  0.00  0.00    +0.210 HD
ENDBRANCH  32  41
BRANCH  34  43
ATOM     43  O   UNL     1       8.129   6.520  24.090  0.00  0.00    -0.385 OA
ATOM     44  H   UNL     1       7.223   6.540  24.447  0.00  0.00    +0.210 HD
ENDBRANCH  34  43
ENDBRANCH  30  31
ENDBRANCH   3  30
TORSDOF 13
ENDMDL
MODEL 5
REMARK VINA RESULT:      -6.7      2.967      9.279
REMARK  Name = 
REMARK  17 active torsions:
REMARK  status: ('A' for Active; 'I' for Inactive)
REMARK    1  A    between atoms: C_1  and  N_2
REMARK    2  A    between atoms: N_2  and  C_3
REMARK    3  A    between atoms: C_3  and  C_4
REMARK    4  A    between atoms: C_3  and  C_5
REMARK    5  A    between atoms: C_8  and  N_9
REMARK    6  A    between atoms: C_10  and  O_11
REMARK    7  A    between atoms: O_11  and  C_12
REMARK    8  A    between atoms: C_13  and  N_14
REMARK    9  A    between atoms: C_16  and  N_17
REMARK   10  A    between atoms: C_18  and  O_19
REMARK   11  A    between atoms: O_19  and  C_20
REMARK   12  A    between atoms: C_23  and  C_24
REMARK   13  A    between atoms: C_23  and  O_25
REMARK   14  A    between atoms: C_26  and  N_27
REMARK   15  A    between atoms: N_27  and  C_28
REMARK   16  A    between atoms: C_29  and  O_30
REMARK   17  A    between atoms: C_31  and  O_32
REMARK                            x       y       z     vdW  Elec       q    Type
REMARK                         _______ _______ _______ _____ _____    ______ ____
ROOT
ATOM      1  C   UNL     1       7.138  -1.274  22.837  0.00  0.00    +0.169 C 
ATOM      2  C   UNL     1       5.971  -2.217  23.205  0.00  0.00    +0.175 C 
ATOM      3  C   UNL     1       6.409  -3.290  24.249  0.00  0.00    +0.169 C 
ATOM      4  C   UNL     1       7.669  -4.078  23.786  0.00  0.00    +0.084 C 
ATOM      5  C   UNL     1       8.783  -3.136  23.292  0.00  0.00    +0.042 C 
ATOM      6  C   UNL     1       8.271  -2.143  22.237  0.00  0.00    +0.084 C 
ENDROOT
BRANCH   4   7
ATOM      7  N   UNL     1       7.413  -5.104  22.762  0.00  0.00    -0.325 NA
ATOM      8  H   UNL     1       7.314  -4.720  21.829  0.00  0.00    +0.119 HD
ATOM      9  H   UNL     1       8.122  -5.827  22.738  0.00  0.00    +0.119 HD
ENDBRANCH   4   7
BRANCH   6  10
ATOM     10  N   UNL     1       9.385  -1.392  21.643  0.00  0.00    -0.325 NA
ATOM     11  H   UNL     1       9.167  -0.400  21.601  0.00  0.00    +0.119 HD
ATOM     12  H   UNL     1      10.253  -1.540  22.131  0.00  0.00    +0.119 HD
ENDBRANCH   6  10
BRANCH   2  13
ATOM     13  O   UNL     1       5.448  -2.810  22.004  0.00  0.00    -0.387 OA
ATOM     14  H   UNL     1       5.663  -3.758  22.042  0.00  0.00    +0.210 HD
ENDBRANCH   2  13
BRANCH   1  15
ATOM     15  O   UNL     1       7.447  -0.606  24.057  0.00  0.00    -0.342 OA
BRANCH  15  18
ATOM     16  C   UNL     1       8.232   2.498  22.385  0.00  0.00    +0.138 C 
ATOM     17  O   UNL     1       7.841   1.157  22.697  0.00  0.00    -0.345 OA
ATOM     18  C   UNL     1       7.857   0.757  24.074  0.00  0.00    +0.268 C 
ATOM     19  C   UNL     1       9.268   0.985  24.695  0.00  0.00    +0.107 C 
ATOM     20  C   UNL     1       9.666   2.446  24.485  0.00  0.00    +0.026 C 
ATOM     21  C   UNL     1       9.596   2.829  23.012  0.00  0.00    +0.035 C 
BRANCH  19  22
ATOM     22  N   UNL     1      10.315   0.108  24.127  0.00  0.00    -0.323 NA
ATOM     23  H   UNL     1      10.067  -0.865  24.310  0.00  0.00    +0.119 HD
ATOM     24  H   UNL     1      10.259   0.171  23.108  0.00  0.00    +0.119 HD
ENDBRANCH  19  22
BRANCH  16  25
ATOM     25  C   UNL     1       7.115   3.574  22.637  0.00  0.00    +0.079 C 
ATOM     26  C   UNL     1       5.720   2.969  22.410  0.00  0.00    +0.026 C 
BRANCH  25  28
ATOM     27  C   UNL     1       7.510   6.012  22.400  0.00  0.00    +0.101 C 
ATOM     28  N   UNL     1       7.333   4.730  21.737  0.00  0.00    -0.314 NA
ATOM     29  H   UNL     1       8.143   4.566  21.141  0.00  0.00    +0.122 HD
ENDBRANCH  25  28
ENDBRANCH  16  25
ENDBRANCH  15  18
ENDBRANCH   1  15
BRANCH   3  30
ATOM     30  O   UNL     1       5.240  -4.083  24.464  0.00  0.00    -0.341 OA
BRANCH  30  31
ATOM     31  C   UNL     1       5.365  -5.440  24.894  0.00  0.00    +0.281 C 
ATOM     32  C   UNL     1       4.283  -6.176  24.074  0.00  0.00    +0.190 C 
ATOM     33  C   UNL     1       2.886  -5.752  24.625  0.00  0.00    +0.121 C 
ATOM     34  C   UNL     1       2.824  -6.183  26.127  0.00  0.00    +0.104 C 
ATOM     35  C   UNL     1       1.490  -5.886  26.810  0.00  0.00    +0.045 C 
ATOM     36  C   UNL     1       3.963  -5.438  26.867  0.00  0.00    +0.199 C 
ATOM     37  O   UNL     1       5.256  -5.621  26.302  0.00  0.00    -0.346 OA
BRANCH  33  38
ATOM     38  N   UNL     1       1.764  -6.256  23.793  0.00  0.00    -0.311 NA
ATOM     39  H   UNL     1       1.121  -6.780  24.387  0.00  0.00    +0.122 HD
ATOM     40  C   UNL     1       1.018  -5.157  23.184  0.00  0.00    +0.101 C 
ENDBRANCH  33  38
BRANCH  32  41
ATOM     41  O   UNL     1       4.500  -7.589  24.052  0.00  0.00    -0.385 OA
ATOM     42  H   UNL     1       4.238  -7.904  24.947  0.00  0.00    +0.210 HD
ENDBRANCH  32  41
BRANCH  34  43
ATOM     43  O   UNL     1       3.034  -7.613  26.217  0.00  0.00    -0.385 OA
ATOM     44  H   UNL     1       3.369  -7.921  25.357  0.00  0.00    +0.210 HD
ENDBRANCH  34  43
ENDBRANCH  30  31
ENDBRANCH   3  30
TORSDOF 13
ENDMDL
MODEL 6
REMARK VINA RESULT:      -6.6      2.200      3.328
REMARK  Name = 
REMARK  17 active torsions:
REMARK  status: ('A' for Active; 'I' for Inactive)
REMARK    1  A    between atoms: C_1  and  N_2
REMARK    2  A    between atoms: N_2  and  C_3
REMARK    3  A    between atoms: C_3  and  C_4
REMARK    4  A    between atoms: C_3  and  C_5
REMARK    5  A    between atoms: C_8  and  N_9
REMARK    6  A    between atoms: C_10  and  O_11
REMARK    7  A    between atoms: O_11  and  C_12
REMARK    8  A    between atoms: C_13  and  N_14
REMARK    9  A    between atoms: C_16  and  N_17
REMARK   10  A    between atoms: C_18  and  O_19
REMARK   11  A    between atoms: O_19  and  C_20
REMARK   12  A    between atoms: C_23  and  C_24
REMARK   13  A    between atoms: C_23  and  O_25
REMARK   14  A    between atoms: C_26  and  N_27
REMARK   15  A    between atoms: N_27  and  C_28
REMARK   16  A    between atoms: C_29  and  O_30
REMARK   17  A    between atoms: C_31  and  O_32
REMARK                            x       y       z     vdW  Elec       q    Type
REMARK                         _______ _______ _______ _____ _____    ______ ____
ROOT
ATOM      1  C   UNL     1       7.850  -2.391  24.272  0.00  0.00    +0.169 C 
ATOM      2  C   UNL     1       7.720  -0.858  24.416  0.00  0.00    +0.175 C 
ATOM      3  C   UNL     1       8.571  -0.108  23.346  0.00  0.00    +0.169 C 
ATOM      4  C   UNL     1      10.059  -0.568  23.354  0.00  0.00    +0.084 C 
ATOM      5  C   UNL     1      10.182  -2.104  23.346  0.00  0.00    +0.042 C 
ATOM      6  C   UNL     1       9.344  -2.753  24.458  0.00  0.00    +0.084 C 
ENDROOT
BRANCH   4   7
ATOM      7  N   UNL     1      10.868  -0.023  24.456  0.00  0.00    -0.325 NA
ATOM      8  H   UNL     1      10.309   0.391  25.194  0.00  0.00    +0.119 HD
ATOM      9  H   UNL     1      11.489  -0.707  24.870  0.00  0.00    +0.119 HD
ENDBRANCH   4   7
BRANCH   6  10
ATOM     10  N   UNL     1       9.629  -4.192  24.554  0.00  0.00    -0.325 NA
ATOM     11  H   UNL     1      10.631  -4.361  24.533  0.00  0.00    +0.119 HD
ATOM     12  H   UNL     1       9.220  -4.610  25.374  0.00  0.00    +0.119 HD
ENDBRANCH   6  10
BRANCH   2  13
ATOM     13  O   UNL     1       8.075  -0.479  25.757  0.00  0.00    -0.387 OA
ATOM     14  H   UNL     1       8.002  -1.280  26.304  0.00  0.00    +0.210 HD
ENDBRANCH   2  13
BRANCH   1  15
ATOM     15  O   UNL     1       7.298  -2.671  22.989  0.00  0.00    -0.342 OA
BRANCH  15  18
ATOM     16  C   UNL     1       4.863  -4.986  24.316  0.00  0.00    +0.138 C 
ATOM     17  O   UNL     1       5.893  -4.004  24.155  0.00  0.00    -0.345 OA
ATOM     18  C   UNL     1       6.257  -3.628  22.820  0.00  0.00    +0.268 C 
ATOM     19  C   UNL     1       6.678  -4.879  21.992  0.00  0.00    +0.107 C 
ATOM     20  C   UNL     1       5.544  -5.904  22.043  0.00  0.00    +0.026 C 
ATOM     21  C   UNL     1       5.171  -6.241  23.482  0.00  0.00    +0.035 C 
BRANCH  19  22
ATOM     22  N   UNL     1       7.928  -5.511  22.467  0.00  0.00    -0.323 NA
ATOM     23  H   UNL     1       8.106  -6.350  21.912  0.00  0.00    +0.119 HD
ATOM     24  H   UNL     1       8.706  -4.899  22.213  0.00  0.00    +0.119 HD
ENDBRANCH  19  22
BRANCH  16  25
ATOM     25  C   UNL     1       3.405  -4.429  24.151  0.00  0.00    +0.079 C 
ATOM     26  C   UNL     1       3.083  -3.417  25.262  0.00  0.00    +0.026 C 
BRANCH  25  28
ATOM     27  C   UNL     1       1.532  -5.624  23.045  0.00  0.00    +0.101 C 
ATOM     28  N   UNL     1       2.441  -5.554  24.177  0.00  0.00    -0.314 NA
ATOM     29  H   UNL     1       2.937  -6.442  24.242  0.00  0.00    +0.122 HD
ENDBRANCH  25  28
ENDBRANCH  16  25
ENDBRANCH  15  18
ENDBRANCH   1  15
BRANCH   3  30
ATOM     30  O   UNL     1       8.362   1.278  23.625  0.00  0.00    -0.341 OA
BRANCH  30  31
ATOM     31  C   UNL     1       8.882   2.272  22.740  0.00  0.00    +0.281 C 
ATOM     32  C   UNL     1       9.153   3.473  23.672  0.00  0.00    +0.190 C 
ATOM     33  C   UNL     1       7.778   4.066  24.110  0.00  0.00    +0.121 C 
ATOM     34  C   UNL     1       7.035   4.533  22.816  0.00  0.00    +0.104 C 
ATOM     35  C   UNL     1       5.681   5.192  23.075  0.00  0.00    +0.045 C 
ATOM     36  C   UNL     1       6.841   3.284  21.920  0.00  0.00    +0.199 C 
ATOM     37  O   UNL     1       8.037   2.570  21.632  0.00  0.00    -0.346 OA
BRANCH  33  38
ATOM     38  N   UNL     1       7.913   5.113  25.155  0.00  0.00    -0.311 NA
ATOM     39  H   UNL     1       7.329   5.910  24.902  0.00  0.00    +0.122 HD
ATOM     40  C   UNL     1       7.466   4.625  26.458  0.00  0.00    +0.101 C 
ENDBRANCH  33  38
BRANCH  32  41
ATOM     41  O   UNL     1      10.037   4.424  23.072  0.00  0.00    -0.385 OA
ATOM     42  H   UNL     1      10.161   5.124  23.752  0.00  0.00    +0.210 HD
ENDBRANCH  32  41
BRANCH  34  43
ATOM     43  O   UNL     1       7.853   5.508  22.127  0.00  0.00    -0.385 OA
ATOM     44  H   UNL     1       7.560   5.542  21.198  0.00  0.00    +0.210 HD
ENDBRANCH  34  43
ENDBRANCH  30  31
ENDBRANCH   3  30
TORSDOF 13
ENDMDL
MODEL 7
REMARK VINA RESULT:      -6.5      2.533      4.385
REMARK  Name = 
REMARK  17 active torsions:
REMARK  status: ('A' for Active; 'I' for Inactive)
REMARK    1  A    between atoms: C_1  and  N_2
REMARK    2  A    between atoms: N_2  and  C_3
REMARK    3  A    between atoms: C_3  and  C_4
REMARK    4  A    between atoms: C_3  and  C_5
REMARK    5  A    between atoms: C_8  and  N_9
REMARK    6  A    between atoms: C_10  and  O_11
REMARK    7  A    between atoms: O_11  and  C_12
REMARK    8  A    between atoms: C_13  and  N_14
REMARK    9  A    between atoms: C_16  and  N_17
REMARK   10  A    between atoms: C_18  and  O_19
REMARK   11  A    between atoms: O_19  and  C_20
REMARK   12  A    between atoms: C_23  and  C_24
REMARK   13  A    between atoms: C_23  and  O_25
REMARK   14  A    between atoms: C_26  and  N_27
REMARK   15  A    between atoms: N_27  and  C_28
REMARK   16  A    between atoms: C_29  and  O_30
REMARK   17  A    between atoms: C_31  and  O_32
REMARK                            x       y       z     vdW  Elec       q    Type
REMARK                         _______ _______ _______ _____ _____    ______ ____
ROOT
ATOM      1  C   UNL     1       6.238  -2.170  25.436  0.00  0.00    +0.169 C 
ATOM      2  C   UNL     1       6.218  -0.632  25.575  0.00  0.00    +0.175 C 
ATOM      3  C   UNL     1       7.614  -0.009  25.264  0.00  0.00    +0.169 C 
ATOM      4  C   UNL     1       8.747  -0.655  26.115  0.00  0.00    +0.084 C 
ATOM      5  C   UNL     1       8.680  -2.194  26.079  0.00  0.00    +0.042 C 
ATOM      6  C   UNL     1       7.282  -2.718  26.440  0.00  0.00    +0.084 C 
ENDROOT
BRANCH   4   7
ATOM      7  N   UNL     1       8.801  -0.205  27.514  0.00  0.00    -0.325 NA
ATOM      8  H   UNL     1       7.909  -0.279  27.992  0.00  0.00    +0.119 HD
ATOM      9  H   UNL     1       9.499  -0.693  28.062  0.00  0.00    +0.119 HD
ENDBRANCH   4   7
BRANCH   6  10
ATOM     10  N   UNL     1       7.294  -4.180  26.590  0.00  0.00    -0.325 NA
ATOM     11  H   UNL     1       8.151  -4.486  27.043  0.00  0.00    +0.119 HD
ATOM     12  H   UNL     1       6.491  -4.521  27.092  0.00  0.00    +0.119 HD
ENDBRANCH   6  10
BRANCH   2  13
ATOM     13  O   UNL     1       5.751  -0.285  26.890  0.00  0.00    -0.387 OA
ATOM     14  H   UNL     1       4.786  -0.410  26.888  0.00  0.00    +0.210 HD
ENDBRANCH   2  13
BRANCH   1  15
ATOM     15  O   UNL     1       6.526  -2.392  24.058  0.00  0.00    -0.342 OA
BRANCH  15  18
ATOM     16  C   UNL     1       4.617  -5.457  23.947  0.00  0.00    +0.138 C 
ATOM     17  O   UNL     1       5.273  -4.250  24.353  0.00  0.00    -0.345 OA
ATOM     18  C   UNL     1       5.978  -3.502  23.354  0.00  0.00    +0.268 C 
ATOM     19  C   UNL     1       7.045  -4.394  22.651  0.00  0.00    +0.107 C 
ATOM     20  C   UNL     1       6.354  -5.640  22.097  0.00  0.00    +0.026 C 
ATOM     21  C   UNL     1       5.589  -6.377  23.190  0.00  0.00    +0.035 C 
BRANCH  19  22
ATOM     22  N   UNL     1       8.153  -4.806  23.541  0.00  0.00    -0.323 NA
ATOM     23  H   UNL     1       7.960  -4.471  24.486  0.00  0.00    +0.119 HD
ATOM     24  H   UNL     1       8.112  -5.822  23.644  0.00  0.00    +0.119 HD
ENDBRANCH  19  22
BRANCH  16  25
ATOM     25  C   UNL     1       3.234  -5.236  23.236  0.00  0.00    +0.079 C 
ATOM     26  C   UNL     1       2.180  -4.750  24.244  0.00  0.00    +0.026 C 
BRANCH  25  28
ATOM     27  C   UNL     1       1.366  -6.742  22.603  0.00  0.00    +0.101 C 
ATOM     28  N   UNL     1       2.800  -6.501  22.599  0.00  0.00    -0.314 NA
ATOM     29  H   UNL     1       3.126  -6.541  21.636  0.00  0.00    +0.122 HD
ENDBRANCH  25  28
ENDBRANCH  16  25
ENDBRANCH  15  18
ENDBRANCH   1  15
BRANCH   3  30
ATOM     30  O   UNL     1       7.435   1.395  25.457  0.00  0.00    -0.341 OA
BRANCH  30  31
ATOM     31  C   UNL     1       6.773   2.176  24.460  0.00  0.00    +0.281 C 
ATOM     32  C   UNL     1       7.638   1.957  23.201  0.00  0.00    +0.190 C 
ATOM     33  C   UNL     1       8.990   2.709  23.406  0.00  0.00    +0.121 C 
ATOM     34  C   UNL     1       8.660   4.227  23.587  0.00  0.00    +0.104 C 
ATOM     35  C   UNL     1       9.888   5.120  23.748  0.00  0.00    +0.045 C 
ATOM     36  C   UNL     1       7.757   4.355  24.840  0.00  0.00    +0.199 C 
ATOM     37  O   UNL     1       6.588   3.544  24.813  0.00  0.00    -0.346 OA
BRANCH  33  38
ATOM     38  N   UNL     1       9.976   2.417  22.334  0.00  0.00    -0.311 NA
ATOM     39  H   UNL     1      10.903   2.700  22.652  0.00  0.00    +0.122 HD
ATOM     40  C   UNL     1      10.023   0.989  22.028  0.00  0.00    +0.101 C 
ENDBRANCH  33  38
BRANCH  32  41
ATOM     41  O   UNL     1       6.941   2.319  22.005  0.00  0.00    -0.385 OA
ATOM     42  H   UNL     1       7.517   2.012  21.269  0.00  0.00    +0.210 HD
ENDBRANCH  32  41
BRANCH  34  43
ATOM     43  O   UNL     1       7.946   4.698  22.418  0.00  0.00    -0.385 OA
ATOM     44  H   UNL     1       7.469   5.510  22.666  0.00  0.00    +0.210 HD
ENDBRANCH  34  43
ENDBRANCH  30  31
ENDBRANCH   3  30
TORSDOF 13
ENDMDL
MODEL 8
REMARK VINA RESULT:      -6.4      2.766      8.959
REMARK  Name = 
REMARK  17 active torsions:
REMARK  status: ('A' for Active; 'I' for Inactive)
REMARK    1  A    between atoms: C_1  and  N_2
REMARK    2  A    between atoms: N_2  and  C_3
REMARK    3  A    between atoms: C_3  and  C_4
REMARK    4  A    between atoms: C_3  and  C_5
REMARK    5  A    between atoms: C_8  and  N_9
REMARK    6  A    between atoms: C_10  and  O_11
REMARK    7  A    between atoms: O_11  and  C_12
REMARK    8  A    between atoms: C_13  and  N_14
REMARK    9  A    between atoms: C_16  and  N_17
REMARK   10  A    between atoms: C_18  and  O_19
REMARK   11  A    between atoms: O_19  and  C_20
REMARK   12  A    between atoms: C_23  and  C_24
REMARK   13  A    between atoms: C_23  and  O_25
REMARK   14  A    between atoms: C_26  and  N_27
REMARK   15  A    between atoms: N_27  and  C_28
REMARK   16  A    between atoms: C_29  and  O_30
REMARK   17  A    between atoms: C_31  and  O_32
REMARK                            x       y       z     vdW  Elec       q    Type
REMARK                         _______ _______ _______ _____ _____    ______ ____
ROOT
ATOM      1  C   UNL     1       7.879  -1.365  22.916  0.00  0.00    +0.169 C 
ATOM      2  C   UNL     1       6.892  -2.312  23.633  0.00  0.00    +0.175 C 
ATOM      3  C   UNL     1       7.502  -2.886  24.949  0.00  0.00    +0.169 C 
ATOM      4  C   UNL     1       8.884  -3.561  24.708  0.00  0.00    +0.084 C 
ATOM      5  C   UNL     1       9.820  -2.664  23.875  0.00  0.00    +0.042 C 
ATOM      6  C   UNL     1       9.151  -2.181  22.580  0.00  0.00    +0.084 C 
ENDROOT
BRANCH   4   7
ATOM      7  N   UNL     1       8.820  -4.897  24.094  0.00  0.00    -0.325 NA
ATOM      8  H   UNL     1       7.910  -5.112  23.702  0.00  0.00    +0.119 HD
ATOM      9  H   UNL     1       9.520  -5.039  23.376  0.00  0.00    +0.119 HD
ENDBRANCH   4   7
BRANCH   6  10
ATOM     10  N   UNL     1      10.121  -1.495  21.715  0.00  0.00    -0.325 NA
ATOM     11  H   UNL     1       9.651  -0.834  21.103  0.00  0.00    +0.119 HD
ATOM     12  H   UNL     1      10.845  -1.034  22.241  0.00  0.00    +0.119 HD
ENDBRANCH   6  10
BRANCH   2  13
ATOM     13  O   UNL     1       6.490  -3.350  22.723  0.00  0.00    -0.387 OA
ATOM     14  H   UNL     1       6.848  -3.113  21.850  0.00  0.00    +0.210 HD
ENDBRANCH   2  13
BRANCH   1  15
ATOM     15  O   UNL     1       8.056  -0.286  23.830  0.00  0.00    -0.342 OA
BRANCH  15  18
ATOM     16  C   UNL     1       8.332   3.265  24.428  0.00  0.00    +0.138 C 
ATOM     17  O   UNL     1       8.378   1.838  24.533  0.00  0.00    -0.345 OA
ATOM     18  C   UNL     1       7.900   1.068  23.421  0.00  0.00    +0.268 C 
ATOM     19  C   UNL     1       6.432   1.459  23.075  0.00  0.00    +0.107 C 
ATOM     20  C   UNL     1       6.369   2.968  22.837  0.00  0.00    +0.026 C 
ATOM     21  C   UNL     1       6.923   3.737  24.030  0.00  0.00    +0.035 C 
BRANCH  19  22
ATOM     22  N   UNL     1       5.456   1.090  24.125  0.00  0.00    -0.323 NA
ATOM     23  H   UNL     1       4.846   0.356  23.765  0.00  0.00    +0.119 HD
ATOM     24  H   UNL     1       5.966   0.619  24.875  0.00  0.00    +0.119 HD
ENDBRANCH  19  22
BRANCH  16  25
ATOM     25  C   UNL     1       9.497   3.892  23.583  0.00  0.00    +0.079 C 
ATOM     26  C   UNL     1      10.707   2.945  23.544  0.00  0.00    +0.026 C 
BRANCH  25  28
ATOM     27  C   UNL     1       9.409   6.368  23.435  0.00  0.00    +0.101 C 
ATOM     28  N   UNL     1       9.879   5.200  24.163  0.00  0.00    -0.314 NA
ATOM     29  H   UNL     1       9.547   5.270  25.123  0.00  0.00    +0.122 HD
ENDBRANCH  25  28
ENDBRANCH  16  25
ENDBRANCH  15  18
ENDBRANCH   1  15
BRANCH   3  30
ATOM     30  O   UNL     1       6.488  -3.747  25.472  0.00  0.00    -0.341 OA
BRANCH  30  31
ATOM     31  C   UNL     1       6.549  -4.181  26.832  0.00  0.00    +0.281 C 
ATOM     32  C   UNL     1       6.204  -5.683  26.743  0.00  0.00    +0.190 C 
ATOM     33  C   UNL     1       4.689  -5.812  26.393  0.00  0.00    +0.121 C 
ATOM     34  C   UNL     1       3.882  -5.131  27.546  0.00  0.00    +0.104 C 
ATOM     35  C   UNL     1       2.365  -5.216  27.384  0.00  0.00    +0.045 C 
ATOM     36  C   UNL     1       4.316  -3.645  27.597  0.00  0.00    +0.199 C 
ATOM     37  O   UNL     1       5.718  -3.441  27.722  0.00  0.00    -0.346 OA
BRANCH  33  38
ATOM     38  N   UNL     1       4.285  -7.211  26.102  0.00  0.00    -0.311 NA
ATOM     39  H   UNL     1       3.508  -7.466  26.711  0.00  0.00    +0.122 HD
ATOM     40  C   UNL     1       3.837  -7.359  24.718  0.00  0.00    +0.101 C 
ENDBRANCH  33  38
BRANCH  32  41
ATOM     41  O   UNL     1       6.596  -6.391  27.923  0.00  0.00    -0.385 OA
ATOM     42  H   UNL     1       6.264  -7.308  27.795  0.00  0.00    +0.210 HD
ENDBRANCH  32  41
BRANCH  34  43
ATOM     43  O   UNL     1       4.208  -5.780  28.799  0.00  0.00    -0.385 OA
ATOM     44  H   UNL     1       4.931  -5.278  29.216  0.00  0.00    +0.210 HD
ENDBRANCH  34  43
ENDBRANCH  30  31
ENDBRANCH   3  30
TORSDOF 13
ENDMDL
MODEL 9
REMARK VINA RESULT:      -6.4      1.564      1.879
REMARK  Name = 
REMARK  17 active torsions:
REMARK  status: ('A' for Active; 'I' for Inactive)
REMARK    1  A    between atoms: C_1  and  N_2
REMARK    2  A    between atoms: N_2  and  C_3
REMARK    3  A    between atoms: C_3  and  C_4
REMARK    4  A    between atoms: C_3  and  C_5
REMARK    5  A    between atoms: C_8  and  N_9
REMARK    6  A    between atoms: C_10  and  O_11
REMARK    7  A    between atoms: O_11  and  C_12
REMARK    8  A    between atoms: C_13  and  N_14
REMARK    9  A    between atoms: C_16  and  N_17
REMARK   10  A    between atoms: C_18  and  O_19
REMARK   11  A    between atoms: O_19  and  C_20
REMARK   12  A    between atoms: C_23  and  C_24
REMARK   13  A    between atoms: C_23  and  O_25
REMARK   14  A    between atoms: C_26  and  N_27
REMARK   15  A    between atoms: N_27  and  C_28
REMARK   16  A    between atoms: C_29  and  O_30
REMARK   17  A    between atoms: C_31  and  O_32
REMARK                            x       y       z     vdW  Elec       q    Type
REMARK                         _______ _______ _______ _____ _____    ______ ____
ROOT
ATOM      1  C   UNL     1       8.760  -0.640  23.789  0.00  0.00    +0.169 C 
ATOM      2  C   UNL     1       8.343   0.825  24.049  0.00  0.00    +0.175 C 
ATOM      3  C   UNL     1       7.888   1.533  22.737  0.00  0.00    +0.169 C 
ATOM      4  C   UNL     1       8.958   1.425  21.612  0.00  0.00    +0.084 C 
ATOM      5  C   UNL     1       9.470  -0.019  21.446  0.00  0.00    +0.042 C 
ATOM      6  C   UNL     1       9.935  -0.620  22.781  0.00  0.00    +0.084 C 
ENDROOT
BRANCH   4   7
ATOM      7  N   UNL     1      10.107   2.332  21.763  0.00  0.00    -0.325 NA
ATOM      8  H   UNL     1      10.440   2.704  20.880  0.00  0.00    +0.119 HD
ATOM      9  H   UNL     1       9.922   3.107  22.388  0.00  0.00    +0.119 HD
ENDBRANCH   4   7
BRANCH   6  10
ATOM     10  N   UNL     1      10.596  -1.915  22.568  0.00  0.00    -0.325 NA
ATOM     11  H   UNL     1       9.921  -2.673  22.609  0.00  0.00    +0.119 HD
ATOM     12  H   UNL     1      11.108  -1.947  21.702  0.00  0.00    +0.119 HD
ENDBRANCH   6  10
BRANCH   2  13
ATOM     13  O   UNL     1       9.429   1.516  24.691  0.00  0.00    -0.387 OA
ATOM     14  H   UNL     1      10.169   1.523  24.061  0.00  0.00    +0.210 HD
ENDBRANCH   2  13
BRANCH   1  15
ATOM     15  O   UNL     1       7.564  -1.269  23.337  0.00  0.00    -0.342 OA
BRANCH  15  18
ATOM     16  C   UNL     1       6.779  -2.757  26.533  0.00  0.00    +0.138 C 
ATOM     17  O   UNL     1       7.297  -1.937  25.480  0.00  0.00    -0.345 OA
ATOM     18  C   UNL     1       6.878  -2.224  24.139  0.00  0.00    +0.268 C 
ATOM     19  C   UNL     1       7.194  -3.704  23.771  0.00  0.00    +0.107 C 
ATOM     20  C   UNL     1       6.551  -4.618  24.814  0.00  0.00    +0.026 C 
ATOM     21  C   UNL     1       6.999  -4.246  26.222  0.00  0.00    +0.035 C 
BRANCH  19  22
ATOM     22  N   UNL     1       8.642  -3.999  23.691  0.00  0.00    -0.323 NA
ATOM     23  H   UNL     1       8.798  -4.968  23.974  0.00  0.00    +0.119 HD
ATOM     24  H   UNL     1       8.908  -4.002  22.705  0.00  0.00    +0.119 HD
ENDBRANCH  19  22
BRANCH  16  25
ATOM     25  C   UNL     1       5.322  -2.389  26.986  0.00  0.00    +0.079 C 
ATOM     26  C   UNL     1       5.278  -0.965  27.564  0.00  0.00    +0.026 C 
BRANCH  25  28
ATOM     27  C   UNL     1       3.971  -2.844  29.017  0.00  0.00    +0.101 C 
ATOM     28  N   UNL     1       4.853  -3.372  27.989  0.00  0.00    -0.314 NA
ATOM     29  H   UNL     1       4.378  -4.146  27.530  0.00  0.00    +0.122 HD
ENDBRANCH  25  28
ENDBRANCH  16  25
ENDBRANCH  15  18
ENDBRANCH   1  15
BRANCH   3  30
ATOM     30  O   UNL     1       7.561   2.865  23.140  0.00  0.00    -0.341 OA
BRANCH  30  31
ATOM     31  C   UNL     1       6.933   3.758  22.218  0.00  0.00    +0.281 C 
ATOM     32  C   UNL     1       7.668   5.094  22.457  0.00  0.00    +0.190 C 
ATOM     33  C   UNL     1       7.228   5.646  23.848  0.00  0.00    +0.121 C 
ATOM     34  C   UNL     1       5.682   5.873  23.795  0.00  0.00    +0.104 C 
ATOM     35  C   UNL     1       5.091   6.467  25.072  0.00  0.00    +0.045 C 
ATOM     36  C   UNL     1       5.024   4.500  23.509  0.00  0.00    +0.199 C 
ATOM     37  O   UNL     1       5.517   3.837  22.350  0.00  0.00    -0.346 OA
BRANCH  33  38
ATOM     38  N   UNL     1       8.011   6.837  24.266  0.00  0.00    -0.311 NA
ATOM     39  H   UNL     1       7.408   7.456  24.808  0.00  0.00    +0.122 HD
ATOM     40  C   UNL     1       9.143   6.461  25.110  0.00  0.00    +0.101 C 
ENDBRANCH  33  38
BRANCH  32  41
ATOM     41  O   UNL     1       7.476   6.009  21.375  0.00  0.00    -0.385 OA
ATOM     42  H   UNL     1       6.541   6.306  21.452  0.00  0.00    +0.210 HD
ENDBRANCH  32  41
BRANCH  34  43
ATOM     43  O   UNL     1       5.376   6.795  22.721  0.00  0.00    -0.385 OA
ATOM     44  H   UNL     1       6.133   6.802  22.108  0.00  0.00    +0.210 HD
ENDBRANCH  34  43
ENDBRANCH  30  31
ENDBRANCH   3  30
TORSDOF 13
ENDMDL
