MODEL 1
REMARK VINA RESULT:      -5.9      0.000      0.000
REMARK  Name = 
REMARK  6 active torsions:
REMARK  status: ('A' for Active; 'I' for Inactive)
REMARK    1  A    between atoms: O_1  and  C_2
REMARK    2  A    between atoms: C_2  and  C_4
REMARK    3  A    between atoms: C_4  and  O_5
REMARK    4  A    between atoms: C_6  and  C_7
REMARK    5  A    between atoms: C_8  and  C_9
REMARK    6  A    between atoms: C_9  and  C_11
REMARK                            x       y       z     vdW  Elec       q    Type
REMARK                         _______ _______ _______ _____ _____    ______ ____
ROOT
ATOM      1  C   UNL     1      10.670   3.938  23.401  0.00  0.00    +0.008 C 
ATOM      2  C   UNL     1       9.387   3.557  23.530  0.00  0.00    +0.051 C 
ENDROOT
BRANCH   1   4
ATOM      3  C   UNL     1      12.391   5.690  23.901  0.00  0.00    +0.202 C 
ATOM      4  C   UNL     1      11.263   5.013  24.170  0.00  0.00    +0.053 C 
BRANCH   3   5
ATOM      5  C   UNL     1      13.296   5.411  22.738  0.00  0.00    +0.372 C 
ATOM      6  O   UNL     1      13.010   5.480  21.558  0.00  0.00    -0.242 OA
BRANCH   5   7
ATOM      7  O   UNL     1      14.490   4.956  23.195  0.00  0.00    -0.475 OA
ATOM      8  H   UNL     1      15.056   4.631  22.466  0.00  0.00    +0.296 HD
ENDBRANCH   5   7
ENDBRANCH   3   5
BRANCH   3   9
ATOM      9  O   UNL     1      12.771   6.719  24.764  0.00  0.00    -0.501 OA
ATOM     10  H   UNL     1      11.942   7.116  25.097  0.00  0.00    +0.292 HD
ENDBRANCH   3   9
ENDBRANCH   1   4
BRANCH   2  11
ATOM     11  C   UNL     1       8.878   2.453  22.668  0.00  0.00    +0.186 C 
ATOM     12  O   UNL     1       8.069   2.681  21.774  0.00  0.00    -0.287 OA
BRANCH  11  13
ATOM     13  C   UNL     1       9.345   1.051  22.897  0.00  0.00    +0.022 A 
ATOM     14  C   UNL     1       9.372   0.593  24.227  0.00  0.00    +0.012 A 
ATOM     15  C   UNL     1       9.768  -0.711  24.527  0.00  0.00    +0.001 A 
ATOM     16  C   UNL     1      10.147  -1.574  23.505  0.00  0.00    +0.000 A 
ATOM     17  C   UNL     1      10.128  -1.135  22.182  0.00  0.00    +0.001 A 
ATOM     18  C   UNL     1       9.725   0.170  21.876  0.00  0.00    +0.012 A 
ENDBRANCH  11  13
ENDBRANCH   2  11
TORSDOF 6
ENDMDL
MODEL 2
REMARK VINA RESULT:      -5.9      4.744      8.480
REMARK  Name = 
REMARK  6 active torsions:
REMARK  status: ('A' for Active; 'I' for Inactive)
REMARK    1  A    between atoms: O_1  and  C_2
REMARK    2  A    between atoms: C_2  and  C_4
REMARK    3  A    between atoms: C_4  and  O_5
REMARK    4  A    between atoms: C_6  and  C_7
REMARK    5  A    between atoms: C_8  and  C_9
REMARK    6  A    between atoms: C_9  and  C_11
REMARK                            x       y       z     vdW  Elec       q    Type
REMARK                         _______ _______ _______ _____ _____    ______ ____
ROOT
ATOM      1  C   UNL     1       7.363  -2.573  22.492  0.00  0.00    +0.008 C 
ATOM      2  C   UNL     1       8.220  -2.430  23.518  0.00  0.00    +0.051 C 
ENDROOT
BRANCH   1   4
ATOM      3  C   UNL     1       5.564  -4.309  22.327  0.00  0.00    +0.202 C 
ATOM      4  C   UNL     1       6.017  -3.086  22.644  0.00  0.00    +0.053 C 
BRANCH   3   5
ATOM      5  C   UNL     1       6.390  -5.387  21.691  0.00  0.00    +0.372 C 
ATOM      6  O   UNL     1       7.315  -5.992  22.198  0.00  0.00    -0.242 OA
BRANCH   5   7
ATOM      7  O   UNL     1       6.022  -5.530  20.393  0.00  0.00    -0.475 OA
ATOM      8  H   UNL     1       6.674  -6.058  19.888  0.00  0.00    +0.296 HD
ENDBRANCH   5   7
ENDBRANCH   3   5
BRANCH   3   9
ATOM      9  O   UNL     1       4.226  -4.611  22.586  0.00  0.00    -0.501 OA
ATOM     10  H   UNL     1       3.735  -3.768  22.507  0.00  0.00    +0.292 HD
ENDBRANCH   3   9
ENDBRANCH   1   4
BRANCH   2  11
ATOM     11  C   UNL     1       9.590  -1.915  23.239  0.00  0.00    +0.186 C 
ATOM     12  O   UNL     1      10.538  -2.687  23.129  0.00  0.00    -0.287 OA
BRANCH  11  13
ATOM     13  C   UNL     1       9.822  -0.443  23.102  0.00  0.00    +0.022 A 
ATOM     14  C   UNL     1      10.223   0.252  24.256  0.00  0.00    +0.012 A 
ATOM     15  C   UNL     1      10.487   1.623  24.211  0.00  0.00    +0.001 A 
ATOM     16  C   UNL     1      10.349   2.317  23.013  0.00  0.00    +0.000 A 
ATOM     17  C   UNL     1       9.950   1.641  21.862  0.00  0.00    +0.001 A 
ATOM     18  C   UNL     1       9.691   0.266  21.901  0.00  0.00    +0.012 A 
ENDBRANCH  11  13
ENDBRANCH   2  11
TORSDOF 6
ENDMDL
MODEL 3
REMARK VINA RESULT:      -5.8      4.070      6.027
REMARK  Name = 
REMARK  6 active torsions:
REMARK  status: ('A' for Active; 'I' for Inactive)
REMARK    1  A    between atoms: O_1  and  C_2
REMARK    2  A    between atoms: C_2  and  C_4
REMARK    3  A    between atoms: C_4  and  O_5
REMARK    4  A    between atoms: C_6  and  C_7
REMARK    5  A    between atoms: C_8  and  C_9
REMARK    6  A    between atoms: C_9  and  C_11
REMARK                            x       y       z     vdW  Elec       q    Type
REMARK                         _______ _______ _______ _____ _____    ______ ____
ROOT
ATOM      1  C   UNL     1       9.729  -1.403  22.495  0.00  0.00    +0.008 C 
ATOM      2  C   UNL     1       8.595  -1.966  22.948  0.00  0.00    +0.051 C 
ENDROOT
BRANCH   1   4
ATOM      3  C   UNL     1      10.063   1.078  22.381  0.00  0.00    +0.202 C 
ATOM      4  C   UNL     1       9.770  -0.114  21.836  0.00  0.00    +0.053 C 
BRANCH   3   5
ATOM      5  C   UNL     1      10.365   1.301  23.834  0.00  0.00    +0.372 C 
ATOM      6  O   UNL     1      11.304   0.852  24.460  0.00  0.00    -0.242 OA
BRANCH   5   7
ATOM      7  O   UNL     1       9.356   2.011  24.399  0.00  0.00    -0.475 OA
ATOM      8  H   UNL     1       9.158   1.699  25.305  0.00  0.00    +0.296 HD
ENDBRANCH   5   7
ENDBRANCH   3   5
BRANCH   3   9
ATOM      9  O   UNL     1      10.075   2.203  21.555  0.00  0.00    -0.501 OA
ATOM     10  H   UNL     1      10.091   2.979  22.150  0.00  0.00    +0.292 HD
ENDBRANCH   3   9
ENDBRANCH   1   4
BRANCH   2  11
ATOM     11  C   UNL     1       8.669  -3.309  23.589  0.00  0.00    +0.186 C 
ATOM     12  O   UNL     1       9.674  -3.652  24.205  0.00  0.00    -0.287 OA
BRANCH  11  13
ATOM     13  C   UNL     1       7.518  -4.257  23.474  0.00  0.00    +0.022 A 
ATOM     14  C   UNL     1       7.230  -4.764  22.195  0.00  0.00    +0.012 A 
ATOM     15  C   UNL     1       6.189  -5.675  22.003  0.00  0.00    +0.001 A 
ATOM     16  C   UNL     1       5.421  -6.088  23.086  0.00  0.00    +0.000 A 
ATOM     17  C   UNL     1       5.693  -5.593  24.360  0.00  0.00    +0.001 A 
ATOM     18  C   UNL     1       6.739  -4.685  24.558  0.00  0.00    +0.012 A 
ENDBRANCH  11  13
ENDBRANCH   2  11
TORSDOF 6
ENDMDL
MODEL 4
REMARK VINA RESULT:      -5.7      4.521      7.743
REMARK  Name = 
REMARK  6 active torsions:
REMARK  status: ('A' for Active; 'I' for Inactive)
REMARK    1  A    between atoms: O_1  and  C_2
REMARK    2  A    between atoms: C_2  and  C_4
REMARK    3  A    between atoms: C_4  and  O_5
REMARK    4  A    between atoms: C_6  and  C_7
REMARK    5  A    between atoms: C_8  and  C_9
REMARK    6  A    between atoms: C_9  and  C_11
REMARK                            x       y       z     vdW  Elec       q    Type
REMARK                         _______ _______ _______ _____ _____    ______ ____
ROOT
ATOM      1  C   UNL     1       8.606  -2.217  24.686  0.00  0.00    +0.008 C 
ATOM      2  C   UNL     1       9.865  -2.004  24.264  0.00  0.00    +0.051 C 
ENDROOT
BRANCH   1   4
ATOM      3  C   UNL     1       8.535  -4.341  26.013  0.00  0.00    +0.202 C 
ATOM      4  C   UNL     1       8.279  -3.035  25.836  0.00  0.00    +0.053 C 
BRANCH   3   5
ATOM      5  C   UNL     1       9.188  -5.229  24.996  0.00  0.00    +0.372 C 
ATOM      6  O   UNL     1       8.699  -5.631  23.958  0.00  0.00    -0.242 OA
BRANCH   5   7
ATOM      7  O   UNL     1      10.404  -5.620  25.454  0.00  0.00    -0.475 OA
ATOM      8  H   UNL     1      10.474  -6.595  25.504  0.00  0.00    +0.296 HD
ENDBRANCH   5   7
ENDBRANCH   3   5
BRANCH   3   9
ATOM      9  O   UNL     1       8.159  -4.935  27.219  0.00  0.00    -0.501 OA
ATOM     10  H   UNL     1       8.378  -4.290  27.921  0.00  0.00    +0.292 HD
ENDBRANCH   3   9
ENDBRANCH   1   4
BRANCH   2  11
ATOM     11  C   UNL     1      10.081  -1.163  23.053  0.00  0.00    +0.186 C 
ATOM     12  O   UNL     1      10.559  -1.649  22.032  0.00  0.00    -0.287 OA
BRANCH  11  13
ATOM     13  C   UNL     1       9.725   0.290  23.078  0.00  0.00    +0.022 A 
ATOM     14  C   UNL     1       9.009   0.794  21.977  0.00  0.00    +0.012 A 
ATOM     15  C   UNL     1       8.614   2.132  21.932  0.00  0.00    +0.001 A 
ATOM     16  C   UNL     1       8.931   2.985  22.984  0.00  0.00    +0.000 A 
ATOM     17  C   UNL     1       9.642   2.501  24.080  0.00  0.00    +0.001 A 
ATOM     18  C   UNL     1      10.035   1.158  24.133  0.00  0.00    +0.012 A 
ENDBRANCH  11  13
ENDBRANCH   2  11
TORSDOF 6
ENDMDL
MODEL 5
REMARK VINA RESULT:      -5.6      4.757      8.328
REMARK  Name = 
REMARK  6 active torsions:
REMARK  status: ('A' for Active; 'I' for Inactive)
REMARK    1  A    between atoms: O_1  and  C_2
REMARK    2  A    between atoms: C_2  and  C_4
REMARK    3  A    between atoms: C_4  and  O_5
REMARK    4  A    between atoms: C_6  and  C_7
REMARK    5  A    between atoms: C_8  and  C_9
REMARK    6  A    between atoms: C_9  and  C_11
REMARK                            x       y       z     vdW  Elec       q    Type
REMARK                         _______ _______ _______ _____ _____    ______ ____
ROOT
ATOM      1  C   UNL     1       8.773  -2.945  24.793  0.00  0.00    +0.008 C 
ATOM      2  C   UNL     1       9.819  -2.768  23.966  0.00  0.00    +0.051 C 
ENDROOT
BRANCH   1   4
ATOM      3  C   UNL     1       7.899  -4.823  26.202  0.00  0.00    +0.202 C 
ATOM      4  C   UNL     1       8.790  -3.861  25.914  0.00  0.00    +0.053 C 
BRANCH   3   5
ATOM      5  C   UNL     1       6.656  -5.099  25.409  0.00  0.00    +0.372 C 
ATOM      6  O   UNL     1       6.595  -5.544  24.280  0.00  0.00    -0.242 OA
BRANCH   5   7
ATOM      7  O   UNL     1       5.573  -4.675  26.108  0.00  0.00    -0.475 OA
ATOM      8  H   UNL     1       5.054  -5.425  26.463  0.00  0.00    +0.296 HD
ENDBRANCH   5   7
ENDBRANCH   3   5
BRANCH   3   9
ATOM      9  O   UNL     1       8.121  -5.622  27.324  0.00  0.00    -0.501 OA
ATOM     10  H   UNL     1       9.049  -5.467  27.591  0.00  0.00    +0.292 HD
ENDBRANCH   3   9
ENDBRANCH   1   4
BRANCH   2  11
ATOM     11  C   UNL     1       9.680  -1.815  22.829  0.00  0.00    +0.186 C 
ATOM     12  O   UNL     1       9.321  -2.210  21.724  0.00  0.00    -0.287 OA
BRANCH  11  13
ATOM     13  C   UNL     1       9.989  -0.365  23.027  0.00  0.00    +0.022 A 
ATOM     14  C   UNL     1       9.778   0.490  21.930  0.00  0.00    +0.012 A 
ATOM     15  C   UNL     1      10.017   1.862  22.036  0.00  0.00    +0.001 A 
ATOM     16  C   UNL     1      10.472   2.397  23.236  0.00  0.00    +0.000 A 
ATOM     17  C   UNL     1      10.687   1.562  24.331  0.00  0.00    +0.001 A 
ATOM     18  C   UNL     1      10.444   0.187  24.231  0.00  0.00    +0.012 A 
ENDBRANCH  11  13
ENDBRANCH   2  11
TORSDOF 6
ENDMDL
MODEL 6
REMARK VINA RESULT:      -5.5      4.848      8.772
REMARK  Name = 
REMARK  6 active torsions:
REMARK  status: ('A' for Active; 'I' for Inactive)
REMARK    1  A    between atoms: O_1  and  C_2
REMARK    2  A    between atoms: C_2  and  C_4
REMARK    3  A    between atoms: C_4  and  O_5
REMARK    4  A    between atoms: C_6  and  C_7
REMARK    5  A    between atoms: C_8  and  C_9
REMARK    6  A    between atoms: C_9  and  C_11
REMARK                            x       y       z     vdW  Elec       q    Type
REMARK                         _______ _______ _______ _____ _____    ______ ____
ROOT
ATOM      1  C   UNL     1       7.826  -3.991  23.960  0.00  0.00    +0.008 C 
ATOM      2  C   UNL     1       8.781  -3.127  23.575  0.00  0.00    +0.051 C 
ENDROOT
BRANCH   1   4
ATOM      3  C   UNL     1       6.482  -5.506  22.484  0.00  0.00    +0.202 C 
ATOM      4  C   UNL     1       7.541  -5.227  23.261  0.00  0.00    +0.053 C 
BRANCH   3   5
ATOM      5  C   UNL     1       5.339  -4.568  22.231  0.00  0.00    +0.372 C 
ATOM      6  O   UNL     1       4.231  -4.618  22.728  0.00  0.00    -0.242 OA
BRANCH   5   7
ATOM      7  O   UNL     1       5.687  -3.686  21.261  0.00  0.00    -0.475 OA
ATOM      8  H   UNL     1       6.251  -4.103  20.578  0.00  0.00    +0.296 HD
ENDBRANCH   5   7
ENDBRANCH   3   5
BRANCH   3   9
ATOM      9  O   UNL     1       6.416  -6.760  21.874  0.00  0.00    -0.501 OA
ATOM     10  H   UNL     1       6.207  -6.594  20.933  0.00  0.00    +0.292 HD
ENDBRANCH   3   9
ENDBRANCH   1   4
BRANCH   2  11
ATOM     11  C   UNL     1       8.969  -1.873  24.358  0.00  0.00    +0.186 C 
ATOM     12  O   UNL     1       8.735  -1.848  25.563  0.00  0.00    -0.287 OA
BRANCH  11  13
ATOM     13  C   UNL     1       9.437  -0.628  23.674  0.00  0.00    +0.022 A 
ATOM     14  C   UNL     1       9.081  -0.466  22.323  0.00  0.00    +0.012 A 
ATOM     15  C   UNL     1       9.454   0.679  21.617  0.00  0.00    +0.001 A 
ATOM     16  C   UNL     1      10.189   1.676  22.249  0.00  0.00    +0.000 A 
ATOM     17  C   UNL     1      10.551   1.529  23.587  0.00  0.00    +0.001 A 
ATOM     18  C   UNL     1      10.174   0.385  24.301  0.00  0.00    +0.012 A 
ENDBRANCH  11  13
ENDBRANCH   2  11
TORSDOF 6
ENDMDL
MODEL 7
REMARK VINA RESULT:      -5.5      3.376      5.229
REMARK  Name = 
REMARK  6 active torsions:
REMARK  status: ('A' for Active; 'I' for Inactive)
REMARK    1  A    between atoms: O_1  and  C_2
REMARK    2  A    between atoms: C_2  and  C_4
REMARK    3  A    between atoms: C_4  and  O_5
REMARK    4  A    between atoms: C_6  and  C_7
REMARK    5  A    between atoms: C_8  and  C_9
REMARK    6  A    between atoms: C_9  and  C_11
REMARK                            x       y       z     vdW  Elec       q    Type
REMARK                         _______ _______ _______ _____ _____    ______ ____
ROOT
ATOM      1  C   UNL     1       9.931  -0.382  24.158  0.00  0.00    +0.008 C 
ATOM      2  C   UNL     1       8.931  -1.263  24.336  0.00  0.00    +0.051 C 
ENDROOT
BRANCH   1   4
ATOM      3  C   UNL     1       9.482   2.052  23.770  0.00  0.00    +0.202 C 
ATOM      4  C   UNL     1       9.841   1.013  24.540  0.00  0.00    +0.053 C 
BRANCH   3   5
ATOM      5  C   UNL     1       9.143   1.958  22.312  0.00  0.00    +0.372 C 
ATOM      6  O   UNL     1       8.080   1.618  21.831  0.00  0.00    -0.242 OA
BRANCH   5   7
ATOM      7  O   UNL     1      10.253   2.214  21.574  0.00  0.00    -0.475 OA
ATOM      8  H   UNL     1      11.019   2.440  22.140  0.00  0.00    +0.296 HD
ENDBRANCH   5   7
ENDBRANCH   3   5
BRANCH   3   9
ATOM      9  O   UNL     1       9.431   3.322  24.348  0.00  0.00    -0.501 OA
ATOM     10  H   UNL     1      10.234   3.792  24.047  0.00  0.00    +0.292 HD
ENDBRANCH   3   9
ENDBRANCH   1   4
BRANCH   2  11
ATOM     11  C   UNL     1       9.127  -2.669  23.883  0.00  0.00    +0.186 C 
ATOM     12  O   UNL     1      10.230  -3.203  23.965  0.00  0.00    -0.287 OA
BRANCH  11  13
ATOM     13  C   UNL     1       7.979  -3.437  23.311  0.00  0.00    +0.022 A 
ATOM     14  C   UNL     1       7.031  -2.713  22.565  0.00  0.00    +0.012 A 
ATOM     15  C   UNL     1       5.942  -3.357  21.974  0.00  0.00    +0.001 A 
ATOM     16  C   UNL     1       5.784  -4.731  22.122  0.00  0.00    +0.000 A 
ATOM     17  C   UNL     1       6.714  -5.461  22.859  0.00  0.00    +0.001 A 
ATOM     18  C   UNL     1       7.810  -4.821  23.449  0.00  0.00    +0.012 A 
ENDBRANCH  11  13
ENDBRANCH   2  11
TORSDOF 6
ENDMDL
MODEL 8
REMARK VINA RESULT:      -5.4      4.737      8.483
REMARK  Name = 
REMARK  6 active torsions:
REMARK  status: ('A' for Active; 'I' for Inactive)
REMARK    1  A    between atoms: O_1  and  C_2
REMARK    2  A    between atoms: C_2  and  C_4
REMARK    3  A    between atoms: C_4  and  O_5
REMARK    4  A    between atoms: C_6  and  C_7
REMARK    5  A    between atoms: C_8  and  C_9
REMARK    6  A    between atoms: C_9  and  C_11
REMARK                            x       y       z     vdW  Elec       q    Type
REMARK                         _______ _______ _______ _____ _____    ______ ____
ROOT
ATOM      1  C   UNL     1       7.604  -3.517  23.239  0.00  0.00    +0.008 C 
ATOM      2  C   UNL     1       8.297  -2.562  22.593  0.00  0.00    +0.051 C 
ENDROOT
BRANCH   1   4
ATOM      3  C   UNL     1       5.147  -3.993  23.336  0.00  0.00    +0.202 C 
ATOM      4  C   UNL     1       6.354  -4.061  22.753  0.00  0.00    +0.053 C 
BRANCH   3   5
ATOM      5  C   UNL     1       4.877  -3.357  24.667  0.00  0.00    +0.372 C 
ATOM      6  O   UNL     1       4.634  -2.185  24.880  0.00  0.00    -0.242 OA
BRANCH   5   7
ATOM      7  O   UNL     1       5.047  -4.278  25.649  0.00  0.00    -0.475 OA
ATOM      8  H   UNL     1       5.805  -4.869  25.463  0.00  0.00    +0.296 HD
ENDBRANCH   5   7
ENDBRANCH   3   5
BRANCH   3   9
ATOM      9  O   UNL     1       4.056  -4.563  22.677  0.00  0.00    -0.501 OA
ATOM     10  H   UNL     1       3.408  -4.795  23.372  0.00  0.00    +0.292 HD
ENDBRANCH   3   9
ENDBRANCH   1   4
BRANCH   2  11
ATOM     11  C   UNL     1       9.561  -2.059  23.201  0.00  0.00    +0.186 C 
ATOM     12  O   UNL     1      10.344  -2.833  23.743  0.00  0.00    -0.287 OA
BRANCH  11  13
ATOM     13  C   UNL     1       9.879  -0.598  23.163  0.00  0.00    +0.022 A 
ATOM     14  C   UNL     1       9.603   0.087  21.966  0.00  0.00    +0.012 A 
ATOM     15  C   UNL     1       9.845   1.458  21.854  0.00  0.00    +0.001 A 
ATOM     16  C   UNL     1      10.369   2.160  22.934  0.00  0.00    +0.000 A 
ATOM     17  C   UNL     1      10.650   1.494  24.125  0.00  0.00    +0.001 A 
ATOM     18  C   UNL     1      10.403   0.122  24.245  0.00  0.00    +0.012 A 
ENDBRANCH  11  13
ENDBRANCH   2  11
TORSDOF 6
ENDMDL
MODEL 9
REMARK VINA RESULT:      -5.3      3.129      5.925
REMARK  Name = 
REMARK  6 active torsions:
REMARK  status: ('A' for Active; 'I' for Inactive)
REMARK    1  A    between atoms: O_1  and  C_2
REMARK    2  A    between atoms: C_2  and  C_4
REMARK    3  A    between atoms: C_4  and  O_5
REMARK    4  A    between atoms: C_6  and  C_7
REMARK    5  A    between atoms: C_8  and  C_9
REMARK    6  A    between atoms: C_9  and  C_11
REMARK                            x       y       z     vdW  Elec       q    Type
REMARK                         _______ _______ _______ _____ _____    ______ ____
ROOT
ATOM      1  C   UNL     1       8.592   1.522  21.668  0.00  0.00    +0.008 C 
ATOM      2  C   UNL     1       7.355   1.583  22.192  0.00  0.00    +0.051 C 
ENDROOT
BRANCH   1   4
ATOM      3  C   UNL     1       9.990  -0.461  22.294  0.00  0.00    +0.202 C 
ATOM      4  C   UNL     1       9.290   0.278  21.418  0.00  0.00    +0.053 C 
BRANCH   3   5
ATOM      5  C   UNL     1      10.220  -0.092  23.730  0.00  0.00    +0.372 C 
ATOM      6  O   UNL     1      11.058   0.676  24.160  0.00  0.00    -0.242 OA
BRANCH   5   7
ATOM      7  O   UNL     1       9.406  -0.834  24.521  0.00  0.00    -0.475 OA
ATOM      8  H   UNL     1       9.411  -0.515  25.446  0.00  0.00    +0.296 HD
ENDBRANCH   5   7
ENDBRANCH   3   5
BRANCH   3   9
ATOM      9  O   UNL     1      10.564  -1.653  21.850  0.00  0.00    -0.501 OA
ATOM     10  H   UNL     1      11.512  -1.460  21.701  0.00  0.00    +0.292 HD
ENDBRANCH   3   9
ENDBRANCH   1   4
BRANCH   2  11
ATOM     11  C   UNL     1       6.743   2.921  22.428  0.00  0.00    +0.186 C 
ATOM     12  O   UNL     1       5.536   3.090  22.282  0.00  0.00    -0.287 OA
BRANCH  11  13
ATOM     13  C   UNL     1       7.603   4.075  22.835  0.00  0.00    +0.022 A 
ATOM     14  C   UNL     1       7.342   5.315  22.225  0.00  0.00    +0.012 A 
ATOM     15  C   UNL     1       8.080   6.450  22.566  0.00  0.00    +0.001 A 
ATOM     16  C   UNL     1       9.089   6.361  23.519  0.00  0.00    +0.000 A 
ATOM     17  C   UNL     1       9.360   5.139  24.131  0.00  0.00    +0.001 A 
ATOM     18  C   UNL     1       8.619   4.000  23.797  0.00  0.00    +0.012 A 
ENDBRANCH  11  13
ENDBRANCH   2  11
TORSDOF 6
ENDMDL
