MODEL 1
REMARK VINA RESULT:      -7.3      0.000      0.000
REMARK  Name = 
REMARK  10 active torsions:
REMARK  status: ('A' for Active; 'I' for Inactive)
REMARK    1  A    between atoms: C_1  and  C_2
REMARK    2  A    between atoms: C_2  and  C_3
REMARK    3  A    between atoms: C_2  and  C_4
REMARK    4  A    between atoms: C_5  and  S_6
REMARK    5  A    between atoms: S_6  and  C_7
REMARK    6  A    between atoms: N_15  and  C_16
REMARK    7  A    between atoms: C_16  and  C_17
REMARK    8  A    between atoms: C_23  and  C_24
REMARK    9  A    between atoms: C_24  and  O_25
REMARK   10  A    between atoms: O_25  and  C_26
REMARK                            x       y       z     vdW  Elec       q    Type
REMARK                         _______ _______ _______ _____ _____    ______ ____
ROOT
ATOM      1  C   UNL     1       8.122  -1.775  22.730  0.00  0.00    +0.076 A 
ATOM      2  N   UNL     1       7.187  -2.638  22.222  0.00  0.00    -0.232 NA
ATOM      3  C   UNL     1       6.281  -2.829  23.154  0.00  0.00    +0.149 A 
ATOM      4  N   UNL     1       6.607  -2.101  24.295  0.00  0.00    -0.315 N 
ATOM      5  C   UNL     1       7.773  -1.395  24.014  0.00  0.00    +0.104 A 
ENDROOT
BRANCH   1   7
ATOM      6  C   UNL     1       9.183  -0.029  21.291  0.00  0.00    +0.014 C 
ATOM      7  C   UNL     1       9.289  -1.458  21.846  0.00  0.00    +0.034 C 
ATOM      8  C   UNL     1      10.591  -1.587  22.647  0.00  0.00    +0.014 C 
ENDBRANCH   1   7
BRANCH   3   9
ATOM      9  C   UNL     1       5.084  -3.718  22.981  0.00  0.00    +0.308 C 
BRANCH   9  10
ATOM     10  O   UNL     1       5.302  -4.604  21.863  0.00  0.00    -0.443 OA
BRANCH  10  11
ATOM     11  C   UNL     1       5.758  -5.833  22.195  0.00  0.00    +0.398 C 
ATOM     12  O   UNL     1       6.799  -6.351  21.813  0.00  0.00    -0.227 OA
ATOM     13  N   UNL     1       4.884  -6.466  23.009  0.00  0.00    -0.295 N 
ATOM     14  H   UNL     1       5.125  -7.379  23.373  0.00  0.00    +0.148 HD
ATOM     15  H   UNL     1       4.042  -5.991  23.310  0.00  0.00    +0.148 HD
ENDBRANCH  10  11
ENDBRANCH   9  10
ENDBRANCH   3   9
BRANCH   4  16
ATOM     16  C   UNL     1       5.969  -2.252  25.604  0.00  0.00    +0.159 C 
BRANCH  16  17
ATOM     17  C   UNL     1       6.403  -3.425  26.453  0.00  0.00    -0.025 A 
ATOM     18  C   UNL     1       7.625  -4.043  26.144  0.00  0.00    +0.025 A 
ATOM     19  C   UNL     1       7.992  -5.198  26.818  0.00  0.00    +0.111 A 
ATOM     20  N   UNL     1       7.231  -5.780  27.765  0.00  0.00    -0.263 NA
ATOM     21  C   UNL     1       6.082  -5.151  28.088  0.00  0.00    +0.111 A 
ATOM     22  C   UNL     1       5.652  -3.970  27.499  0.00  0.00    +0.025 A 
ENDBRANCH  16  17
ENDBRANCH   4  16
BRANCH   5  23
ATOM     23  S   UNL     1       8.598  -0.451  25.221  0.00  0.00    -0.070 S 
BRANCH  23  24
ATOM     24  C   UNL     1       8.771   1.188  24.529  0.00  0.00    +0.017 A 
ATOM     25  C   UNL     1       7.584   1.875  24.212  0.00  0.00    +0.035 A 
ATOM     26  C   UNL     1       7.623   3.163  23.668  0.00  0.00    +0.043 A 
ATOM     27 CL   UNL     1       6.155   3.976  23.283  0.00  0.00    -0.083 Cl
ATOM     28  C   UNL     1       8.836   3.792  23.437  0.00  0.00    +0.040 A 
ATOM     29  C   UNL     1      10.016   3.103  23.715  0.00  0.00    +0.043 A 
ATOM     30 CL   UNL     1      11.529   3.865  23.410  0.00  0.00    -0.083 Cl
ATOM     31  C   UNL     1       9.990   1.808  24.245  0.00  0.00    +0.035 A 
ENDBRANCH  23  24
ENDBRANCH   5  23
TORSDOF 8
ENDMDL
MODEL 2
REMARK VINA RESULT:      -7.2      0.377      1.707
REMARK  Name = 
REMARK  10 active torsions:
REMARK  status: ('A' for Active; 'I' for Inactive)
REMARK    1  A    between atoms: C_1  and  C_2
REMARK    2  A    between atoms: C_2  and  C_3
REMARK    3  A    between atoms: C_2  and  C_4
REMARK    4  A    between atoms: C_5  and  S_6
REMARK    5  A    between atoms: S_6  and  C_7
REMARK    6  A    between atoms: N_15  and  C_16
REMARK    7  A    between atoms: C_16  and  C_17
REMARK    8  A    between atoms: C_23  and  C_24
REMARK    9  A    between atoms: C_24  and  O_25
REMARK   10  A    between atoms: O_25  and  C_26
REMARK                            x       y       z     vdW  Elec       q    Type
REMARK                         _______ _______ _______ _____ _____    ______ ____
ROOT
ATOM      1  C   UNL     1       8.121  -1.445  22.717  0.00  0.00    +0.076 A 
ATOM      2  N   UNL     1       7.182  -2.331  22.260  0.00  0.00    -0.232 NA
ATOM      3  C   UNL     1       6.341  -2.555  23.244  0.00  0.00    +0.149 A 
ATOM      4  N   UNL     1       6.716  -1.827  24.369  0.00  0.00    -0.315 N 
ATOM      5  C   UNL     1       7.841  -1.085  24.024  0.00  0.00    +0.104 A 
ENDROOT
BRANCH   1   7
ATOM      6  C   UNL     1       9.118   0.384  21.337  0.00  0.00    +0.014 C 
ATOM      7  C   UNL     1       9.222  -1.088  21.766  0.00  0.00    +0.034 C 
ATOM      8  C   UNL     1      10.580  -1.315  22.444  0.00  0.00    +0.014 C 
ENDBRANCH   1   7
BRANCH   3   9
ATOM      9  C   UNL     1       5.160  -3.477  23.136  0.00  0.00    +0.308 C 
BRANCH   9  10
ATOM     10  O   UNL     1       5.230  -4.202  21.890  0.00  0.00    -0.443 OA
BRANCH  10  11
ATOM     11  C   UNL     1       5.579  -5.503  22.010  0.00  0.00    +0.398 C 
ATOM     12  O   UNL     1       6.581  -6.034  21.552  0.00  0.00    -0.227 OA
ATOM     13  N   UNL     1       4.641  -6.189  22.700  0.00  0.00    -0.295 N 
ATOM     14  H   UNL     1       4.799  -7.167  22.905  0.00  0.00    +0.148 HD
ATOM     15  H   UNL     1       3.834  -5.704  23.073  0.00  0.00    +0.148 HD
ENDBRANCH  10  11
ENDBRANCH   9  10
ENDBRANCH   3   9
BRANCH   4  16
ATOM     16  C   UNL     1       6.164  -2.006  25.714  0.00  0.00    +0.159 C 
BRANCH  16  17
ATOM     17  C   UNL     1       6.571  -3.252  26.467  0.00  0.00    -0.025 A 
ATOM     18  C   UNL     1       7.862  -3.759  26.248  0.00  0.00    +0.025 A 
ATOM     19  C   UNL     1       8.222  -4.969  26.822  0.00  0.00    +0.111 A 
ATOM     20  N   UNL     1       7.394  -5.705  27.589  0.00  0.00    -0.263 NA
ATOM     21  C   UNL     1       6.174  -5.184  27.832  0.00  0.00    +0.111 A 
ATOM     22  C   UNL     1       5.738  -3.963  27.336  0.00  0.00    +0.025 A 
ENDBRANCH  16  17
ENDBRANCH   4  16
BRANCH   5  23
ATOM     23  S   UNL     1       8.712  -0.127  25.188  0.00  0.00    -0.070 S 
BRANCH  23  24
ATOM     24  C   UNL     1       8.688   1.547  24.562  0.00  0.00    +0.017 A 
ATOM     25  C   UNL     1       9.930   2.124  24.234  0.00  0.00    +0.035 A 
ATOM     26  C   UNL     1      10.006   3.428  23.736  0.00  0.00    +0.043 A 
ATOM     27 CL   UNL     1      11.539   4.109  23.350  0.00  0.00    -0.083 Cl
ATOM     28  C   UNL     1       8.856   4.178  23.548  0.00  0.00    +0.040 A 
ATOM     29  C   UNL     1       7.627   3.626  23.906  0.00  0.00    +0.043 A 
ATOM     30 CL   UNL     1       6.193   4.557  23.700  0.00  0.00    -0.083 Cl
ATOM     31  C   UNL     1       7.539   2.327  24.420  0.00  0.00    +0.035 A 
ENDBRANCH  23  24
ENDBRANCH   5  23
TORSDOF 8
ENDMDL
MODEL 3
REMARK VINA RESULT:      -6.9      4.268      7.656
REMARK  Name = 
REMARK  10 active torsions:
REMARK  status: ('A' for Active; 'I' for Inactive)
REMARK    1  A    between atoms: C_1  and  C_2
REMARK    2  A    between atoms: C_2  and  C_3
REMARK    3  A    between atoms: C_2  and  C_4
REMARK    4  A    between atoms: C_5  and  S_6
REMARK    5  A    between atoms: S_6  and  C_7
REMARK    6  A    between atoms: N_15  and  C_16
REMARK    7  A    between atoms: C_16  and  C_17
REMARK    8  A    between atoms: C_23  and  C_24
REMARK    9  A    between atoms: C_24  and  O_25
REMARK   10  A    between atoms: O_25  and  C_26
REMARK                            x       y       z     vdW  Elec       q    Type
REMARK                         _______ _______ _______ _____ _____    ______ ____
ROOT
ATOM      1  C   UNL     1       8.713  -2.706  24.773  0.00  0.00    +0.076 A 
ATOM      2  N   UNL     1       9.750  -2.114  24.104  0.00  0.00    -0.232 NA
ATOM      3  C   UNL     1       9.256  -1.098  23.432  0.00  0.00    +0.149 A 
ATOM      4  N   UNL     1       7.883  -1.009  23.641  0.00  0.00    -0.315 N 
ATOM      5  C   UNL     1       7.535  -2.021  24.530  0.00  0.00    +0.104 A 
ENDROOT
BRANCH   1   7
ATOM      6  C   UNL     1       8.099  -4.074  26.772  0.00  0.00    +0.014 C 
ATOM      7  C   UNL     1       9.043  -3.933  25.567  0.00  0.00    +0.034 C 
ATOM      8  C   UNL     1       8.904  -5.174  24.677  0.00  0.00    +0.014 C 
ENDBRANCH   1   7
BRANCH   3   9
ATOM      9  C   UNL     1      10.084  -0.191  22.567  0.00  0.00    +0.308 C 
BRANCH   9  10
ATOM     10  O   UNL     1      10.658   0.855  23.380  0.00  0.00    -0.443 OA
BRANCH  10  11
ATOM     11  C   UNL     1      10.277   2.108  23.042  0.00  0.00    +0.398 C 
ATOM     12  O   UNL     1      10.053   3.032  23.812  0.00  0.00    -0.227 OA
ATOM     13  N   UNL     1      10.136   2.222  21.703  0.00  0.00    -0.295 N 
ATOM     14  H   UNL     1       9.900   3.124  21.310  0.00  0.00    +0.148 HD
ATOM     15  H   UNL     1      10.347   1.433  21.105  0.00  0.00    +0.148 HD
ENDBRANCH  10  11
ENDBRANCH   9  10
ENDBRANCH   3   9
BRANCH   4  16
ATOM     16  C   UNL     1       6.966  -0.160  22.877  0.00  0.00    +0.159 C 
BRANCH  16  17
ATOM     17  C   UNL     1       6.768   1.256  23.366  0.00  0.00    -0.025 A 
ATOM     18  C   UNL     1       6.608   2.267  22.406  0.00  0.00    +0.025 A 
ATOM     19  C   UNL     1       6.553   3.591  22.815  0.00  0.00    +0.111 A 
ATOM     20  N   UNL     1       6.651   3.977  24.102  0.00  0.00    -0.263 NA
ATOM     21  C   UNL     1       6.756   2.994  25.020  0.00  0.00    +0.111 A 
ATOM     22  C   UNL     1       6.777   1.641  24.710  0.00  0.00    +0.025 A 
ENDBRANCH  16  17
ENDBRANCH   4  16
BRANCH   5  23
ATOM     23  S   UNL     1       5.880  -2.344  24.963  0.00  0.00    -0.070 S 
BRANCH  23  24
ATOM     24  C   UNL     1       5.505  -3.960  24.295  0.00  0.00    +0.017 A 
ATOM     25  C   UNL     1       5.901  -4.208  22.966  0.00  0.00    +0.035 A 
ATOM     26  C   UNL     1       5.650  -5.443  22.362  0.00  0.00    +0.043 A 
ATOM     27 CL   UNL     1       6.139  -5.716  20.734  0.00  0.00    -0.083 Cl
ATOM     28  C   UNL     1       5.011  -6.453  23.065  0.00  0.00    +0.040 A 
ATOM     29  C   UNL     1       4.584  -6.201  24.367  0.00  0.00    +0.043 A 
ATOM     30 CL   UNL     1       3.768  -7.440  25.242  0.00  0.00    -0.083 Cl
ATOM     31  C   UNL     1       4.815  -4.963  24.978  0.00  0.00    +0.035 A 
ENDBRANCH  23  24
ENDBRANCH   5  23
TORSDOF 8
ENDMDL
MODEL 4
REMARK VINA RESULT:      -6.7      4.908      7.800
REMARK  Name = 
REMARK  10 active torsions:
REMARK  status: ('A' for Active; 'I' for Inactive)
REMARK    1  A    between atoms: C_1  and  C_2
REMARK    2  A    between atoms: C_2  and  C_3
REMARK    3  A    between atoms: C_2  and  C_4
REMARK    4  A    between atoms: C_5  and  S_6
REMARK    5  A    between atoms: S_6  and  C_7
REMARK    6  A    between atoms: N_15  and  C_16
REMARK    7  A    between atoms: C_16  and  C_17
REMARK    8  A    between atoms: C_23  and  C_24
REMARK    9  A    between atoms: C_24  and  O_25
REMARK   10  A    between atoms: O_25  and  C_26
REMARK                            x       y       z     vdW  Elec       q    Type
REMARK                         _______ _______ _______ _____ _____    ______ ____
ROOT
ATOM      1  C   UNL     1       8.043   4.152  24.339  0.00  0.00    +0.076 A 
ATOM      2  N   UNL     1       9.365   4.475  24.489  0.00  0.00    -0.232 NA
ATOM      3  C   UNL     1      10.049   3.741  23.640  0.00  0.00    +0.149 A 
ATOM      4  N   UNL     1       9.189   2.916  22.921  0.00  0.00    -0.315 N 
ATOM      5  C   UNL     1       7.895   3.202  23.343  0.00  0.00    +0.104 A 
ENDROOT
BRANCH   1   7
ATOM      6  C   UNL     1       7.164   4.250  26.676  0.00  0.00    +0.014 C 
ATOM      7  C   UNL     1       7.078   4.837  25.258  0.00  0.00    +0.034 C 
ATOM      8  C   UNL     1       7.401   6.336  25.317  0.00  0.00    +0.014 C 
ENDBRANCH   1   7
BRANCH   3   9
ATOM      9  C   UNL     1      11.543   3.805  23.500  0.00  0.00    +0.308 C 
BRANCH   9  10
ATOM     10  O   UNL     1      11.888   4.758  22.473  0.00  0.00    -0.443 OA
BRANCH  10  11
ATOM     11  C   UNL     1      12.970   5.521  22.749  0.00  0.00    +0.398 C 
ATOM     12  O   UNL     1      13.974   5.639  22.059  0.00  0.00    -0.227 OA
ATOM     13  N   UNL     1      12.826   6.145  23.940  0.00  0.00    -0.295 N 
ATOM     14  H   UNL     1      13.545   6.787  24.247  0.00  0.00    +0.148 HD
ATOM     15  H   UNL     1      11.971   6.028  24.469  0.00  0.00    +0.148 HD
ENDBRANCH  10  11
ENDBRANCH   9  10
ENDBRANCH   3   9
BRANCH   4  16
ATOM     16  C   UNL     1       9.606   1.803  22.066  0.00  0.00    +0.159 C 
BRANCH  16  17
ATOM     17  C   UNL     1       9.819   0.463  22.733  0.00  0.00    -0.025 A 
ATOM     18  C   UNL     1       9.840  -0.680  21.919  0.00  0.00    +0.025 A 
ATOM     19  C   UNL     1       9.904  -1.933  22.510  0.00  0.00    +0.111 A 
ATOM     20  N   UNL     1       9.944  -2.127  23.842  0.00  0.00    -0.263 NA
ATOM     21  C   UNL     1       9.973  -1.019  24.612  0.00  0.00    +0.111 A 
ATOM     22  C   UNL     1       9.953   0.275  24.112  0.00  0.00    +0.025 A 
ENDBRANCH  16  17
ENDBRANCH   4  16
BRANCH   5  23
ATOM     23  S   UNL     1       6.517   2.298  22.783  0.00  0.00    -0.070 S 
BRANCH  23  24
ATOM     24  C   UNL     1       6.383   0.884  23.868  0.00  0.00    +0.017 A 
ATOM     25  C   UNL     1       6.442  -0.389  23.268  0.00  0.00    +0.035 A 
ATOM     26  C   UNL     1       6.348  -1.551  24.040  0.00  0.00    +0.043 A 
ATOM     27 CL   UNL     1       6.417  -3.093  23.278  0.00  0.00    -0.083 Cl
ATOM     28  C   UNL     1       6.201  -1.471  25.416  0.00  0.00    +0.040 A 
ATOM     29  C   UNL     1       6.104  -0.215  26.011  0.00  0.00    +0.043 A 
ATOM     30 CL   UNL     1       5.897  -0.104  27.717  0.00  0.00    -0.083 Cl
ATOM     31  C   UNL     1       6.182   0.955  25.248  0.00  0.00    +0.035 A 
ENDBRANCH  23  24
ENDBRANCH   5  23
TORSDOF 8
ENDMDL
MODEL 5
REMARK VINA RESULT:      -6.7      3.771      6.282
REMARK  Name = 
REMARK  10 active torsions:
REMARK  status: ('A' for Active; 'I' for Inactive)
REMARK    1  A    between atoms: C_1  and  C_2
REMARK    2  A    between atoms: C_2  and  C_3
REMARK    3  A    between atoms: C_2  and  C_4
REMARK    4  A    between atoms: C_5  and  S_6
REMARK    5  A    between atoms: S_6  and  C_7
REMARK    6  A    between atoms: N_15  and  C_16
REMARK    7  A    between atoms: C_16  and  C_17
REMARK    8  A    between atoms: C_23  and  C_24
REMARK    9  A    between atoms: C_24  and  O_25
REMARK   10  A    between atoms: O_25  and  C_26
REMARK                            x       y       z     vdW  Elec       q    Type
REMARK                         _______ _______ _______ _____ _____    ______ ____
ROOT
ATOM      1  C   UNL     1       6.278   1.525  24.379  0.00  0.00    +0.076 A 
ATOM      2  N   UNL     1       7.494   2.025  23.995  0.00  0.00    -0.232 NA
ATOM      3  C   UNL     1       8.420   1.269  24.540  0.00  0.00    +0.149 A 
ATOM      4  N   UNL     1       7.830   0.262  25.299  0.00  0.00    -0.315 N 
ATOM      5  C   UNL     1       6.452   0.403  25.170  0.00  0.00    +0.104 A 
ENDROOT
BRANCH   1   7
ATOM      6  C   UNL     1       4.520   3.177  25.029  0.00  0.00    +0.014 C 
ATOM      7  C   UNL     1       5.068   2.275  23.912  0.00  0.00    +0.034 C 
ATOM      8  C   UNL     1       5.438   3.146  22.704  0.00  0.00    +0.014 C 
ENDBRANCH   1   7
BRANCH   3   9
ATOM      9  C   UNL     1       9.893   1.495  24.355  0.00  0.00    +0.308 C 
BRANCH   9  10
ATOM     10  O   UNL     1      10.381   0.641  23.299  0.00  0.00    -0.443 OA
BRANCH  10  11
ATOM     11  C   UNL     1       9.904   0.936  22.068  0.00  0.00    +0.398 C 
ATOM     12  O   UNL     1       9.374   0.158  21.287  0.00  0.00    -0.227 OA
ATOM     13  N   UNL     1      10.115   2.238  21.771  0.00  0.00    -0.295 N 
ATOM     14  H   UNL     1       9.763   2.605  20.896  0.00  0.00    +0.148 HD
ATOM     15  H   UNL     1      10.545   2.847  22.455  0.00  0.00    +0.148 HD
ENDBRANCH  10  11
ENDBRANCH   9  10
ENDBRANCH   3   9
BRANCH   4  16
ATOM     16  C   UNL     1       8.538  -0.614  26.235  0.00  0.00    +0.159 C 
BRANCH  16  17
ATOM     17  C   UNL     1       8.807  -2.031  25.784  0.00  0.00    -0.025 A 
ATOM     18  C   UNL     1       9.163  -2.237  24.442  0.00  0.00    +0.025 A 
ATOM     19  C   UNL     1       9.292  -3.533  23.964  0.00  0.00    +0.111 A 
ATOM     20  N   UNL     1       9.088  -4.628  24.720  0.00  0.00    -0.263 NA
ATOM     21  C   UNL     1       8.794  -4.418  26.020  0.00  0.00    +0.111 A 
ATOM     22  C   UNL     1       8.685  -3.161  26.598  0.00  0.00    +0.025 A 
ENDBRANCH  16  17
ENDBRANCH   4  16
BRANCH   5  23
ATOM     23  S   UNL     1       5.332  -0.584  26.067  0.00  0.00    -0.070 S 
BRANCH  23  24
ATOM     24  C   UNL     1       5.364  -2.193  25.288  0.00  0.00    +0.017 A 
ATOM     25  C   UNL     1       5.612  -2.227  23.903  0.00  0.00    +0.035 A 
ATOM     26  C   UNL     1       5.656  -3.441  23.211  0.00  0.00    +0.043 A 
ATOM     27 CL   UNL     1       5.955  -3.451  21.515  0.00  0.00    -0.083 Cl
ATOM     28  C   UNL     1       5.464  -4.639  23.880  0.00  0.00    +0.040 A 
ATOM     29  C   UNL     1       5.182  -4.610  25.245  0.00  0.00    +0.043 A 
ATOM     30 CL   UNL     1       4.917  -6.091  26.083  0.00  0.00    -0.083 Cl
ATOM     31  C   UNL     1       5.119  -3.400  25.945  0.00  0.00    +0.035 A 
ENDBRANCH  23  24
ENDBRANCH   5  23
TORSDOF 8
ENDMDL
MODEL 6
REMARK VINA RESULT:      -6.7      3.893      6.654
REMARK  Name = 
REMARK  10 active torsions:
REMARK  status: ('A' for Active; 'I' for Inactive)
REMARK    1  A    between atoms: C_1  and  C_2
REMARK    2  A    between atoms: C_2  and  C_3
REMARK    3  A    between atoms: C_2  and  C_4
REMARK    4  A    between atoms: C_5  and  S_6
REMARK    5  A    between atoms: S_6  and  C_7
REMARK    6  A    between atoms: N_15  and  C_16
REMARK    7  A    between atoms: C_16  and  C_17
REMARK    8  A    between atoms: C_23  and  C_24
REMARK    9  A    between atoms: C_24  and  O_25
REMARK   10  A    between atoms: O_25  and  C_26
REMARK                            x       y       z     vdW  Elec       q    Type
REMARK                         _______ _______ _______ _____ _____    ______ ____
ROOT
ATOM      1  C   UNL     1       7.905  -4.078  23.303  0.00  0.00    +0.076 A 
ATOM      2  N   UNL     1       7.837  -3.145  22.304  0.00  0.00    -0.232 NA
ATOM      3  C   UNL     1       8.428  -2.056  22.742  0.00  0.00    +0.149 A 
ATOM      4  N   UNL     1       8.888  -2.250  24.040  0.00  0.00    -0.315 N 
ATOM      5  C   UNL     1       8.584  -3.562  24.393  0.00  0.00    +0.104 A 
ENDROOT
BRANCH   1   7
ATOM      6  C   UNL     1       5.807  -5.403  23.601  0.00  0.00    +0.014 C 
ATOM      7  C   UNL     1       7.237  -5.393  23.038  0.00  0.00    +0.034 C 
ATOM      8  C   UNL     1       7.179  -5.643  21.525  0.00  0.00    +0.014 C 
ENDBRANCH   1   7
BRANCH   3   9
ATOM      9  C   UNL     1       8.560  -0.798  21.932  0.00  0.00    +0.308 C 
BRANCH   9  10
ATOM     10  O   UNL     1       9.908  -0.293  22.046  0.00  0.00    -0.443 OA
BRANCH  10  11
ATOM     11  C   UNL     1       9.996   1.034  22.289  0.00  0.00    +0.398 C 
ATOM     12  O   UNL     1      10.516   1.563  23.262  0.00  0.00    -0.227 OA
ATOM     13  N   UNL     1       9.396   1.743  21.307  0.00  0.00    -0.295 N 
ATOM     14  H   UNL     1       9.430   2.753  21.339  0.00  0.00    +0.148 HD
ATOM     15  H   UNL     1       8.992   1.261  20.513  0.00  0.00    +0.148 HD
ENDBRANCH  10  11
ENDBRANCH   9  10
ENDBRANCH   3   9
BRANCH   4  16
ATOM     16  C   UNL     1       9.378  -1.195  24.930  0.00  0.00    +0.159 C 
BRANCH  16  17
ATOM     17  C   UNL     1       8.343  -0.398  25.690  0.00  0.00    -0.025 A 
ATOM     18  C   UNL     1       8.405  -0.407  27.092  0.00  0.00    +0.025 A 
ATOM     19  C   UNL     1       7.397   0.207  27.821  0.00  0.00    +0.111 A 
ATOM     20  N   UNL     1       6.339   0.820  27.257  0.00  0.00    -0.263 NA
ATOM     21  C   UNL     1       6.315   0.865  25.909  0.00  0.00    +0.111 A 
ATOM     22  C   UNL     1       7.298   0.316  25.096  0.00  0.00    +0.025 A 
ENDBRANCH  16  17
ENDBRANCH   4  16
BRANCH   5  23
ATOM     23  S   UNL     1       8.876  -4.182  25.993  0.00  0.00    -0.070 S 
BRANCH  23  24
ATOM     24  C   UNL     1       7.267  -4.375  26.747  0.00  0.00    +0.017 A 
ATOM     25  C   UNL     1       6.415  -3.255  26.726  0.00  0.00    +0.035 A 
ATOM     26  C   UNL     1       5.136  -3.315  27.291  0.00  0.00    +0.043 A 
ATOM     27 CL   UNL     1       4.119  -1.927  27.257  0.00  0.00    -0.083 Cl
ATOM     28  C   UNL     1       4.681  -4.486  27.875  0.00  0.00    +0.040 A 
ATOM     29  C   UNL     1       5.533  -5.587  27.931  0.00  0.00    +0.043 A 
ATOM     30 CL   UNL     1       4.986  -7.039  28.677  0.00  0.00    -0.083 Cl
ATOM     31  C   UNL     1       6.820  -5.534  27.384  0.00  0.00    +0.035 A 
ENDBRANCH  23  24
ENDBRANCH   5  23
TORSDOF 8
ENDMDL
MODEL 7
REMARK VINA RESULT:      -6.7      2.266      3.484
REMARK  Name = 
REMARK  10 active torsions:
REMARK  status: ('A' for Active; 'I' for Inactive)
REMARK    1  A    between atoms: C_1  and  C_2
REMARK    2  A    between atoms: C_2  and  C_3
REMARK    3  A    between atoms: C_2  and  C_4
REMARK    4  A    between atoms: C_5  and  S_6
REMARK    5  A    between atoms: S_6  and  C_7
REMARK    6  A    between atoms: N_15  and  C_16
REMARK    7  A    between atoms: C_16  and  C_17
REMARK    8  A    between atoms: C_23  and  C_24
REMARK    9  A    between atoms: C_24  and  O_25
REMARK   10  A    between atoms: O_25  and  C_26
REMARK                            x       y       z     vdW  Elec       q    Type
REMARK                         _______ _______ _______ _____ _____    ______ ____
ROOT
ATOM      1  C   UNL     1       9.218  -0.584  23.944  0.00  0.00    +0.076 A 
ATOM      2  N   UNL     1       9.589  -1.521  24.870  0.00  0.00    -0.232 NA
ATOM      3  C   UNL     1       8.489  -2.070  25.337  0.00  0.00    +0.149 A 
ATOM      4  N   UNL     1       7.375  -1.497  24.731  0.00  0.00    -0.315 N 
ATOM      5  C   UNL     1       7.840  -0.564  23.809  0.00  0.00    +0.104 A 
ENDROOT
BRANCH   1   7
ATOM      6  C   UNL     1       9.952   0.630  21.886  0.00  0.00    +0.014 C 
ATOM      7  C   UNL     1      10.322   0.212  23.318  0.00  0.00    +0.034 C 
ATOM      8  C   UNL     1      10.586   1.471  24.153  0.00  0.00    +0.014 C 
ENDBRANCH   1   7
BRANCH   3   9
ATOM      9  C   UNL     1       8.476  -3.151  26.379  0.00  0.00    +0.308 C 
BRANCH   9  10
ATOM     10  O   UNL     1       7.954  -4.367  25.804  0.00  0.00    -0.443 OA
BRANCH  10  11
ATOM     11  C   UNL     1       8.812  -5.022  24.989  0.00  0.00    +0.398 C 
ATOM     12  O   UNL     1       8.668  -5.221  23.790  0.00  0.00    -0.227 OA
ATOM     13  N   UNL     1       9.878  -5.477  25.682  0.00  0.00    -0.295 N 
ATOM     14  H   UNL     1      10.624  -5.946  25.184  0.00  0.00    +0.148 HD
ATOM     15  H   UNL     1       9.961  -5.275  26.671  0.00  0.00    +0.148 HD
ENDBRANCH  10  11
ENDBRANCH   9  10
ENDBRANCH   3   9
BRANCH   4  16
ATOM     16  C   UNL     1       5.989  -1.681  25.166  0.00  0.00    +0.159 C 
BRANCH  16  17
ATOM     17  C   UNL     1       5.215  -2.818  24.540  0.00  0.00    -0.025 A 
ATOM     18  C   UNL     1       5.650  -3.303  23.296  0.00  0.00    +0.025 A 
ATOM     19  C   UNL     1       4.889  -4.255  22.634  0.00  0.00    +0.111 A 
ATOM     20  N   UNL     1       3.734  -4.751  23.117  0.00  0.00    -0.263 NA
ATOM     21  C   UNL     1       3.351  -4.315  24.334  0.00  0.00    +0.111 A 
ATOM     22  C   UNL     1       4.066  -3.396  25.090  0.00  0.00    +0.025 A 
ENDBRANCH  16  17
ENDBRANCH   4  16
BRANCH   5  23
ATOM     23  S   UNL     1       6.764   0.475  22.919  0.00  0.00    -0.070 S 
BRANCH  23  24
ATOM     24  C   UNL     1       6.961   2.106  23.625  0.00  0.00    +0.017 A 
ATOM     25  C   UNL     1       7.087   3.180  22.723  0.00  0.00    +0.035 A 
ATOM     26  C   UNL     1       7.244   4.490  23.185  0.00  0.00    +0.043 A 
ATOM     27 CL   UNL     1       7.402   5.783  22.059  0.00  0.00    -0.083 Cl
ATOM     28  C   UNL     1       7.270   4.758  24.545  0.00  0.00    +0.040 A 
ATOM     29  C   UNL     1       7.183   3.695  25.442  0.00  0.00    +0.043 A 
ATOM     30 CL   UNL     1       7.239   4.013  27.133  0.00  0.00    -0.083 Cl
ATOM     31  C   UNL     1       7.042   2.378  24.992  0.00  0.00    +0.035 A 
ENDBRANCH  23  24
ENDBRANCH   5  23
TORSDOF 8
ENDMDL
MODEL 8
REMARK VINA RESULT:      -6.7      4.066      7.432
REMARK  Name = 
REMARK  10 active torsions:
REMARK  status: ('A' for Active; 'I' for Inactive)
REMARK    1  A    between atoms: C_1  and  C_2
REMARK    2  A    between atoms: C_2  and  C_3
REMARK    3  A    between atoms: C_2  and  C_4
REMARK    4  A    between atoms: C_5  and  S_6
REMARK    5  A    between atoms: S_6  and  C_7
REMARK    6  A    between atoms: N_15  and  C_16
REMARK    7  A    between atoms: C_16  and  C_17
REMARK    8  A    between atoms: C_23  and  C_24
REMARK    9  A    between atoms: C_24  and  O_25
REMARK   10  A    between atoms: O_25  and  C_26
REMARK                            x       y       z     vdW  Elec       q    Type
REMARK                         _______ _______ _______ _____ _____    ______ ____
ROOT
ATOM      1  C   UNL     1       8.690  -3.513  24.128  0.00  0.00    +0.076 A 
ATOM      2  N   UNL     1       9.688  -2.698  24.593  0.00  0.00    -0.232 NA
ATOM      3  C   UNL     1       9.615  -1.568  23.925  0.00  0.00    +0.149 A 
ATOM      4  N   UNL     1       8.573  -1.623  23.005  0.00  0.00    -0.315 N 
ATOM      5  C   UNL     1       7.954  -2.859  23.156  0.00  0.00    +0.104 A 
ENDROOT
BRANCH   1   7
ATOM      6  C   UNL     1       9.942  -5.250  25.417  0.00  0.00    +0.014 C 
ATOM      7  C   UNL     1       8.622  -4.889  24.718  0.00  0.00    +0.034 C 
ATOM      8  C   UNL     1       7.481  -4.954  25.741  0.00  0.00    +0.014 C 
ENDBRANCH   1   7
BRANCH   3   9
ATOM      9  C   UNL     1      10.545  -0.410  24.146  0.00  0.00    +0.308 C 
BRANCH   9  10
ATOM     10  O   UNL     1       9.897   0.575  24.979  0.00  0.00    -0.443 OA
BRANCH  10  11
ATOM     11  C   UNL     1       9.976   1.844  24.520  0.00  0.00    +0.398 C 
ATOM     12  O   UNL     1      10.818   2.290  23.752  0.00  0.00    -0.227 OA
ATOM     13  N   UNL     1       8.996   2.608  25.050  0.00  0.00    -0.295 N 
ATOM     14  H   UNL     1       8.909   3.572  24.754  0.00  0.00    +0.148 HD
ATOM     15  H   UNL     1       8.312   2.192  25.671  0.00  0.00    +0.148 HD
ENDBRANCH  10  11
ENDBRANCH   9  10
ENDBRANCH   3   9
BRANCH   4  16
ATOM     16  C   UNL     1       8.343  -0.653  21.931  0.00  0.00    +0.159 C 
BRANCH  16  17
ATOM     17  C   UNL     1       7.553   0.588  22.280  0.00  0.00    -0.025 A 
ATOM     18  C   UNL     1       7.870   1.779  21.609  0.00  0.00    +0.025 A 
ATOM     19  C   UNL     1       7.256   2.961  21.995  0.00  0.00    +0.111 A 
ATOM     20  N   UNL     1       6.360   3.040  22.997  0.00  0.00    -0.263 NA
ATOM     21  C   UNL     1       6.026   1.882  23.603  0.00  0.00    +0.111 A 
ATOM     22  C   UNL     1       6.556   0.646  23.259  0.00  0.00    +0.025 A 
ENDBRANCH  16  17
ENDBRANCH   4  16
BRANCH   5  23
ATOM     23  S   UNL     1       6.672  -3.389  22.102  0.00  0.00    -0.070 S 
BRANCH  23  24
ATOM     24  C   UNL     1       5.270  -3.717  23.162  0.00  0.00    +0.017 A 
ATOM     25  C   UNL     1       4.459  -4.817  22.822  0.00  0.00    +0.035 A 
ATOM     26  C   UNL     1       3.342  -5.150  23.595  0.00  0.00    +0.043 A 
ATOM     27 CL   UNL     1       2.364  -6.496  23.152  0.00  0.00    -0.083 Cl
ATOM     28  C   UNL     1       3.016  -4.405  24.717  0.00  0.00    +0.040 A 
ATOM     29  C   UNL     1       3.794  -3.293  25.037  0.00  0.00    +0.043 A 
ATOM     30 CL   UNL     1       3.385  -2.346  26.415  0.00  0.00    -0.083 Cl
ATOM     31  C   UNL     1       4.905  -2.941  24.263  0.00  0.00    +0.035 A 
ENDBRANCH  23  24
ENDBRANCH   5  23
TORSDOF 8
ENDMDL
MODEL 9
REMARK VINA RESULT:      -6.6      2.332      4.201
REMARK  Name = 
REMARK  10 active torsions:
REMARK  status: ('A' for Active; 'I' for Inactive)
REMARK    1  A    between atoms: C_1  and  C_2
REMARK    2  A    between atoms: C_2  and  C_3
REMARK    3  A    between atoms: C_2  and  C_4
REMARK    4  A    between atoms: C_5  and  S_6
REMARK    5  A    between atoms: S_6  and  C_7
REMARK    6  A    between atoms: N_15  and  C_16
REMARK    7  A    between atoms: C_16  and  C_17
REMARK    8  A    between atoms: C_23  and  C_24
REMARK    9  A    between atoms: C_24  and  O_25
REMARK   10  A    between atoms: O_25  and  C_26
REMARK                            x       y       z     vdW  Elec       q    Type
REMARK                         _______ _______ _______ _____ _____    ______ ____
ROOT
ATOM      1  C   UNL     1       7.671   0.194  25.816  0.00  0.00    +0.076 A 
ATOM      2  N   UNL     1       7.870  -0.871  26.653  0.00  0.00    -0.232 NA
ATOM      3  C   UNL     1       8.348  -1.857  25.928  0.00  0.00    +0.149 A 
ATOM      4  N   UNL     1       8.465  -1.461  24.599  0.00  0.00    -0.315 N 
ATOM      5  C   UNL     1       8.063  -0.131  24.529  0.00  0.00    +0.104 A 
ENDROOT
BRANCH   1   7
ATOM      6  C   UNL     1       5.608   1.594  25.990  0.00  0.00    +0.014 C 
ATOM      7  C   UNL     1       7.071   1.423  26.428  0.00  0.00    +0.034 C 
ATOM      8  C   UNL     1       7.125   1.314  27.958  0.00  0.00    +0.014 C 
ENDBRANCH   1   7
BRANCH   3   9
ATOM      9  C   UNL     1       8.699  -3.207  26.487  0.00  0.00    +0.308 C 
BRANCH   9  10
ATOM     10  O   UNL     1       7.494  -3.985  26.653  0.00  0.00    -0.443 OA
BRANCH  10  11
ATOM     11  C   UNL     1       7.696  -5.263  27.046  0.00  0.00    +0.398 C 
ATOM     12  O   UNL     1       7.147  -5.833  27.979  0.00  0.00    -0.227 OA
ATOM     13  N   UNL     1       8.634  -5.859  26.277  0.00  0.00    -0.295 N 
ATOM     14  H   UNL     1       8.848  -6.836  26.432  0.00  0.00    +0.148 HD
ATOM     15  H   UNL     1       9.050  -5.352  25.506  0.00  0.00    +0.148 HD
ENDBRANCH  10  11
ENDBRANCH   9  10
ENDBRANCH   3   9
BRANCH   4  16
ATOM     16  C   UNL     1       8.731  -2.356  23.471  0.00  0.00    +0.159 C 
BRANCH  16  17
ATOM     17  C   UNL     1       7.578  -3.192  22.966  0.00  0.00    -0.025 A 
ATOM     18  C   UNL     1       7.726  -4.588  22.969  0.00  0.00    +0.025 A 
ATOM     19  C   UNL     1       6.741  -5.377  22.394  0.00  0.00    +0.111 A 
ATOM     20  N   UNL     1       5.631  -4.879  21.818  0.00  0.00    -0.263 NA
ATOM     21  C   UNL     1       5.475  -3.540  21.865  0.00  0.00    +0.111 A 
ATOM     22  C   UNL     1       6.385  -2.673  22.454  0.00  0.00    +0.025 A 
ENDBRANCH  16  17
ENDBRANCH   4  16
BRANCH   5  23
ATOM     23  S   UNL     1       7.935   0.719  23.015  0.00  0.00    -0.070 S 
BRANCH  23  24
ATOM     24  C   UNL     1       8.630   2.341  23.303  0.00  0.00    +0.017 A 
ATOM     25  C   UNL     1       7.723   3.384  23.574  0.00  0.00    +0.035 A 
ATOM     26  C   UNL     1       8.177   4.685  23.813  0.00  0.00    +0.043 A 
ATOM     27 CL   UNL     1       7.046   5.942  24.134  0.00  0.00    -0.083 Cl
ATOM     28  C   UNL     1       9.533   4.971  23.795  0.00  0.00    +0.040 A 
ATOM     29  C   UNL     1      10.433   3.951  23.491  0.00  0.00    +0.043 A 
ATOM     30 CL   UNL     1      12.118   4.299  23.443  0.00  0.00    -0.083 Cl
ATOM     31  C   UNL     1       9.990   2.648  23.235  0.00  0.00    +0.035 A 
ENDBRANCH  23  24
ENDBRANCH   5  23
TORSDOF 8
ENDMDL
