MODEL 1
REMARK VINA RESULT:      -5.2      0.000      0.000
REMARK  Name = 
REMARK  5 active torsions:
REMARK  status: ('A' for Active; 'I' for Inactive)
REMARK    1  A    between atoms: C_2  and  N_3
REMARK    2  A    between atoms: C_2  and  C_4
REMARK    3  A    between atoms: C_2  and  C_11
REMARK    4  A    between atoms: C_4  and  C_5
REMARK    5  A    between atoms: C_11  and  C_13
REMARK                            x       y       z     vdW  Elec       q    Type
REMARK                         _______ _______ _______ _____ _____    ______ ____
ROOT
ATOM      1  C   UNL     1       9.200  -2.661  23.745  0.00  0.00    +0.123 C 
ENDROOT
BRANCH   1   2
ATOM      2  N   UNL     1       9.848  -3.779  24.472  0.00  0.00    -0.321 NA
ATOM      3  H   UNL     1      10.849  -3.778  24.278  0.00  0.00    +0.119 HD
ATOM      4  H   UNL     1       9.782  -3.581  25.474  0.00  0.00    +0.119 HD
ENDBRANCH   1   2
BRANCH   1   5
ATOM      5  C   UNL     1       8.009  -3.230  22.957  0.00  0.00    +0.165 C 
ATOM      6  O   UNL     1       7.430  -2.561  22.094  0.00  0.00    -0.294 OA
BRANCH   5   7
ATOM      7  C   UNL     1       7.573  -4.641  23.273  0.00  0.00    +0.184 C 
ATOM      8 CL   UNL     1       7.191  -5.502  21.779  0.00  0.00    -0.117 Cl
ENDBRANCH   5   7
ENDBRANCH   1   5
BRANCH   1   9
ATOM      9  C   UNL     1      10.171  -1.959  22.777  0.00  0.00    +0.061 C 
BRANCH   9  10
ATOM     10  C   UNL     1      10.180  -0.453  22.899  0.00  0.00    -0.045 A 
ATOM     11  C   UNL     1      10.606   0.168  24.081  0.00  0.00    +0.004 A 
ATOM     12  C   UNL     1      10.627   1.561  24.178  0.00  0.00    +0.000 A 
ATOM     13  C   UNL     1      10.226   2.345  23.098  0.00  0.00    +0.000 A 
ATOM     14  C   UNL     1       9.800   1.737  21.919  0.00  0.00    +0.000 A 
ATOM     15  C   UNL     1       9.778   0.345  21.821  0.00  0.00    +0.004 A 
ENDBRANCH   9  10
ENDBRANCH   1   9
TORSDOF 5
ENDMDL
MODEL 2
REMARK VINA RESULT:      -5.1      1.646      1.727
REMARK  Name = 
REMARK  5 active torsions:
REMARK  status: ('A' for Active; 'I' for Inactive)
REMARK    1  A    between atoms: C_2  and  N_3
REMARK    2  A    between atoms: C_2  and  C_4
REMARK    3  A    between atoms: C_2  and  C_11
REMARK    4  A    between atoms: C_4  and  C_5
REMARK    5  A    between atoms: C_11  and  C_13
REMARK                            x       y       z     vdW  Elec       q    Type
REMARK                         _______ _______ _______ _____ _____    ______ ____
ROOT
ATOM      1  C   UNL     1       9.287  -2.590  23.979  0.00  0.00    +0.123 C 
ENDROOT
BRANCH   1   2
ATOM      2  N   UNL     1       9.772  -3.915  24.432  0.00  0.00    -0.321 NA
ATOM      3  H   UNL     1      10.427  -4.292  23.747  0.00  0.00    +0.119 HD
ATOM      4  H   UNL     1      10.337  -3.772  25.273  0.00  0.00    +0.119 HD
ENDBRANCH   1   2
BRANCH   1   5
ATOM      5  C   UNL     1       7.905  -2.783  23.331  0.00  0.00    +0.165 C 
ATOM      6  O   UNL     1       7.768  -3.436  22.292  0.00  0.00    -0.294 OA
BRANCH   5   7
ATOM      7  C   UNL     1       6.719  -2.145  24.015  0.00  0.00    +0.184 C 
ATOM      8 CL   UNL     1       6.694  -0.411  23.680  0.00  0.00    -0.117 Cl
ENDBRANCH   5   7
ENDBRANCH   1   5
BRANCH   1   9
ATOM      9  C   UNL     1      10.245  -1.937  22.965  0.00  0.00    +0.061 C 
BRANCH   9  10
ATOM     10  C   UNL     1      10.216  -0.426  22.976  0.00  0.00    -0.045 A 
ATOM     11  C   UNL     1      10.624   0.291  24.108  0.00  0.00    +0.004 A 
ATOM     12  C   UNL     1      10.609   1.687  24.102  0.00  0.00    +0.000 A 
ATOM     13  C   UNL     1      10.191   2.379  22.966  0.00  0.00    +0.000 A 
ATOM     14  C   UNL     1       9.783   1.674  21.836  0.00  0.00    +0.000 A 
ATOM     15  C   UNL     1       9.796   0.280  21.841  0.00  0.00    +0.004 A 
ENDBRANCH   9  10
ENDBRANCH   1   9
TORSDOF 5
ENDMDL
MODEL 3
REMARK VINA RESULT:      -5.0      1.534      2.111
REMARK  Name = 
REMARK  5 active torsions:
REMARK  status: ('A' for Active; 'I' for Inactive)
REMARK    1  A    between atoms: C_2  and  N_3
REMARK    2  A    between atoms: C_2  and  C_4
REMARK    3  A    between atoms: C_2  and  C_11
REMARK    4  A    between atoms: C_4  and  C_5
REMARK    5  A    between atoms: C_11  and  C_13
REMARK                            x       y       z     vdW  Elec       q    Type
REMARK                         _______ _______ _______ _____ _____    ______ ____
ROOT
ATOM      1  C   UNL     1       8.652  -3.008  24.402  0.00  0.00    +0.123 C 
ENDROOT
BRANCH   1   2
ATOM      2  N   UNL     1       8.580  -2.660  25.841  0.00  0.00    -0.321 NA
ATOM      3  H   UNL     1       9.468  -2.255  26.139  0.00  0.00    +0.119 HD
ATOM      4  H   UNL     1       7.904  -1.899  25.947  0.00  0.00    +0.119 HD
ENDBRANCH   1   2
BRANCH   1   5
ATOM      5  C   UNL     1       8.504  -4.533  24.271  0.00  0.00    +0.165 C 
ATOM      6  O   UNL     1       9.431  -5.296  24.566  0.00  0.00    -0.294 OA
BRANCH   5   7
ATOM      7  C   UNL     1       7.183  -5.066  23.770  0.00  0.00    +0.184 C 
ATOM      8 CL   UNL     1       7.292  -5.414  22.041  0.00  0.00    -0.117 Cl
ENDBRANCH   5   7
ENDBRANCH   1   5
BRANCH   1   9
ATOM      9  C   UNL     1       9.980  -2.561  23.763  0.00  0.00    +0.061 C 
BRANCH   9  10
ATOM     10  C   UNL     1       9.937  -1.178  23.157  0.00  0.00    -0.045 A 
ATOM     11  C   UNL     1       9.422  -0.974  21.870  0.00  0.00    +0.004 A 
ATOM     12  C   UNL     1       9.371   0.311  21.326  0.00  0.00    +0.000 A 
ATOM     13  C   UNL     1       9.832   1.403  22.061  0.00  0.00    +0.000 A 
ATOM     14  C   UNL     1      10.347   1.209  23.341  0.00  0.00    +0.000 A 
ATOM     15  C   UNL     1      10.398  -0.074  23.886  0.00  0.00    +0.004 A 
ENDBRANCH   9  10
ENDBRANCH   1   9
TORSDOF 5
ENDMDL
MODEL 4
REMARK VINA RESULT:      -4.8      3.164      5.114
REMARK  Name = 
REMARK  5 active torsions:
REMARK  status: ('A' for Active; 'I' for Inactive)
REMARK    1  A    between atoms: C_2  and  N_3
REMARK    2  A    between atoms: C_2  and  C_4
REMARK    3  A    between atoms: C_2  and  C_11
REMARK    4  A    between atoms: C_4  and  C_5
REMARK    5  A    between atoms: C_11  and  C_13
REMARK                            x       y       z     vdW  Elec       q    Type
REMARK                         _______ _______ _______ _____ _____    ______ ____
ROOT
ATOM      1  C   UNL     1       9.362   0.881  22.386  0.00  0.00    +0.123 C 
ENDROOT
BRANCH   1   2
ATOM      2  N   UNL     1       9.812   1.985  21.505  0.00  0.00    -0.321 NA
ATOM      3  H   UNL     1      10.090   1.608  20.600  0.00  0.00    +0.119 HD
ATOM      4  H   UNL     1       9.000   2.572  21.299  0.00  0.00    +0.119 HD
ENDBRANCH   1   2
BRANCH   1   5
ATOM      5  C   UNL     1       9.775   1.220  23.828  0.00  0.00    +0.165 C 
ATOM      6  O   UNL     1      10.959   1.191  24.182  0.00  0.00    -0.294 OA
BRANCH   5   7
ATOM      7  C   UNL     1       8.679   1.596  24.797  0.00  0.00    +0.184 C 
ATOM      8 CL   UNL     1       7.811   0.146  25.313  0.00  0.00    -0.117 Cl
ENDBRANCH   5   7
ENDBRANCH   1   5
BRANCH   1   9
ATOM      9  C   UNL     1       9.976  -0.472  21.979  0.00  0.00    +0.061 C 
BRANCH   9  10
ATOM     10  C   UNL     1       9.345  -1.664  22.662  0.00  0.00    -0.045 A 
ATOM     11  C   UNL     1       8.100  -2.153  22.244  0.00  0.00    +0.004 A 
ATOM     12  C   UNL     1       7.533  -3.266  22.869  0.00  0.00    +0.000 A 
ATOM     13  C   UNL     1       8.204  -3.900  23.914  0.00  0.00    +0.000 A 
ATOM     14  C   UNL     1       9.442  -3.420  24.337  0.00  0.00    +0.000 A 
ATOM     15  C   UNL     1      10.009  -2.309  23.713  0.00  0.00    +0.004 A 
ENDBRANCH   9  10
ENDBRANCH   1   9
TORSDOF 5
ENDMDL
MODEL 5
REMARK VINA RESULT:      -4.8      2.644      3.207
REMARK  Name = 
REMARK  5 active torsions:
REMARK  status: ('A' for Active; 'I' for Inactive)
REMARK    1  A    between atoms: C_2  and  N_3
REMARK    2  A    between atoms: C_2  and  C_4
REMARK    3  A    between atoms: C_2  and  C_11
REMARK    4  A    between atoms: C_4  and  C_5
REMARK    5  A    between atoms: C_11  and  C_13
REMARK                            x       y       z     vdW  Elec       q    Type
REMARK                         _______ _______ _______ _____ _____    ______ ____
ROOT
ATOM      1  C   UNL     1       9.129  -4.577  25.645  0.00  0.00    +0.123 C 
ENDROOT
BRANCH   1   2
ATOM      2  N   UNL     1       9.911  -5.803  25.359  0.00  0.00    -0.321 NA
ATOM      3  H   UNL     1       9.475  -6.601  25.820  0.00  0.00    +0.119 HD
ATOM      4  H   UNL     1       9.823  -6.006  24.360  0.00  0.00    +0.119 HD
ENDBRANCH   1   2
BRANCH   1   5
ATOM      5  C   UNL     1       7.840  -4.991  26.374  0.00  0.00    +0.165 C 
ATOM      6  O   UNL     1       7.873  -5.695  27.389  0.00  0.00    -0.294 OA
BRANCH   5   7
ATOM      7  C   UNL     1       6.529  -4.501  25.805  0.00  0.00    +0.184 C 
ATOM      8 CL   UNL     1       5.686  -5.832  25.006  0.00  0.00    -0.117 Cl
ENDBRANCH   5   7
ENDBRANCH   1   5
BRANCH   1   9
ATOM      9  C   UNL     1       8.770  -3.805  24.361  0.00  0.00    +0.061 C 
BRANCH   9  10
ATOM     10  C   UNL     1       9.250  -2.372  24.349  0.00  0.00    -0.045 A 
ATOM     11  C   UNL     1       8.969  -1.514  25.420  0.00  0.00    +0.004 A 
ATOM     12  C   UNL     1       9.431  -0.196  25.408  0.00  0.00    +0.000 A 
ATOM     13  C   UNL     1      10.177   0.275  24.329  0.00  0.00    +0.000 A 
ATOM     14  C   UNL     1      10.461  -0.571  23.259  0.00  0.00    +0.000 A 
ATOM     15  C   UNL     1      10.000  -1.888  23.270  0.00  0.00    +0.004 A 
ENDBRANCH   9  10
ENDBRANCH   1   9
TORSDOF 5
ENDMDL
MODEL 6
REMARK VINA RESULT:      -4.8      2.033      2.454
REMARK  Name = 
REMARK  5 active torsions:
REMARK  status: ('A' for Active; 'I' for Inactive)
REMARK    1  A    between atoms: C_2  and  N_3
REMARK    2  A    between atoms: C_2  and  C_4
REMARK    3  A    between atoms: C_2  and  C_11
REMARK    4  A    between atoms: C_4  and  C_5
REMARK    5  A    between atoms: C_11  and  C_13
REMARK                            x       y       z     vdW  Elec       q    Type
REMARK                         _______ _______ _______ _____ _____    ______ ____
ROOT
ATOM      1  C   UNL     1       8.514  -2.722  23.789  0.00  0.00    +0.123 C 
ENDROOT
BRANCH   1   2
ATOM      2  N   UNL     1       7.708  -2.021  24.816  0.00  0.00    -0.321 NA
ATOM      3  H   UNL     1       7.800  -2.502  25.710  0.00  0.00    +0.119 HD
ATOM      4  H   UNL     1       8.132  -1.103  24.975  0.00  0.00    +0.119 HD
ENDBRANCH   1   2
BRANCH   1   5
ATOM      5  C   UNL     1       8.535  -4.220  24.139  0.00  0.00    +0.165 C 
ATOM      6  O   UNL     1       7.846  -5.035  23.516  0.00  0.00    -0.294 OA
BRANCH   5   7
ATOM      7  C   UNL     1       9.433  -4.659  25.271  0.00  0.00    +0.184 C 
ATOM      8 CL   UNL     1       8.477  -4.891  26.739  0.00  0.00    -0.117 Cl
ENDBRANCH   5   7
ENDBRANCH   1   5
BRANCH   1   9
ATOM      9  C   UNL     1       9.957  -2.189  23.721  0.00  0.00    +0.061 C 
BRANCH   9  10
ATOM     10  C   UNL     1      10.055  -0.719  23.384  0.00  0.00    -0.045 A 
ATOM     11  C   UNL     1       9.690  -0.248  22.116  0.00  0.00    +0.004 A 
ATOM     12  C   UNL     1       9.767   1.114  21.819  0.00  0.00    +0.000 A 
ATOM     13  C   UNL     1      10.208   2.018  22.786  0.00  0.00    +0.000 A 
ATOM     14  C   UNL     1      10.574   1.559  24.049  0.00  0.00    +0.000 A 
ATOM     15  C   UNL     1      10.497   0.198  24.346  0.00  0.00    +0.004 A 
ENDBRANCH   9  10
ENDBRANCH   1   9
TORSDOF 5
ENDMDL
MODEL 7
REMARK VINA RESULT:      -4.6      3.191      4.426
REMARK  Name = 
REMARK  5 active torsions:
REMARK  status: ('A' for Active; 'I' for Inactive)
REMARK    1  A    between atoms: C_2  and  N_3
REMARK    2  A    between atoms: C_2  and  C_4
REMARK    3  A    between atoms: C_2  and  C_11
REMARK    4  A    between atoms: C_4  and  C_5
REMARK    5  A    between atoms: C_11  and  C_13
REMARK                            x       y       z     vdW  Elec       q    Type
REMARK                         _______ _______ _______ _____ _____    ______ ____
ROOT
ATOM      1  C   UNL     1       9.729   1.063  24.240  0.00  0.00    +0.123 C 
ENDROOT
BRANCH   1   2
ATOM      2  N   UNL     1      10.092   0.340  25.482  0.00  0.00    -0.321 NA
ATOM      3  H   UNL     1      10.878  -0.283  25.298  0.00  0.00    +0.119 HD
ATOM      4  H   UNL     1      10.460   1.026  26.147  0.00  0.00    +0.119 HD
ENDBRANCH   1   2
BRANCH   1   5
ATOM      5  C   UNL     1       9.290   0.024  23.194  0.00  0.00    +0.165 C 
ATOM      6  O   UNL     1       8.869  -1.088  23.529  0.00  0.00    -0.294 OA
BRANCH   5   7
ATOM      7  C   UNL     1       9.387   0.416  21.738  0.00  0.00    +0.184 C 
ATOM      8 CL   UNL     1       8.181   1.651  21.366  0.00  0.00    -0.117 Cl
ENDBRANCH   5   7
ENDBRANCH   1   5
BRANCH   1   9
ATOM      9  C   UNL     1      10.905   1.888  23.684  0.00  0.00    +0.061 C 
BRANCH   9  10
ATOM     10  C   UNL     1      10.664   3.380  23.682  0.00  0.00    -0.045 A 
ATOM     11  C   UNL     1       9.394   3.901  23.963  0.00  0.00    +0.004 A 
ATOM     12  C   UNL     1       9.184   5.281  23.975  0.00  0.00    +0.000 A 
ATOM     13  C   UNL     1      10.240   6.152  23.708  0.00  0.00    +0.000 A 
ATOM     14  C   UNL     1      11.506   5.643  23.427  0.00  0.00    +0.000 A 
ATOM     15  C   UNL     1      11.716   4.265  23.415  0.00  0.00    +0.004 A 
ENDBRANCH   9  10
ENDBRANCH   1   9
TORSDOF 5
ENDMDL
MODEL 8
REMARK VINA RESULT:      -4.6      3.759      5.025
REMARK  Name = 
REMARK  5 active torsions:
REMARK  status: ('A' for Active; 'I' for Inactive)
REMARK    1  A    between atoms: C_2  and  N_3
REMARK    2  A    between atoms: C_2  and  C_4
REMARK    3  A    between atoms: C_2  and  C_11
REMARK    4  A    between atoms: C_4  and  C_5
REMARK    5  A    between atoms: C_11  and  C_13
REMARK                            x       y       z     vdW  Elec       q    Type
REMARK                         _______ _______ _______ _____ _____    ______ ____
ROOT
ATOM      1  C   UNL     1      10.259   2.063  23.247  0.00  0.00    +0.123 C 
ENDROOT
BRANCH   1   2
ATOM      2  N   UNL     1      10.145   2.037  21.770  0.00  0.00    -0.321 NA
ATOM      3  H   UNL     1      10.913   2.567  21.358  0.00  0.00    +0.119 HD
ATOM      4  H   UNL     1      10.305   1.074  21.460  0.00  0.00    +0.119 HD
ENDBRANCH   1   2
BRANCH   1   5
ATOM      5  C   UNL     1      10.499   0.625  23.734  0.00  0.00    +0.165 C 
ATOM      6  O   UNL     1      10.943   0.394  24.865  0.00  0.00    -0.294 OA
BRANCH   5   7
ATOM      7  C   UNL     1      10.168  -0.499  22.781  0.00  0.00    +0.184 C 
ATOM      8 CL   UNL     1      10.037  -2.021  23.668  0.00  0.00    -0.117 Cl
ENDBRANCH   5   7
ENDBRANCH   1   5
BRANCH   1   9
ATOM      9  C   UNL     1       8.994   2.630  23.917  0.00  0.00    +0.061 C 
BRANCH   9  10
ATOM     10  C   UNL     1       8.635   4.029  23.471  0.00  0.00    -0.045 A 
ATOM     11  C   UNL     1       9.435   5.123  23.829  0.00  0.00    +0.004 A 
ATOM     12  C   UNL     1       9.104   6.409  23.398  0.00  0.00    +0.000 A 
ATOM     13  C   UNL     1       7.975   6.615  22.606  0.00  0.00    +0.000 A 
ATOM     14  C   UNL     1       7.174   5.534  22.246  0.00  0.00    +0.000 A 
ATOM     15  C   UNL     1       7.503   4.248  22.676  0.00  0.00    +0.004 A 
ENDBRANCH   9  10
ENDBRANCH   1   9
TORSDOF 5
ENDMDL
MODEL 9
REMARK VINA RESULT:      -4.5      3.180      5.504
REMARK  Name = 
REMARK  5 active torsions:
REMARK  status: ('A' for Active; 'I' for Inactive)
REMARK    1  A    between atoms: C_2  and  N_3
REMARK    2  A    between atoms: C_2  and  C_4
REMARK    3  A    between atoms: C_2  and  C_11
REMARK    4  A    between atoms: C_4  and  C_5
REMARK    5  A    between atoms: C_11  and  C_13
REMARK                            x       y       z     vdW  Elec       q    Type
REMARK                         _______ _______ _______ _____ _____    ______ ____
ROOT
ATOM      1  C   UNL     1       8.321  -1.966  23.587  0.00  0.00    +0.123 C 
ENDROOT
BRANCH   1   2
ATOM      2  N   UNL     1       9.210  -0.795  23.395  0.00  0.00    -0.321 NA
ATOM      3  H   UNL     1       8.681   0.064  23.542  0.00  0.00    +0.119 HD
ATOM      4  H   UNL     1       9.903  -0.801  24.148  0.00  0.00    +0.119 HD
ENDBRANCH   1   2
BRANCH   1   5
ATOM      5  C   UNL     1       9.069  -2.999  24.446  0.00  0.00    +0.165 C 
ATOM      6  O   UNL     1      10.173  -3.438  24.107  0.00  0.00    -0.294 OA
BRANCH   5   7
ATOM      7  C   UNL     1       8.406  -3.454  25.725  0.00  0.00    +0.184 C 
ATOM      8 CL   UNL     1       7.887  -5.135  25.566  0.00  0.00    -0.117 Cl
ENDBRANCH   5   7
ENDBRANCH   1   5
BRANCH   1   9
ATOM      9  C   UNL     1       7.910  -2.609  22.249  0.00  0.00    +0.061 C 
BRANCH   9  10
ATOM     10  C   UNL     1       6.865  -3.691  22.382  0.00  0.00    -0.045 A 
ATOM     11  C   UNL     1       7.135  -5.004  21.971  0.00  0.00    +0.004 A 
ATOM     12  C   UNL     1       6.169  -6.001  22.113  0.00  0.00    +0.000 A 
ATOM     13  C   UNL     1       4.925  -5.698  22.667  0.00  0.00    +0.000 A 
ATOM     14  C   UNL     1       4.647  -4.397  23.078  0.00  0.00    +0.000 A 
ATOM     15  C   UNL     1       5.612  -3.399  22.936  0.00  0.00    +0.004 A 
ENDBRANCH   9  10
ENDBRANCH   1   9
TORSDOF 5
ENDMDL
