MODEL 1
REMARK VINA RESULT:      -5.4      0.000      0.000
REMARK  Name = 
REMARK  6 active torsions:
REMARK  status: ('A' for Active; 'I' for Inactive)
REMARK    1  A    between atoms: CA_2  and  N_3
REMARK    2  A    between atoms: CA_2  and  C_4
REMARK    3  A    between atoms: CA_2  and  C_14
REMARK    4  A    between atoms: C_4  and  C_5
REMARK    5  A    between atoms: C_9  and  O_10
REMARK    6  A    between atoms: C_14  and  O_15
REMARK                            x       y       z     vdW  Elec       q    Type
REMARK                         _______ _______ _______ _____ _____    ______ ____
ROOT
ATOM      1  C   UNL     1       9.410  -1.695  22.941  0.00  0.00    -0.043 A 
ATOM      2  C   UNL     1       8.134  -1.903  22.389  0.00  0.00    +0.022 A 
ATOM      3  C   UNL     1       7.356  -3.003  22.772  0.00  0.00    +0.061 A 
ATOM      4 BR   UNL     1       5.653  -3.226  21.966  0.00  0.00    -0.046 Br
ATOM      5  C   UNL     1       7.839  -3.907  23.718  0.00  0.00    +0.145 A 
ATOM      6  C   UNL     1       9.091  -3.691  24.294  0.00  0.00    +0.061 A 
ATOM      7 BR   UNL     1       9.793  -4.899  25.579  0.00  0.00    -0.046 Br
ATOM      8  C   UNL     1       9.861  -2.585  23.926  0.00  0.00    +0.022 A 
ENDROOT
BRANCH   5   9
ATOM      9  O   UNL     1       7.081  -4.992  24.072  0.00  0.00    -0.505 OA
ATOM     10  H   UNL     1       6.688  -4.805  24.944  0.00  0.00    +0.292 HD
ENDBRANCH   5   9
BRANCH   1  11
ATOM     11  C   UNL     1      10.230  -0.505  22.482  0.00  0.00    +0.065 C 
BRANCH  11  12
ATOM     12  CA  UNL     1       9.657   0.899  22.767  0.00  0.00    +0.165 C 
BRANCH  12  13
ATOM     13  N   UNL     1       9.671   1.701  21.519  0.00  0.00    -0.318 NA
ATOM     14  H1  UNL     1      10.555   1.654  21.018  0.00  0.00    +0.119 HD
ATOM     15  H2  UNL     1       8.848   1.588  20.935  0.00  0.00    +0.119 HD
ENDBRANCH  12  13
BRANCH  12  16
ATOM     16  C   UNL     1      10.426   1.598  23.911  0.00  0.00    +0.322 C 
ATOM     17  OXT UNL     1      11.047   2.644  23.794  0.00  0.00    -0.249 OA
BRANCH  16  18
ATOM     18  O   UNL     1      10.380   0.934  25.088  0.00  0.00    -0.480 OA
ATOM     19  H   UNL     1      10.547   1.542  25.830  0.00  0.00    +0.295 HD
ENDBRANCH  16  18
ENDBRANCH  12  16
ENDBRANCH  11  12
ENDBRANCH   1  11
TORSDOF 6
ENDMDL
MODEL 2
REMARK VINA RESULT:      -5.3      0.048      2.439
REMARK  Name = 
REMARK  6 active torsions:
REMARK  status: ('A' for Active; 'I' for Inactive)
REMARK    1  A    between atoms: CA_2  and  N_3
REMARK    2  A    between atoms: CA_2  and  C_4
REMARK    3  A    between atoms: CA_2  and  C_14
REMARK    4  A    between atoms: C_4  and  C_5
REMARK    5  A    between atoms: C_9  and  O_10
REMARK    6  A    between atoms: C_14  and  O_15
REMARK                            x       y       z     vdW  Elec       q    Type
REMARK                         _______ _______ _______ _____ _____    ______ ____
ROOT
ATOM      1  C   UNL     1       9.394  -1.701  22.938  0.00  0.00    -0.043 A 
ATOM      2  C   UNL     1       9.869  -2.615  23.894  0.00  0.00    +0.022 A 
ATOM      3  C   UNL     1       9.086  -3.705  24.296  0.00  0.00    +0.061 A 
ATOM      4 BR   UNL     1       9.789  -4.884  25.606  0.00  0.00    -0.046 Br
ATOM      5  C   UNL     1       7.821  -3.902  23.743  0.00  0.00    +0.145 A 
ATOM      6  C   UNL     1       7.355  -3.016  22.771  0.00  0.00    +0.061 A 
ATOM      7 BR   UNL     1       5.636  -3.237  21.997  0.00  0.00    -0.046 Br
ATOM      8  C   UNL     1       8.141  -1.939  22.356  0.00  0.00    +0.022 A 
ENDROOT
BRANCH   5   9
ATOM      9  O   UNL     1       7.054  -4.958  24.157  0.00  0.00    -0.505 OA
ATOM     10  H   UNL     1       7.592  -5.766  24.070  0.00  0.00    +0.292 HD
ENDBRANCH   5   9
BRANCH   1  11
ATOM     11  C   UNL     1      10.262  -0.520  22.547  0.00  0.00    +0.065 C 
BRANCH  11  12
ATOM     12  CA  UNL     1       9.685   0.891  22.790  0.00  0.00    +0.165 C 
BRANCH  12  13
ATOM     13  N   UNL     1       9.729   1.666  21.527  0.00  0.00    -0.318 NA
ATOM     14  H1  UNL     1       9.234   1.218  20.759  0.00  0.00    +0.119 HD
ATOM     15  H2  UNL     1       9.534   2.658  21.632  0.00  0.00    +0.119 HD
ENDBRANCH  12  13
BRANCH  12  16
ATOM     16  C   UNL     1      10.430   1.612  23.936  0.00  0.00    +0.322 C 
ATOM     17  OXT UNL     1      11.012   2.680  23.823  0.00  0.00    -0.249 OA
BRANCH  16  18
ATOM     18  O   UNL     1      10.408   0.943  25.111  0.00  0.00    -0.480 OA
ATOM     19  H   UNL     1      10.059   0.043  24.986  0.00  0.00    +0.295 HD
ENDBRANCH  16  18
ENDBRANCH  12  16
ENDBRANCH  11  12
ENDBRANCH   1  11
TORSDOF 6
ENDMDL
MODEL 3
REMARK VINA RESULT:      -5.1      4.605      7.193
REMARK  Name = 
REMARK  6 active torsions:
REMARK  status: ('A' for Active; 'I' for Inactive)
REMARK    1  A    between atoms: CA_2  and  N_3
REMARK    2  A    between atoms: CA_2  and  C_4
REMARK    3  A    between atoms: CA_2  and  C_14
REMARK    4  A    between atoms: C_4  and  C_5
REMARK    5  A    between atoms: C_9  and  O_10
REMARK    6  A    between atoms: C_14  and  O_15
REMARK                            x       y       z     vdW  Elec       q    Type
REMARK                         _______ _______ _______ _____ _____    ______ ____
ROOT
ATOM      1  C   UNL     1       9.857   2.544  23.703  0.00  0.00    -0.043 A 
ATOM      2  C   UNL     1      11.050   3.187  23.330  0.00  0.00    +0.022 A 
ATOM      3  C   UNL     1      11.211   4.566  23.516  0.00  0.00    +0.061 A 
ATOM      4 BR   UNL     1      12.843   5.364  22.968  0.00  0.00    -0.046 Br
ATOM      5  C   UNL     1      10.186   5.322  24.084  0.00  0.00    +0.145 A 
ATOM      6  C   UNL     1       9.010   4.686  24.485  0.00  0.00    +0.061 A 
ATOM      7 BR   UNL     1       7.583   5.674  25.254  0.00  0.00    -0.046 Br
ATOM      8  C   UNL     1       8.854   3.308  24.317  0.00  0.00    +0.022 A 
ENDROOT
BRANCH   5   9
ATOM      9  O   UNL     1      10.343   6.673  24.243  0.00  0.00    -0.505 OA
ATOM     10  H   UNL     1      11.265   6.891  24.016  0.00  0.00    +0.292 HD
ENDBRANCH   5   9
BRANCH   1  11
ATOM     11  C   UNL     1       9.713   1.054  23.462  0.00  0.00    +0.065 C 
BRANCH  11  12
ATOM     12  CA  UNL     1       9.789   0.564  22.000  0.00  0.00    +0.165 C 
BRANCH  12  13
ATOM     13  N   UNL     1       8.873   1.373  21.160  0.00  0.00    -0.318 NA
ATOM     14  H1  UNL     1       8.961   2.374  21.314  0.00  0.00    +0.119 HD
ATOM     15  H2  UNL     1       8.842   1.097  20.183  0.00  0.00    +0.119 HD
ENDBRANCH  12  13
BRANCH  12  16
ATOM     16  C   UNL     1       9.483  -0.947  21.898  0.00  0.00    +0.322 C 
ATOM     17  OXT UNL     1       8.376  -1.444  22.041  0.00  0.00    -0.249 OA
BRANCH  16  18
ATOM     18  O   UNL     1      10.571  -1.712  21.652  0.00  0.00    -0.480 OA
ATOM     19  H   UNL     1      11.160  -1.730  22.426  0.00  0.00    +0.295 HD
ENDBRANCH  16  18
ENDBRANCH  12  16
ENDBRANCH  11  12
ENDBRANCH   1  11
TORSDOF 6
ENDMDL
MODEL 4
REMARK VINA RESULT:      -5.1      3.643      5.825
REMARK  Name = 
REMARK  6 active torsions:
REMARK  status: ('A' for Active; 'I' for Inactive)
REMARK    1  A    between atoms: CA_2  and  N_3
REMARK    2  A    between atoms: CA_2  and  C_4
REMARK    3  A    between atoms: CA_2  and  C_14
REMARK    4  A    between atoms: C_4  and  C_5
REMARK    5  A    between atoms: C_9  and  O_10
REMARK    6  A    between atoms: C_14  and  O_15
REMARK                            x       y       z     vdW  Elec       q    Type
REMARK                         _______ _______ _______ _____ _____    ______ ____
ROOT
ATOM      1  C   UNL     1       8.858  -2.238  24.567  0.00  0.00    -0.043 A 
ATOM      2  C   UNL     1       9.345  -1.395  23.553  0.00  0.00    +0.022 A 
ATOM      3  C   UNL     1       9.225  -0.003  23.657  0.00  0.00    +0.061 A 
ATOM      4 BR   UNL     1       9.889   1.067  22.239  0.00  0.00    -0.046 Br
ATOM      5  C   UNL     1       8.622   0.566  24.779  0.00  0.00    +0.145 A 
ATOM      6  C   UNL     1       8.162  -0.263  25.803  0.00  0.00    +0.061 A 
ATOM      7 BR   UNL     1       7.327   0.466  27.344  0.00  0.00    -0.046 Br
ATOM      8  C   UNL     1       8.298  -1.650  25.709  0.00  0.00    +0.022 A 
ENDROOT
BRANCH   5   9
ATOM      9  O   UNL     1       8.489   1.926  24.864  0.00  0.00    -0.505 OA
ATOM     10  H   UNL     1       8.961   2.219  25.664  0.00  0.00    +0.292 HD
ENDBRANCH   5   9
BRANCH   1  11
ATOM     11  C   UNL     1       8.986  -3.741  24.404  0.00  0.00    +0.065 C 
BRANCH  11  12
ATOM     12  CA  UNL     1       9.237  -4.570  25.682  0.00  0.00    +0.165 C 
BRANCH  12  13
ATOM     13  N   UNL     1      10.348  -5.522  25.443  0.00  0.00    -0.318 NA
ATOM     14  H1  UNL     1      10.802  -5.838  26.297  0.00  0.00    +0.119 HD
ATOM     15  H2  UNL     1      10.136  -6.262  24.780  0.00  0.00    +0.119 HD
ENDBRANCH  12  13
BRANCH  12  16
ATOM     16  C   UNL     1       7.951  -5.288  26.147  0.00  0.00    +0.322 C 
ATOM     17  OXT UNL     1       6.922  -5.366  25.491  0.00  0.00    -0.249 OA
BRANCH  16  18
ATOM     18  O   UNL     1       8.039  -5.827  27.384  0.00  0.00    -0.480 OA
ATOM     19  H   UNL     1       8.598  -5.275  27.959  0.00  0.00    +0.295 HD
ENDBRANCH  16  18
ENDBRANCH  12  16
ENDBRANCH  11  12
ENDBRANCH   1  11
TORSDOF 6
ENDMDL
MODEL 5
REMARK VINA RESULT:      -5.1      4.587      7.002
REMARK  Name = 
REMARK  6 active torsions:
REMARK  status: ('A' for Active; 'I' for Inactive)
REMARK    1  A    between atoms: CA_2  and  N_3
REMARK    2  A    between atoms: CA_2  and  C_4
REMARK    3  A    between atoms: CA_2  and  C_14
REMARK    4  A    between atoms: C_4  and  C_5
REMARK    5  A    between atoms: C_9  and  O_10
REMARK    6  A    between atoms: C_14  and  O_15
REMARK                            x       y       z     vdW  Elec       q    Type
REMARK                         _______ _______ _______ _____ _____    ______ ____
ROOT
ATOM      1  C   UNL     1       9.890   2.534  23.674  0.00  0.00    -0.043 A 
ATOM      2  C   UNL     1       8.861   3.282  24.273  0.00  0.00    +0.022 A 
ATOM      3  C   UNL     1       9.015   4.653  24.511  0.00  0.00    +0.061 A 
ATOM      4 BR   UNL     1       7.588   5.589  25.341  0.00  0.00    -0.046 Br
ATOM      5  C   UNL     1      10.197   5.299  24.149  0.00  0.00    +0.145 A 
ATOM      6  C   UNL     1      11.211   4.570  23.527  0.00  0.00    +0.061 A 
ATOM      7 BR   UNL     1      12.841   5.405  23.024  0.00  0.00    -0.046 Br
ATOM      8  C   UNL     1      11.052   3.207  23.272  0.00  0.00    +0.022 A 
ENDROOT
BRANCH   5   9
ATOM      9  O   UNL     1      10.348   6.636  24.405  0.00  0.00    -0.505 OA
ATOM     10  H   UNL     1      10.911   7.009  23.702  0.00  0.00    +0.292 HD
ENDBRANCH   5   9
BRANCH   1  11
ATOM     11  C   UNL     1       9.693   1.046  23.455  0.00  0.00    +0.065 C 
BRANCH  11  12
ATOM     12  CA  UNL     1       9.820   0.523  22.008  0.00  0.00    +0.165 C 
BRANCH  12  13
ATOM     13  N   UNL     1       8.885   1.268  21.130  0.00  0.00    -0.318 NA
ATOM     14  H1  UNL     1       8.111   0.702  20.791  0.00  0.00    +0.119 HD
ATOM     15  H2  UNL     1       8.618   2.184  21.477  0.00  0.00    +0.119 HD
ENDBRANCH  12  13
BRANCH  12  16
ATOM     16  C   UNL     1       9.584  -1.002  21.941  0.00  0.00    +0.322 C 
ATOM     17  OXT UNL     1       8.486  -1.534  21.879  0.00  0.00    -0.249 OA
BRANCH  16  18
ATOM     18  O   UNL     1      10.720  -1.735  21.977  0.00  0.00    -0.480 OA
ATOM     19  H   UNL     1      11.256  -1.576  21.181  0.00  0.00    +0.295 HD
ENDBRANCH  16  18
ENDBRANCH  12  16
ENDBRANCH  11  12
ENDBRANCH   1  11
TORSDOF 6
ENDMDL
MODEL 6
REMARK VINA RESULT:      -5.0      3.574      5.747
REMARK  Name = 
REMARK  6 active torsions:
REMARK  status: ('A' for Active; 'I' for Inactive)
REMARK    1  A    between atoms: CA_2  and  N_3
REMARK    2  A    between atoms: CA_2  and  C_4
REMARK    3  A    between atoms: CA_2  and  C_14
REMARK    4  A    between atoms: C_4  and  C_5
REMARK    5  A    between atoms: C_9  and  O_10
REMARK    6  A    between atoms: C_14  and  O_15
REMARK                            x       y       z     vdW  Elec       q    Type
REMARK                         _______ _______ _______ _____ _____    ______ ____
ROOT
ATOM      1  C   UNL     1       8.067  -2.824  23.874  0.00  0.00    -0.043 A 
ATOM      2  C   UNL     1       7.080  -2.227  24.677  0.00  0.00    +0.022 A 
ATOM      3  C   UNL     1       6.786  -0.863  24.559  0.00  0.00    +0.061 A 
ATOM      4 BR   UNL     1       5.456  -0.126  25.692  0.00  0.00    -0.046 Br
ATOM      5  C   UNL     1       7.469  -0.077  23.631  0.00  0.00    +0.145 A 
ATOM      6  C   UNL     1       8.429  -0.668  22.808  0.00  0.00    +0.061 A 
ATOM      7 BR   UNL     1       9.390   0.363  21.537  0.00  0.00    -0.046 Br
ATOM      8  C   UNL     1       8.710  -2.032  22.912  0.00  0.00    +0.022 A 
ENDROOT
BRANCH   5   9
ATOM      9  O   UNL     1       7.191   1.261  23.535  0.00  0.00    -0.505 OA
ATOM     10  H   UNL     1       6.232   1.353  23.392  0.00  0.00    +0.292 HD
ENDBRANCH   5   9
BRANCH   1  11
ATOM     11  C   UNL     1       8.372  -4.300  24.050  0.00  0.00    +0.065 C 
BRANCH  11  12
ATOM     12  CA  UNL     1       8.836  -4.762  25.447  0.00  0.00    +0.165 C 
BRANCH  12  13
ATOM     13  N   UNL     1      10.013  -5.652  25.307  0.00  0.00    -0.318 NA
ATOM     14  H1  UNL     1       9.842  -6.604  25.623  0.00  0.00    +0.119 HD
ATOM     15  H2  UNL     1      10.490  -5.585  24.412  0.00  0.00    +0.119 HD
ENDBRANCH  12  13
BRANCH  12  16
ATOM     16  C   UNL     1       7.687  -5.443  26.224  0.00  0.00    +0.322 C 
ATOM     17  OXT UNL     1       6.557  -5.610  25.788  0.00  0.00    -0.249 OA
BRANCH  16  18
ATOM     18  O   UNL     1       8.025  -5.837  27.473  0.00  0.00    -0.480 OA
ATOM     19  H   UNL     1       7.419  -5.451  28.129  0.00  0.00    +0.295 HD
ENDBRANCH  16  18
ENDBRANCH  12  16
ENDBRANCH  11  12
ENDBRANCH   1  11
TORSDOF 6
ENDMDL
MODEL 7
REMARK VINA RESULT:      -4.9      1.896      3.071
REMARK  Name = 
REMARK  6 active torsions:
REMARK  status: ('A' for Active; 'I' for Inactive)
REMARK    1  A    between atoms: CA_2  and  N_3
REMARK    2  A    between atoms: CA_2  and  C_4
REMARK    3  A    between atoms: CA_2  and  C_14
REMARK    4  A    between atoms: C_4  and  C_5
REMARK    5  A    between atoms: C_9  and  O_10
REMARK    6  A    between atoms: C_14  and  O_15
REMARK                            x       y       z     vdW  Elec       q    Type
REMARK                         _______ _______ _______ _____ _____    ______ ____
ROOT
ATOM      1  C   UNL     1       8.673  -3.438  24.072  0.00  0.00    -0.043 A 
ATOM      2  C   UNL     1       8.251  -3.764  25.373  0.00  0.00    +0.022 A 
ATOM      3  C   UNL     1       7.177  -4.639  25.581  0.00  0.00    +0.061 A 
ATOM      4 BR   UNL     1       6.655  -5.015  27.366  0.00  0.00    -0.046 Br
ATOM      5  C   UNL     1       6.513  -5.205  24.494  0.00  0.00    +0.145 A 
ATOM      6  C   UNL     1       6.945  -4.910  23.199  0.00  0.00    +0.061 A 
ATOM      7 BR   UNL     1       6.067  -5.650  21.688  0.00  0.00    -0.046 Br
ATOM      8  C   UNL     1       8.027  -4.052  22.990  0.00  0.00    +0.022 A 
ENDROOT
BRANCH   5   9
ATOM      9  O   UNL     1       5.450  -6.043  24.705  0.00  0.00    -0.505 OA
ATOM     10  H   UNL     1       4.635  -5.524  24.573  0.00  0.00    +0.292 HD
ENDBRANCH   5   9
BRANCH   1  11
ATOM     11  C   UNL     1       9.824  -2.468  23.889  0.00  0.00    +0.065 C 
BRANCH  11  12
ATOM     12  CA  UNL     1       9.589  -1.261  22.957  0.00  0.00    +0.165 C 
BRANCH  12  13
ATOM     13  N   UNL     1      10.182  -1.540  21.628  0.00  0.00    -0.318 NA
ATOM     14  H1  UNL     1      11.102  -1.970  21.677  0.00  0.00    +0.119 HD
ATOM     15  H2  UNL     1       9.547  -1.976  20.965  0.00  0.00    +0.119 HD
ENDBRANCH  12  13
BRANCH  12  16
ATOM     16  C   UNL     1      10.145   0.042  23.575  0.00  0.00    +0.322 C 
ATOM     17  OXT UNL     1      10.296   1.091  22.967  0.00  0.00    -0.249 OA
BRANCH  16  18
ATOM     18  O   UNL     1      10.485  -0.070  24.880  0.00  0.00    -0.480 OA
ATOM     19  H   UNL     1      11.257   0.486  25.081  0.00  0.00    +0.295 HD
ENDBRANCH  16  18
ENDBRANCH  12  16
ENDBRANCH  11  12
ENDBRANCH   1  11
TORSDOF 6
ENDMDL
MODEL 8
REMARK VINA RESULT:      -4.9      1.988      2.494
REMARK  Name = 
REMARK  6 active torsions:
REMARK  status: ('A' for Active; 'I' for Inactive)
REMARK    1  A    between atoms: CA_2  and  N_3
REMARK    2  A    between atoms: CA_2  and  C_4
REMARK    3  A    between atoms: CA_2  and  C_14
REMARK    4  A    between atoms: C_4  and  C_5
REMARK    5  A    between atoms: C_9  and  O_10
REMARK    6  A    between atoms: C_14  and  O_15
REMARK                            x       y       z     vdW  Elec       q    Type
REMARK                         _______ _______ _______ _____ _____    ______ ____
ROOT
ATOM      1  C   UNL     1       8.609  -3.594  24.205  0.00  0.00    -0.043 A 
ATOM      2  C   UNL     1       7.923  -4.151  23.111  0.00  0.00    +0.022 A 
ATOM      3  C   UNL     1       6.828  -5.003  23.308  0.00  0.00    +0.061 A 
ATOM      4 BR   UNL     1       5.968  -5.730  21.782  0.00  0.00    -0.046 Br
ATOM      5  C   UNL     1       6.398  -5.304  24.600  0.00  0.00    +0.145 A 
ATOM      6  C   UNL     1       7.054  -4.731  25.690  0.00  0.00    +0.061 A 
ATOM      7 BR   UNL     1       6.510  -5.119  27.467  0.00  0.00    -0.046 Br
ATOM      8  C   UNL     1       8.135  -3.868  25.495  0.00  0.00    +0.022 A 
ENDROOT
BRANCH   5   9
ATOM      9  O   UNL     1       5.340  -6.154  24.784  0.00  0.00    -0.505 OA
ATOM     10  H   UNL     1       4.647  -5.905  24.146  0.00  0.00    +0.292 HD
ENDBRANCH   5   9
BRANCH   1  11
ATOM     11  C   UNL     1       9.804  -2.697  23.950  0.00  0.00    +0.065 C 
BRANCH  11  12
ATOM     12  CA  UNL     1       9.567  -1.429  23.102  0.00  0.00    +0.165 C 
BRANCH  12  13
ATOM     13  N   UNL     1      10.219  -1.589  21.780  0.00  0.00    -0.318 NA
ATOM     14  H1  UNL     1      10.424  -2.557  21.544  0.00  0.00    +0.119 HD
ATOM     15  H2  UNL     1       9.791  -1.054  21.030  0.00  0.00    +0.119 HD
ENDBRANCH  12  13
BRANCH  12  16
ATOM     16  C   UNL     1      10.057  -0.162  23.838  0.00  0.00    +0.322 C 
ATOM     17  OXT UNL     1      10.501   0.835  23.287  0.00  0.00    -0.249 OA
BRANCH  16  18
ATOM     18  O   UNL     1       9.977  -0.244  25.185  0.00  0.00    -0.480 OA
ATOM     19  H   UNL     1      10.232   0.601  25.596  0.00  0.00    +0.295 HD
ENDBRANCH  16  18
ENDBRANCH  12  16
ENDBRANCH  11  12
ENDBRANCH   1  11
TORSDOF 6
ENDMDL
MODEL 9
REMARK VINA RESULT:      -4.9      4.304      6.741
REMARK  Name = 
REMARK  6 active torsions:
REMARK  status: ('A' for Active; 'I' for Inactive)
REMARK    1  A    between atoms: CA_2  and  N_3
REMARK    2  A    between atoms: CA_2  and  C_4
REMARK    3  A    between atoms: CA_2  and  C_14
REMARK    4  A    between atoms: C_4  and  C_5
REMARK    5  A    between atoms: C_9  and  O_10
REMARK    6  A    between atoms: C_14  and  O_15
REMARK                            x       y       z     vdW  Elec       q    Type
REMARK                         _______ _______ _______ _____ _____    ______ ____
ROOT
ATOM      1  C   UNL     1       7.713  -4.623  25.836  0.00  0.00    -0.043 A 
ATOM      2  C   UNL     1       7.321  -5.201  24.616  0.00  0.00    +0.022 A 
ATOM      3  C   UNL     1       7.529  -4.531  23.403  0.00  0.00    +0.061 A 
ATOM      4 BR   UNL     1       6.956  -5.369  21.801  0.00  0.00    -0.046 Br
ATOM      5  C   UNL     1       8.138  -3.276  23.392  0.00  0.00    +0.145 A 
ATOM      6  C   UNL     1       8.557  -2.708  24.596  0.00  0.00    +0.061 A 
ATOM      7 BR   UNL     1       9.381  -0.999  24.631  0.00  0.00    -0.046 Br
ATOM      8  C   UNL     1       8.366  -3.383  25.804  0.00  0.00    +0.022 A 
ENDROOT
BRANCH   5   9
ATOM      9  O   UNL     1       8.319  -2.618  22.205  0.00  0.00    -0.505 OA
ATOM     10  H   UNL     1       7.686  -1.877  22.179  0.00  0.00    +0.292 HD
ENDBRANCH   5   9
BRANCH   1  11
ATOM     11  C   UNL     1       7.448  -5.371  27.128  0.00  0.00    +0.065 C 
BRANCH  11  12
ATOM     12  CA  UNL     1       5.999  -5.365  27.662  0.00  0.00    +0.165 C 
BRANCH  12  13
ATOM     13  N   UNL     1       6.011  -5.087  29.118  0.00  0.00    -0.318 NA
ATOM     14  H1  UNL     1       6.625  -4.319  29.379  0.00  0.00    +0.119 HD
ATOM     15  H2  UNL     1       5.092  -5.056  29.551  0.00  0.00    +0.119 HD
ENDBRANCH  12  13
BRANCH  12  16
ATOM     16  C   UNL     1       5.275  -6.690  27.334  0.00  0.00    +0.322 C 
ATOM     17  OXT UNL     1       4.697  -6.925  26.283  0.00  0.00    -0.249 OA
BRANCH  16  18
ATOM     18  O   UNL     1       5.309  -7.598  28.336  0.00  0.00    -0.480 OA
ATOM     19  H   UNL     1       6.034  -8.233  28.198  0.00  0.00    +0.295 HD
ENDBRANCH  16  18
ENDBRANCH  12  16
ENDBRANCH  11  12
ENDBRANCH   1  11
TORSDOF 6
ENDMDL
