MODEL 1
REMARK VINA RESULT:      -4.2      0.000      0.000
REMARK  Name = 
REMARK  6 active torsions:
REMARK  status: ('A' for Active; 'I' for Inactive)
REMARK    1  A    between atoms: C_1  and  C_2
REMARK    2  A    between atoms: C_2  and  C_3
REMARK    3  A    between atoms: C_2  and  N_4
REMARK    4  A    between atoms: N_4  and  O_5
REMARK    5  A    between atoms: C_6  and  C_8
REMARK    6  A    between atoms: C_8  and  O_9
REMARK                            x       y       z     vdW  Elec       q    Type
REMARK                         _______ _______ _______ _____ _____    ______ ____
ROOT
ATOM      1  N   UNL     1       7.747  -4.930  23.896  0.00  0.00    -0.172 N 
ATOM      2  C   UNL     1       8.826  -4.313  24.509  0.00  0.00    +0.346 C 
ATOM      3  O   UNL     1       9.584  -3.496  23.982  0.00  0.00    -0.261 OA
ENDROOT
BRANCH   1   5
ATOM      4  C   UNL     1       7.064  -5.656  21.658  0.00  0.00    +0.030 C 
ATOM      5  C   UNL     1       7.235  -4.469  22.604  0.00  0.00    +0.100 C 
ATOM      6  C   UNL     1       5.939  -3.669  22.734  0.00  0.00    +0.030 C 
ENDBRANCH   1   5
BRANCH   2   7
ATOM      7  C   UNL     1       9.218  -4.781  25.926  0.00  0.00    +0.395 C 
ATOM      8  O   UNL     1       8.584  -4.584  26.942  0.00  0.00    -0.240 OA
BRANCH   7   9
ATOM      9  O   UNL     1      10.350  -5.526  25.861  0.00  0.00    -0.474 OA
ATOM     10  H   UNL     1      11.115  -4.960  26.124  0.00  0.00    +0.296 HD
ENDBRANCH   7   9
ENDBRANCH   2   7
BRANCH   1  11
ATOM     11  O   UNL     1       6.700  -5.342  24.753  0.00  0.00    -0.292 OA
ATOM     12  H   UNL     1       6.380  -4.491  25.116  0.00  0.00    +0.242 HD
ENDBRANCH   1  11
TORSDOF 4
ENDMDL
MODEL 2
REMARK VINA RESULT:      -4.2      6.020      7.210
REMARK  Name = 
REMARK  6 active torsions:
REMARK  status: ('A' for Active; 'I' for Inactive)
REMARK    1  A    between atoms: C_1  and  C_2
REMARK    2  A    between atoms: C_2  and  C_3
REMARK    3  A    between atoms: C_2  and  N_4
REMARK    4  A    between atoms: N_4  and  O_5
REMARK    5  A    between atoms: C_6  and  C_8
REMARK    6  A    between atoms: C_8  and  O_9
REMARK                            x       y       z     vdW  Elec       q    Type
REMARK                         _______ _______ _______ _____ _____    ______ ____
ROOT
ATOM      1  N   UNL     1      10.358   1.694  22.711  0.00  0.00    -0.172 N 
ATOM      2  C   UNL     1      10.065   0.375  23.019  0.00  0.00    +0.346 C 
ATOM      3  O   UNL     1      10.077  -0.122  24.148  0.00  0.00    -0.261 OA
ENDROOT
BRANCH   1   5
ATOM      4  C   UNL     1      11.447   3.804  23.317  0.00  0.00    +0.030 C 
ATOM      5  C   UNL     1      10.467   2.717  23.754  0.00  0.00    +0.100 C 
ATOM      6  C   UNL     1       9.113   3.311  24.142  0.00  0.00    +0.030 C 
ENDBRANCH   1   5
BRANCH   2   7
ATOM      7  C   UNL     1       9.843  -0.609  21.852  0.00  0.00    +0.395 C 
ATOM      8  O   UNL     1       9.132  -0.420  20.886  0.00  0.00    -0.240 OA
BRANCH   7   9
ATOM      9  O   UNL     1      10.633  -1.699  22.021  0.00  0.00    -0.474 OA
ATOM     10  H   UNL     1      10.185  -2.317  22.647  0.00  0.00    +0.296 HD
ENDBRANCH   7   9
ENDBRANCH   2   7
BRANCH   1  11
ATOM     11  O   UNL     1       9.750   2.206  21.542  0.00  0.00    -0.292 OA
ATOM     12  H   UNL     1       9.572   1.395  21.025  0.00  0.00    +0.242 HD
ENDBRANCH   1  11
TORSDOF 4
ENDMDL
MODEL 3
REMARK VINA RESULT:      -4.1      1.487      2.506
REMARK  Name = 
REMARK  6 active torsions:
REMARK  status: ('A' for Active; 'I' for Inactive)
REMARK    1  A    between atoms: C_1  and  C_2
REMARK    2  A    between atoms: C_2  and  C_3
REMARK    3  A    between atoms: C_2  and  N_4
REMARK    4  A    between atoms: N_4  and  O_5
REMARK    5  A    between atoms: C_6  and  C_8
REMARK    6  A    between atoms: C_8  and  O_9
REMARK                            x       y       z     vdW  Elec       q    Type
REMARK                         _______ _______ _______ _____ _____    ______ ____
ROOT
ATOM      1  N   UNL     1       7.314  -4.993  24.376  0.00  0.00    -0.172 N 
ATOM      2  C   UNL     1       6.914  -5.362  25.650  0.00  0.00    +0.346 C 
ATOM      3  O   UNL     1       5.778  -5.717  25.975  0.00  0.00    -0.261 OA
ENDROOT
BRANCH   1   5
ATOM      4  C   UNL     1       5.817  -3.933  22.751  0.00  0.00    +0.030 C 
ATOM      5  C   UNL     1       6.466  -5.238  23.207  0.00  0.00    +0.100 C 
ATOM      6  C   UNL     1       7.220  -5.914  22.062  0.00  0.00    +0.030 C 
ENDBRANCH   1   5
BRANCH   2   7
ATOM      7  C   UNL     1       7.921  -5.182  26.805  0.00  0.00    +0.395 C 
ATOM      8  O   UNL     1       8.790  -4.335  26.868  0.00  0.00    -0.240 OA
BRANCH   7   9
ATOM      9  O   UNL     1       7.641  -6.068  27.794  0.00  0.00    -0.474 OA
ATOM     10  H   UNL     1       7.937  -5.683  28.653  0.00  0.00    +0.296 HD
ENDBRANCH   7   9
ENDBRANCH   2   7
BRANCH   1  11
ATOM     11  O   UNL     1       8.682  -5.187  24.075  0.00  0.00    -0.292 OA
ATOM     12  H   UNL     1       8.664  -5.344  23.109  0.00  0.00    +0.242 HD
ENDBRANCH   1  11
TORSDOF 4
ENDMDL
MODEL 4
REMARK VINA RESULT:      -4.1      1.824      2.679
REMARK  Name = 
REMARK  6 active torsions:
REMARK  status: ('A' for Active; 'I' for Inactive)
REMARK    1  A    between atoms: C_1  and  C_2
REMARK    2  A    between atoms: C_2  and  C_3
REMARK    3  A    between atoms: C_2  and  N_4
REMARK    4  A    between atoms: N_4  and  O_5
REMARK    5  A    between atoms: C_6  and  C_8
REMARK    6  A    between atoms: C_8  and  O_9
REMARK                            x       y       z     vdW  Elec       q    Type
REMARK                         _______ _______ _______ _____ _____    ______ ____
ROOT
ATOM      1  N   UNL     1       8.697  -3.272  23.739  0.00  0.00    -0.172 N 
ATOM      2  C   UNL     1       8.228  -4.548  24.008  0.00  0.00    +0.346 C 
ATOM      3  O   UNL     1       7.267  -5.094  23.459  0.00  0.00    -0.261 OA
ENDROOT
BRANCH   1   5
ATOM      4  C   UNL     1       7.002  -1.705  22.916  0.00  0.00    +0.030 C 
ATOM      5  C   UNL     1       8.243  -2.522  22.565  0.00  0.00    +0.100 C 
ATOM      6  C   UNL     1       9.340  -1.640  21.968  0.00  0.00    +0.030 C 
ENDBRANCH   1   5
BRANCH   2   7
ATOM      7  C   UNL     1       8.852  -5.314  25.193  0.00  0.00    +0.395 C 
ATOM      8  O   UNL     1       8.265  -5.687  26.189  0.00  0.00    -0.240 OA
BRANCH   7   9
ATOM      9  O   UNL     1      10.153  -5.587  24.921  0.00  0.00    -0.474 OA
ATOM     10  H   UNL     1      10.563  -4.788  24.512  0.00  0.00    +0.296 HD
ENDBRANCH   7   9
ENDBRANCH   2   7
BRANCH   1  11
ATOM     11  O   UNL     1      10.069  -3.048  24.000  0.00  0.00    -0.292 OA
ATOM     12  H   UNL     1      10.131  -2.072  23.973  0.00  0.00    +0.242 HD
ENDBRANCH   1  11
TORSDOF 4
ENDMDL
MODEL 5
REMARK VINA RESULT:      -4.0      4.153      5.055
REMARK  Name = 
REMARK  6 active torsions:
REMARK  status: ('A' for Active; 'I' for Inactive)
REMARK    1  A    between atoms: C_1  and  C_2
REMARK    2  A    between atoms: C_2  and  C_3
REMARK    3  A    between atoms: C_2  and  N_4
REMARK    4  A    between atoms: N_4  and  O_5
REMARK    5  A    between atoms: C_6  and  C_8
REMARK    6  A    between atoms: C_8  and  O_9
REMARK                            x       y       z     vdW  Elec       q    Type
REMARK                         _______ _______ _______ _____ _____    ______ ____
ROOT
ATOM      1  N   UNL     1       9.646  -0.325  23.607  0.00  0.00    -0.172 N 
ATOM      2  C   UNL     1      10.011  -1.607  23.230  0.00  0.00    +0.346 C 
ATOM      3  O   UNL     1      10.677  -1.903  22.234  0.00  0.00    -0.261 OA
ENDROOT
BRANCH   1   5
ATOM      4  C   UNL     1       9.398   1.308  21.797  0.00  0.00    +0.030 C 
ATOM      5  C   UNL     1      10.246   0.857  22.984  0.00  0.00    +0.100 C 
ATOM      6  C   UNL     1      10.467   1.999  23.975  0.00  0.00    +0.030 C 
ENDBRANCH   1   5
BRANCH   2   7
ATOM      7  C   UNL     1       9.423  -2.791  24.025  0.00  0.00    +0.395 C 
ATOM      8  O   UNL     1      10.028  -3.786  24.371  0.00  0.00    -0.240 OA
BRANCH   7   9
ATOM      9  O   UNL     1       8.137  -2.520  24.358  0.00  0.00    -0.474 OA
ATOM     10  H   UNL     1       7.869  -3.123  25.093  0.00  0.00    +0.296 HD
ENDBRANCH   7   9
ENDBRANCH   2   7
BRANCH   1  11
ATOM     11  O   UNL     1       9.423  -0.126  24.990  0.00  0.00    -0.292 OA
ATOM     12  H   UNL     1       8.710  -0.769  25.182  0.00  0.00    +0.242 HD
ENDBRANCH   1  11
TORSDOF 4
ENDMDL
MODEL 6
REMARK VINA RESULT:      -3.9      4.755      6.082
REMARK  Name = 
REMARK  6 active torsions:
REMARK  status: ('A' for Active; 'I' for Inactive)
REMARK    1  A    between atoms: C_1  and  C_2
REMARK    2  A    between atoms: C_2  and  C_3
REMARK    3  A    between atoms: C_2  and  N_4
REMARK    4  A    between atoms: N_4  and  O_5
REMARK    5  A    between atoms: C_6  and  C_8
REMARK    6  A    between atoms: C_8  and  O_9
REMARK                            x       y       z     vdW  Elec       q    Type
REMARK                         _______ _______ _______ _____ _____    ______ ____
ROOT
ATOM      1  N   UNL     1       8.627  -0.586  22.276  0.00  0.00    -0.172 N 
ATOM      2  C   UNL     1       8.575   0.677  22.843  0.00  0.00    +0.346 C 
ATOM      3  O   UNL     1       8.330   0.928  24.026  0.00  0.00    -0.261 OA
ENDROOT
BRANCH   1   5
ATOM      4  C   UNL     1       7.869  -2.913  22.412  0.00  0.00    +0.030 C 
ATOM      5  C   UNL     1       8.646  -1.795  23.103  0.00  0.00    +0.100 C 
ATOM      6  C   UNL     1      10.064  -2.242  23.461  0.00  0.00    +0.030 C 
ENDBRANCH   1   5
BRANCH   2   7
ATOM      7  C   UNL     1       8.686   1.896  21.905  0.00  0.00    +0.395 C 
ATOM      8  O   UNL     1       7.779   2.645  21.599  0.00  0.00    -0.240 OA
BRANCH   7   9
ATOM      9  O   UNL     1       9.978   2.064  21.529  0.00  0.00    -0.474 OA
ATOM     10  H   UNL     1      10.206   1.367  20.868  0.00  0.00    +0.296 HD
ENDBRANCH   7   9
ENDBRANCH   2   7
BRANCH   1  11
ATOM     11  O   UNL     1       9.455  -0.721  21.138  0.00  0.00    -0.292 OA
ATOM     12  H   UNL     1       9.432  -1.686  20.975  0.00  0.00    +0.242 HD
ENDBRANCH   1  11
TORSDOF 4
ENDMDL
MODEL 7
REMARK VINA RESULT:      -3.9      5.627      6.687
REMARK  Name = 
REMARK  6 active torsions:
REMARK  status: ('A' for Active; 'I' for Inactive)
REMARK    1  A    between atoms: C_1  and  C_2
REMARK    2  A    between atoms: C_2  and  C_3
REMARK    3  A    between atoms: C_2  and  N_4
REMARK    4  A    between atoms: N_4  and  O_5
REMARK    5  A    between atoms: C_6  and  C_8
REMARK    6  A    between atoms: C_8  and  O_9
REMARK                            x       y       z     vdW  Elec       q    Type
REMARK                         _______ _______ _______ _____ _____    ______ ____
ROOT
ATOM      1  N   UNL     1       9.722   1.286  23.790  0.00  0.00    -0.172 N 
ATOM      2  C   UNL     1       9.893   0.421  22.721  0.00  0.00    +0.346 C 
ATOM      3  O   UNL     1       9.746   0.709  21.530  0.00  0.00    -0.261 OA
ENDROOT
BRANCH   1   5
ATOM      4  C   UNL     1       8.769   3.341  24.723  0.00  0.00    +0.030 C 
ATOM      5  C   UNL     1       9.594   2.731  23.593  0.00  0.00    +0.100 C 
ATOM      6  C   UNL     1      10.947   3.430  23.451  0.00  0.00    +0.030 C 
ENDBRANCH   1   5
BRANCH   2   7
ATOM      7  C   UNL     1      10.146  -1.069  23.028  0.00  0.00    +0.395 C 
ATOM      8  O   UNL     1       9.991  -1.611  24.104  0.00  0.00    -0.240 OA
BRANCH   7   9
ATOM      9  O   UNL     1      10.494  -1.715  21.887  0.00  0.00    -0.474 OA
ATOM     10  H   UNL     1      10.005  -1.306  21.133  0.00  0.00    +0.296 HD
ENDBRANCH   7   9
ENDBRANCH   2   7
BRANCH   1  11
ATOM     11  O   UNL     1      10.466   0.984  24.955  0.00  0.00    -0.292 OA
ATOM     12  H   UNL     1      10.846   1.854  25.192  0.00  0.00    +0.242 HD
ENDBRANCH   1  11
TORSDOF 4
ENDMDL
MODEL 8
REMARK VINA RESULT:      -3.9      2.248      3.393
REMARK  Name = 
REMARK  6 active torsions:
REMARK  status: ('A' for Active; 'I' for Inactive)
REMARK    1  A    between atoms: C_1  and  C_2
REMARK    2  A    between atoms: C_2  and  C_3
REMARK    3  A    between atoms: C_2  and  N_4
REMARK    4  A    between atoms: N_4  and  O_5
REMARK    5  A    between atoms: C_6  and  C_8
REMARK    6  A    between atoms: C_8  and  O_9
REMARK                            x       y       z     vdW  Elec       q    Type
REMARK                         _______ _______ _______ _____ _____    ______ ____
ROOT
ATOM      1  N   UNL     1       8.066  -3.150  23.299  0.00  0.00    -0.172 N 
ATOM      2  C   UNL     1       9.396  -2.923  23.615  0.00  0.00    +0.346 C 
ATOM      3  O   UNL     1      10.102  -3.645  24.324  0.00  0.00    -0.261 OA
ENDROOT
BRANCH   1   5
ATOM      4  C   UNL     1       6.112  -4.212  24.327  0.00  0.00    +0.030 C 
ATOM      5  C   UNL     1       7.422  -4.436  23.576  0.00  0.00    +0.100 C 
ATOM      6  C   UNL     1       7.205  -5.271  22.314  0.00  0.00    +0.030 C 
ENDBRANCH   1   5
BRANCH   2   7
ATOM      7  C   UNL     1      10.028  -1.587  23.174  0.00  0.00    +0.395 C 
ATOM      8  O   UNL     1      10.259  -0.636  23.894  0.00  0.00    -0.240 OA
BRANCH   7   9
ATOM      9  O   UNL     1      10.369  -1.657  21.863  0.00  0.00    -0.474 OA
ATOM     10  H   UNL     1      10.938  -2.452  21.729  0.00  0.00    +0.296 HD
ENDBRANCH   7   9
ENDBRANCH   2   7
BRANCH   1  11
ATOM     11  O   UNL     1       7.617  -2.596  22.078  0.00  0.00    -0.292 OA
ATOM     12  H   UNL     1       7.800  -3.316  21.441  0.00  0.00    +0.242 HD
ENDBRANCH   1  11
TORSDOF 4
ENDMDL
MODEL 9
REMARK VINA RESULT:      -3.9      2.110      3.171
REMARK  Name = 
REMARK  6 active torsions:
REMARK  status: ('A' for Active; 'I' for Inactive)
REMARK    1  A    between atoms: C_1  and  C_2
REMARK    2  A    between atoms: C_2  and  C_3
REMARK    3  A    between atoms: C_2  and  N_4
REMARK    4  A    between atoms: N_4  and  O_5
REMARK    5  A    between atoms: C_6  and  C_8
REMARK    6  A    between atoms: C_8  and  O_9
REMARK                            x       y       z     vdW  Elec       q    Type
REMARK                         _______ _______ _______ _____ _____    ______ ____
ROOT
ATOM      1  N   UNL     1       8.238  -3.962  23.144  0.00  0.00    -0.172 N 
ATOM      2  C   UNL     1       8.268  -2.614  22.826  0.00  0.00    +0.346 C 
ATOM      3  O   UNL     1       7.345  -1.972  22.316  0.00  0.00    -0.261 OA
ENDROOT
BRANCH   1   5
ATOM      4  C   UNL     1       7.091  -5.897  22.171  0.00  0.00    +0.030 C 
ATOM      5  C   UNL     1       6.985  -4.721  23.140  0.00  0.00    +0.100 C 
ATOM      6  C   UNL     1       6.573  -5.187  24.537  0.00  0.00    +0.030 C 
ENDBRANCH   1   5
BRANCH   2   7
ATOM      7  C   UNL     1       9.607  -1.864  22.978  0.00  0.00    +0.395 C 
ATOM      8  O   UNL     1      10.121  -1.529  24.027  0.00  0.00    -0.240 OA
BRANCH   7   9
ATOM      9  O   UNL     1      10.178  -1.701  21.758  0.00  0.00    -0.474 OA
ATOM     10  H   UNL     1       9.671  -1.013  21.264  0.00  0.00    +0.296 HD
ENDBRANCH   7   9
ENDBRANCH   2   7
BRANCH   1  11
ATOM     11  O   UNL     1       9.089  -4.369  24.198  0.00  0.00    -0.292 OA
ATOM     12  H   UNL     1       8.595  -4.078  24.990  0.00  0.00    +0.242 HD
ENDBRANCH   1  11
TORSDOF 4
ENDMDL
