MODEL 1
REMARK VINA RESULT:      -7.3      0.000      0.000
REMARK  Name = 
REMARK  5 active torsions:
REMARK  status: ('A' for Active; 'I' for Inactive)
REMARK    1  A    between atoms: C_1  and  C_2
REMARK    2  A    between atoms: C_10  and  C_11
REMARK    3  A    between atoms: C_11  and  O_12
REMARK    4  A    between atoms: C_20  and  N_21
REMARK    5  A    between atoms: N_24  and  C_25
REMARK                            x       y       z     vdW  Elec       q    Type
REMARK                         _______ _______ _______ _____ _____    ______ ____
ROOT
ATOM      1  C   UNL     1       5.166   2.792  23.461  0.00  0.00    +0.034 C 
ATOM      2  C   UNL     1       5.999   2.200  24.599  0.00  0.00    +0.122 C 
ATOM      3  N   UNL     1       7.432   2.440  24.360  0.00  0.00    -0.337 N 
ATOM      4  C   UNL     1       8.001   3.702  24.432  0.00  0.00    +0.105 A 
ATOM      5  C   UNL     1       9.268   4.018  24.130  0.00  0.00    +0.122 A 
ATOM      6  C   UNL     1      10.144   2.915  23.698  0.00  0.00    +0.204 A 
ATOM      7  C   UNL     1       9.577   1.549  23.639  0.00  0.00    +0.052 A 
ATOM      8  C   UNL     1      10.397   0.504  23.237  0.00  0.00    +0.054 A 
ATOM      9  C   UNL     1       9.865  -0.771  23.131  0.00  0.00    +0.149 A 
ATOM     10  C   UNL     1       8.506  -1.066  23.408  0.00  0.00    +0.110 A 
ATOM     11  C   UNL     1       7.692   0.037  23.797  0.00  0.00    +0.168 A 
ATOM     12  O   UNL     1       6.347  -0.194  23.980  0.00  0.00    -0.486 OA
ATOM     13  F   UNL     1      10.691  -1.723  22.664  0.00  0.00    -0.203 F 
ATOM     14  O   UNL     1      11.311   3.142  23.386  0.00  0.00    -0.286 OA
ATOM     15  C   UNL     1       8.216   1.343  23.940  0.00  0.00    +0.097 A 
ATOM     16  C   UNL     1       5.685   0.724  24.844  0.00  0.00    +0.254 C 
ENDROOT
BRANCH  10  17
ATOM     17  N   UNL     1       8.046  -2.370  23.252  0.00  0.00    -0.322 N 
ATOM     18  C   UNL     1       7.416  -2.813  21.991  0.00  0.00    +0.120 C 
ATOM     19  C   UNL     1       6.234  -3.764  22.299  0.00  0.00    +0.103 C 
ATOM     20  N   UNL     1       6.565  -4.916  23.171  0.00  0.00    -0.302 NA
ATOM     21  C   UNL     1       7.388  -5.899  22.475  0.00  0.00    +0.105 C 
ATOM     22  C   UNL     1       7.241  -4.410  24.387  0.00  0.00    +0.103 C 
ATOM     23  C   UNL     1       8.438  -3.459  24.146  0.00  0.00    +0.120 C 
ENDBRANCH  10  17
BRANCH   5  24
ATOM     24  C   UNL     1       9.705   5.428  24.212  0.00  0.00    +0.342 C 
ATOM     25  O   UNL     1       9.626   6.096  25.235  0.00  0.00    -0.245 OA
BRANCH  24  26
ATOM     26  O   UNL     1      10.185   5.932  23.057  0.00  0.00    -0.477 OA
ATOM     27  H   UNL     1       9.490   6.136  22.385  0.00  0.00    +0.295 HD
ENDBRANCH  24  26
ENDBRANCH   5  24
TORSDOF 3
ENDMDL
MODEL 2
REMARK VINA RESULT:      -7.2      3.922      7.934
REMARK  Name = 
REMARK  5 active torsions:
REMARK  status: ('A' for Active; 'I' for Inactive)
REMARK    1  A    between atoms: C_1  and  C_2
REMARK    2  A    between atoms: C_10  and  C_11
REMARK    3  A    between atoms: C_11  and  O_12
REMARK    4  A    between atoms: C_20  and  N_21
REMARK    5  A    between atoms: N_24  and  C_25
REMARK                            x       y       z     vdW  Elec       q    Type
REMARK                         _______ _______ _______ _____ _____    ______ ____
ROOT
ATOM      1  C   UNL     1       3.857  -4.813  23.014  0.00  0.00    +0.034 C 
ATOM      2  C   UNL     1       5.316  -5.245  23.174  0.00  0.00    +0.122 C 
ATOM      3  N   UNL     1       5.709  -5.194  24.592  0.00  0.00    -0.337 N 
ATOM      4  C   UNL     1       5.213  -6.079  25.537  0.00  0.00    +0.105 A 
ATOM      5  C   UNL     1       5.441  -6.037  26.857  0.00  0.00    +0.122 A 
ATOM      6  C   UNL     1       6.317  -4.958  27.348  0.00  0.00    +0.204 A 
ATOM      7  C   UNL     1       6.888  -4.014  26.361  0.00  0.00    +0.052 A 
ATOM      8  C   UNL     1       7.719  -2.999  26.814  0.00  0.00    +0.054 A 
ATOM      9  C   UNL     1       8.221  -2.079  25.908  0.00  0.00    +0.149 A 
ATOM     10  C   UNL     1       7.921  -2.119  24.523  0.00  0.00    +0.110 A 
ATOM     11  C   UNL     1       7.049  -3.164  24.100  0.00  0.00    +0.168 A 
ATOM     12  O   UNL     1       6.658  -3.176  22.779  0.00  0.00    -0.486 OA
ATOM     13  F   UNL     1       8.954  -1.077  26.422  0.00  0.00    -0.203 F 
ATOM     14  O   UNL     1       6.548  -4.852  28.550  0.00  0.00    -0.286 OA
ATOM     15  C   UNL     1       6.544  -4.131  25.000  0.00  0.00    +0.097 A 
ATOM     16  C   UNL     1       6.261  -4.447  22.275  0.00  0.00    +0.254 C 
ENDROOT
BRANCH  10  17
ATOM     17  N   UNL     1       8.446  -1.142  23.682  0.00  0.00    -0.322 N 
ATOM     18  C   UNL     1       7.898   0.230  23.668  0.00  0.00    +0.120 C 
ATOM     19  C   UNL     1       7.875   0.773  22.218  0.00  0.00    +0.103 C 
ATOM     20  N   UNL     1       9.171   0.701  21.501  0.00  0.00    -0.302 NA
ATOM     21  C   UNL     1      10.130   1.669  22.023  0.00  0.00    +0.105 C 
ATOM     22  C   UNL     1       9.692  -0.681  21.601  0.00  0.00    +0.103 C 
ATOM     23  C   UNL     1       9.747  -1.279  23.027  0.00  0.00    +0.120 C 
ENDBRANCH  10  17
BRANCH   5  24
ATOM     24  C   UNL     1       4.792  -7.030  27.739  0.00  0.00    +0.342 C 
ATOM     25  O   UNL     1       3.577  -7.129  27.857  0.00  0.00    -0.245 OA
BRANCH  24  26
ATOM     26  O   UNL     1       5.648  -7.816  28.422  0.00  0.00    -0.477 OA
ATOM     27  H   UNL     1       5.584  -7.724  29.404  0.00  0.00    +0.295 HD
ENDBRANCH  24  26
ENDBRANCH   5  24
TORSDOF 3
ENDMDL
MODEL 3
REMARK VINA RESULT:      -7.1      2.456      3.414
REMARK  Name = 
REMARK  5 active torsions:
REMARK  status: ('A' for Active; 'I' for Inactive)
REMARK    1  A    between atoms: C_1  and  C_2
REMARK    2  A    between atoms: C_10  and  C_11
REMARK    3  A    between atoms: C_11  and  O_12
REMARK    4  A    between atoms: C_20  and  N_21
REMARK    5  A    between atoms: N_24  and  C_25
REMARK                            x       y       z     vdW  Elec       q    Type
REMARK                         _______ _______ _______ _____ _____    ______ ____
ROOT
ATOM      1  C   UNL     1       6.277   1.374  26.178  0.00  0.00    +0.034 C 
ATOM      2  C   UNL     1       7.392   0.339  26.348  0.00  0.00    +0.122 C 
ATOM      3  N   UNL     1       8.102   0.143  25.073  0.00  0.00    -0.337 N 
ATOM      4  C   UNL     1       8.917   1.115  24.515  0.00  0.00    +0.105 A 
ATOM      5  C   UNL     1       9.515   1.054  23.316  0.00  0.00    +0.122 A 
ATOM      6  C   UNL     1       9.297  -0.171  22.525  0.00  0.00    +0.204 A 
ATOM      7  C   UNL     1       8.456  -1.241  23.106  0.00  0.00    +0.052 A 
ATOM      8  C   UNL     1       8.251  -2.400  22.370  0.00  0.00    +0.054 A 
ATOM      9  C   UNL     1       7.426  -3.389  22.880  0.00  0.00    +0.149 A 
ATOM     10  C   UNL     1       6.767  -3.275  24.130  0.00  0.00    +0.110 A 
ATOM     11  C   UNL     1       6.986  -2.062  24.846  0.00  0.00    +0.168 A 
ATOM     12  O   UNL     1       6.285  -1.875  26.017  0.00  0.00    -0.486 OA
ATOM     13  F   UNL     1       7.208  -4.450  22.085  0.00  0.00    -0.203 F 
ATOM     14  O   UNL     1       9.799  -0.279  21.409  0.00  0.00    -0.286 OA
ATOM     15  C   UNL     1       7.844  -1.048  24.360  0.00  0.00    +0.097 A 
ATOM     16  C   UNL     1       6.882  -0.973  26.944  0.00  0.00    +0.254 C 
ENDROOT
BRANCH  10  17
ATOM     17  N   UNL     1       5.934  -4.305  24.559  0.00  0.00    -0.322 N 
ATOM     18  C   UNL     1       4.532  -4.396  24.102  0.00  0.00    +0.120 C 
ATOM     19  C   UNL     1       3.628  -4.866  25.267  0.00  0.00    +0.103 C 
ATOM     20  N   UNL     1       4.062  -6.118  25.933  0.00  0.00    -0.302 NA
ATOM     21  C   UNL     1       3.849  -7.282  25.081  0.00  0.00    +0.105 C 
ATOM     22  C   UNL     1       5.486  -5.982  26.315  0.00  0.00    +0.103 C 
ATOM     23  C   UNL     1       6.444  -5.522  25.190  0.00  0.00    +0.120 C 
ENDBRANCH  10  17
BRANCH   5  24
ATOM     24  C   UNL     1      10.315   2.203  22.843  0.00  0.00    +0.342 C 
ATOM     25  O   UNL     1      10.942   2.938  23.596  0.00  0.00    -0.245 OA
BRANCH  24  26
ATOM     26  O   UNL     1      10.286   2.394  21.509  0.00  0.00    -0.477 OA
ATOM     27  H   UNL     1      10.460   3.326  21.230  0.00  0.00    +0.295 HD
ENDBRANCH  24  26
ENDBRANCH   5  24
TORSDOF 3
ENDMDL
MODEL 4
REMARK VINA RESULT:      -7.0      2.623      6.884
REMARK  Name = 
REMARK  5 active torsions:
REMARK  status: ('A' for Active; 'I' for Inactive)
REMARK    1  A    between atoms: C_1  and  C_2
REMARK    2  A    between atoms: C_10  and  C_11
REMARK    3  A    between atoms: C_11  and  O_12
REMARK    4  A    between atoms: C_20  and  N_21
REMARK    5  A    between atoms: N_24  and  C_25
REMARK                            x       y       z     vdW  Elec       q    Type
REMARK                         _______ _______ _______ _____ _____    ______ ____
ROOT
ATOM      1  C   UNL     1       6.412  -0.554  27.129  0.00  0.00    +0.034 C 
ATOM      2  C   UNL     1       6.086  -0.488  25.636  0.00  0.00    +0.122 C 
ATOM      3  N   UNL     1       7.209  -1.019  24.846  0.00  0.00    -0.337 N 
ATOM      4  C   UNL     1       7.550  -2.363  24.840  0.00  0.00    +0.105 A 
ATOM      5  C   UNL     1       8.613  -2.907  24.232  0.00  0.00    +0.122 A 
ATOM      6  C   UNL     1       9.493  -1.992  23.483  0.00  0.00    +0.204 A 
ATOM      7  C   UNL     1       9.141  -0.555  23.444  0.00  0.00    +0.052 A 
ATOM      8  C   UNL     1       9.962   0.313  22.737  0.00  0.00    +0.054 A 
ATOM      9  C   UNL     1       9.672   1.667  22.732  0.00  0.00    +0.149 A 
ATOM     10  C   UNL     1       8.568   2.221  23.428  0.00  0.00    +0.110 A 
ATOM     11  C   UNL     1       7.761   1.301  24.159  0.00  0.00    +0.168 A 
ATOM     12  O   UNL     1       6.738   1.816  24.924  0.00  0.00    -0.486 OA
ATOM     13  F   UNL     1      10.548   2.461  22.094  0.00  0.00    -0.203 F 
ATOM     14  O   UNL     1      10.497  -2.426  22.922  0.00  0.00    -0.286 OA
ATOM     15  C   UNL     1       8.020  -0.089  24.158  0.00  0.00    +0.097 A 
ATOM     16  C   UNL     1       5.668   0.915  25.193  0.00  0.00    +0.254 C 
ENDROOT
BRANCH  10  17
ATOM     17  N   UNL     1       8.360   3.597  23.393  0.00  0.00    -0.322 N 
ATOM     18  C   UNL     1       7.183   4.176  22.712  0.00  0.00    +0.120 C 
ATOM     19  C   UNL     1       7.586   5.480  21.982  0.00  0.00    +0.103 C 
ATOM     20  N   UNL     1       8.271   6.487  22.828  0.00  0.00    -0.302 NA
ATOM     21  C   UNL     1       7.352   7.108  23.776  0.00  0.00    +0.105 C 
ATOM     22  C   UNL     1       9.402   5.832  23.523  0.00  0.00    +0.103 C 
ATOM     23  C   UNL     1       9.062   4.525  24.279  0.00  0.00    +0.120 C 
ENDBRANCH  10  17
BRANCH   5  24
ATOM     24  C   UNL     1       8.863  -4.358  24.366  0.00  0.00    +0.342 C 
ATOM     25  O   UNL     1       8.005  -5.207  24.162  0.00  0.00    -0.245 OA
BRANCH  24  26
ATOM     26  O   UNL     1      10.116  -4.676  24.750  0.00  0.00    -0.477 OA
ATOM     27  H   UNL     1      10.475  -5.491  24.321  0.00  0.00    +0.295 HD
ENDBRANCH  24  26
ENDBRANCH   5  24
TORSDOF 3
ENDMDL
MODEL 5
REMARK VINA RESULT:      -6.9      2.518      3.647
REMARK  Name = 
REMARK  5 active torsions:
REMARK  status: ('A' for Active; 'I' for Inactive)
REMARK    1  A    between atoms: C_1  and  C_2
REMARK    2  A    between atoms: C_10  and  C_11
REMARK    3  A    between atoms: C_11  and  O_12
REMARK    4  A    between atoms: C_20  and  N_21
REMARK    5  A    between atoms: N_24  and  C_25
REMARK                            x       y       z     vdW  Elec       q    Type
REMARK                         _______ _______ _______ _____ _____    ______ ____
ROOT
ATOM      1  C   UNL     1       5.427   1.492  25.088  0.00  0.00    +0.034 C 
ATOM      2  C   UNL     1       6.560   0.929  25.949  0.00  0.00    +0.122 C 
ATOM      3  N   UNL     1       7.681   0.499  25.097  0.00  0.00    -0.337 N 
ATOM      4  C   UNL     1       8.482   1.395  24.406  0.00  0.00    +0.105 A 
ATOM      5  C   UNL     1       9.452   1.083  23.535  0.00  0.00    +0.122 A 
ATOM      6  C   UNL     1       9.702  -0.351  23.304  0.00  0.00    +0.204 A 
ATOM      7  C   UNL     1       8.885  -1.336  24.049  0.00  0.00    +0.052 A 
ATOM      8  C   UNL     1       9.118  -2.688  23.841  0.00  0.00    +0.054 A 
ATOM      9  C   UNL     1       8.328  -3.620  24.494  0.00  0.00    +0.149 A 
ATOM     10  C   UNL     1       7.275  -3.257  25.372  0.00  0.00    +0.110 A 
ATOM     11  C   UNL     1       7.053  -1.860  25.543  0.00  0.00    +0.168 A 
ATOM     12  O   UNL     1       5.978  -1.472  26.311  0.00  0.00    -0.486 OA
ATOM     13  F   UNL     1       8.554  -4.909  24.191  0.00  0.00    -0.203 F 
ATOM     14  O   UNL     1      10.563  -0.704  22.502  0.00  0.00    -0.286 OA
ATOM     15  C   UNL     1       7.863  -0.889  24.909  0.00  0.00    +0.097 A 
ATOM     16  C   UNL     1       6.082  -0.176  26.892  0.00  0.00    +0.254 C 
ENDROOT
BRANCH  10  17
ATOM     17  N   UNL     1       6.511  -4.256  25.970  0.00  0.00    -0.322 N 
ATOM     18  C   UNL     1       6.580  -4.504  27.425  0.00  0.00    +0.120 C 
ATOM     19  C   UNL     1       6.513  -6.025  27.703  0.00  0.00    +0.103 C 
ATOM     20  N   UNL     1       5.359  -6.725  27.090  0.00  0.00    -0.302 NA
ATOM     21  C   UNL     1       4.106  -6.382  27.755  0.00  0.00    +0.105 C 
ATOM     22  C   UNL     1       5.314  -6.392  25.649  0.00  0.00    +0.103 C 
ATOM     23  C   UNL     1       5.370  -4.884  25.304  0.00  0.00    +0.120 C 
ENDBRANCH  10  17
BRANCH   5  24
ATOM     24  C   UNL     1      10.183   2.164  22.842  0.00  0.00    +0.342 C 
ATOM     25  O   UNL     1      10.793   3.046  23.432  0.00  0.00    -0.245 OA
BRANCH  24  26
ATOM     26  O   UNL     1      10.111   2.114  21.496  0.00  0.00    -0.477 OA
ATOM     27  H   UNL     1      10.183   2.995  21.055  0.00  0.00    +0.295 HD
ENDBRANCH  24  26
ENDBRANCH   5  24
TORSDOF 3
ENDMDL
MODEL 6
REMARK VINA RESULT:      -6.8      3.162      7.519
REMARK  Name = 
REMARK  5 active torsions:
REMARK  status: ('A' for Active; 'I' for Inactive)
REMARK    1  A    between atoms: C_1  and  C_2
REMARK    2  A    between atoms: C_10  and  C_11
REMARK    3  A    between atoms: C_11  and  O_12
REMARK    4  A    between atoms: C_20  and  N_21
REMARK    5  A    between atoms: N_24  and  C_25
REMARK                            x       y       z     vdW  Elec       q    Type
REMARK                         _______ _______ _______ _____ _____    ______ ____
ROOT
ATOM      1  C   UNL     1       5.136  -2.738  27.386  0.00  0.00    +0.034 C 
ATOM      2  C   UNL     1       4.663  -2.216  26.028  0.00  0.00    +0.122 C 
ATOM      3  N   UNL     1       5.035  -3.160  24.962  0.00  0.00    -0.337 N 
ATOM      4  C   UNL     1       4.444  -4.407  24.828  0.00  0.00    +0.105 A 
ATOM      5  C   UNL     1       4.794  -5.359  23.952  0.00  0.00    +0.122 A 
ATOM      6  C   UNL     1       5.901  -5.043  23.032  0.00  0.00    +0.204 A 
ATOM      7  C   UNL     1       6.534  -3.708  23.128  0.00  0.00    +0.052 A 
ATOM      8  C   UNL     1       7.574  -3.401  22.261  0.00  0.00    +0.054 A 
ATOM      9  C   UNL     1       8.208  -2.174  22.373  0.00  0.00    +0.149 A 
ATOM     10  C   UNL     1       7.848  -1.205  23.344  0.00  0.00    +0.110 A 
ATOM     11  C   UNL     1       6.790  -1.566  24.228  0.00  0.00    +0.168 A 
ATOM     12  O   UNL     1       6.479  -0.691  25.245  0.00  0.00    -0.486 OA
ATOM     13  F   UNL     1       9.256  -1.969  21.557  0.00  0.00    -0.203 F 
ATOM     14  O   UNL     1       6.285  -5.881  22.220  0.00  0.00    -0.286 OA
ATOM     15  C   UNL     1       6.109  -2.801  24.118  0.00  0.00    +0.097 A 
ATOM     16  C   UNL     1       5.151  -0.794  25.750  0.00  0.00    +0.254 C 
ENDROOT
BRANCH  10  17
ATOM     17  N   UNL     1       8.552  -0.006  23.405  0.00  0.00    -0.322 N 
ATOM     18  C   UNL     1       8.272   1.094  22.460  0.00  0.00    +0.120 C 
ATOM     19  C   UNL     1       9.595   1.787  22.051  0.00  0.00    +0.103 C 
ATOM     20  N   UNL     1      10.438   2.246  23.181  0.00  0.00    -0.302 NA
ATOM     21  C   UNL     1       9.852   3.399  23.856  0.00  0.00    +0.105 C 
ATOM     22  C   UNL     1      10.634   1.115  24.116  0.00  0.00    +0.103 C 
ATOM     23  C   UNL     1       9.347   0.385  24.569  0.00  0.00    +0.120 C 
ENDBRANCH  10  17
BRANCH   5  24
ATOM     24  C   UNL     1       4.093  -6.660  23.973  0.00  0.00    +0.342 C 
ATOM     25  O   UNL     1       4.245  -7.489  24.862  0.00  0.00    -0.245 OA
BRANCH  24  26
ATOM     26  O   UNL     1       3.278  -6.874  22.920  0.00  0.00    -0.477 OA
ATOM     27  H   UNL     1       2.805  -7.741  22.946  0.00  0.00    +0.295 HD
ENDBRANCH  24  26
ENDBRANCH   5  24
TORSDOF 3
ENDMDL
MODEL 7
REMARK VINA RESULT:      -6.6      3.654      8.069
REMARK  Name = 
REMARK  5 active torsions:
REMARK  status: ('A' for Active; 'I' for Inactive)
REMARK    1  A    between atoms: C_1  and  C_2
REMARK    2  A    between atoms: C_10  and  C_11
REMARK    3  A    between atoms: C_11  and  O_12
REMARK    4  A    between atoms: C_20  and  N_21
REMARK    5  A    between atoms: N_24  and  C_25
REMARK                            x       y       z     vdW  Elec       q    Type
REMARK                         _______ _______ _______ _____ _____    ______ ____
ROOT
ATOM      1  C   UNL     1       5.312  -5.126  22.299  0.00  0.00    +0.034 C 
ATOM      2  C   UNL     1       6.622  -5.215  23.085  0.00  0.00    +0.122 C 
ATOM      3  N   UNL     1       6.367  -5.021  24.522  0.00  0.00    -0.337 N 
ATOM      4  C   UNL     1       5.694  -5.954  25.295  0.00  0.00    +0.105 A 
ATOM      5  C   UNL     1       5.334  -5.809  26.578  0.00  0.00    +0.122 A 
ATOM      6  C   UNL     1       5.707  -4.543  27.234  0.00  0.00    +0.204 A 
ATOM      7  C   UNL     1       6.453  -3.536  26.446  0.00  0.00    +0.052 A 
ATOM      8  C   UNL     1       6.813  -2.344  27.059  0.00  0.00    +0.054 A 
ATOM      9  C   UNL     1       7.468  -1.373  26.319  0.00  0.00    +0.149 A 
ATOM     10  C   UNL     1       7.790  -1.536  24.947  0.00  0.00    +0.110 A 
ATOM     11  C   UNL     1       7.387  -2.765  24.349  0.00  0.00    +0.168 A 
ATOM     12  O   UNL     1       7.596  -2.917  22.997  0.00  0.00    -0.486 OA
ATOM     13  F   UNL     1       7.719  -0.213  26.948  0.00  0.00    -0.203 F 
ATOM     14  O   UNL     1       5.388  -4.339  28.403  0.00  0.00    -0.286 OA
ATOM     15  C   UNL     1       6.740  -3.782  25.089  0.00  0.00    +0.097 A 
ATOM     16  C   UNL     1       7.691  -4.265  22.545  0.00  0.00    +0.254 C 
ENDROOT
BRANCH  10  17
ATOM     17  N   UNL     1       8.429  -0.501  24.269  0.00  0.00    -0.322 N 
ATOM     18  C   UNL     1       9.884  -0.535  24.018  0.00  0.00    +0.120 C 
ATOM     19  C   UNL     1      10.480   0.884  24.183  0.00  0.00    +0.103 C 
ATOM     20  N   UNL     1       9.818   1.940  23.381  0.00  0.00    -0.302 NA
ATOM     21  C   UNL     1      10.115   1.802  21.959  0.00  0.00    +0.105 C 
ATOM     22  C   UNL     1       8.361   1.884  23.635  0.00  0.00    +0.103 C 
ATOM     23  C   UNL     1       7.703   0.492  23.479  0.00  0.00    +0.120 C 
ENDBRANCH  10  17
BRANCH   5  24
ATOM     24  C   UNL     1       4.572  -6.885  27.246  0.00  0.00    +0.342 C 
ATOM     25  O   UNL     1       3.414  -7.162  26.960  0.00  0.00    -0.245 OA
BRANCH  24  26
ATOM     26  O   UNL     1       5.250  -7.531  28.216  0.00  0.00    -0.477 OA
ATOM     27  H   UNL     1       6.001  -7.015  28.596  0.00  0.00    +0.295 HD
ENDBRANCH  24  26
ENDBRANCH   5  24
TORSDOF 3
ENDMDL
MODEL 8
REMARK VINA RESULT:      -6.6      3.124      7.730
REMARK  Name = 
REMARK  5 active torsions:
REMARK  status: ('A' for Active; 'I' for Inactive)
REMARK    1  A    between atoms: C_1  and  C_2
REMARK    2  A    between atoms: C_10  and  C_11
REMARK    3  A    between atoms: C_11  and  O_12
REMARK    4  A    between atoms: C_20  and  N_21
REMARK    5  A    between atoms: N_24  and  C_25
REMARK                            x       y       z     vdW  Elec       q    Type
REMARK                         _______ _______ _______ _____ _____    ______ ____
ROOT
ATOM      1  C   UNL     1       6.070  -3.838  21.697  0.00  0.00    +0.034 C 
ATOM      2  C   UNL     1       7.337  -3.878  22.556  0.00  0.00    +0.122 C 
ATOM      3  N   UNL     1       6.982  -3.933  23.984  0.00  0.00    -0.337 N 
ATOM      4  C   UNL     1       6.400  -5.048  24.567  0.00  0.00    +0.105 A 
ATOM      5  C   UNL     1       5.957  -5.141  25.829  0.00  0.00    +0.122 A 
ATOM      6  C   UNL     1       6.120  -3.950  26.681  0.00  0.00    +0.204 A 
ATOM      7  C   UNL     1       6.766  -2.752  26.098  0.00  0.00    +0.052 A 
ATOM      8  C   UNL     1       6.929  -1.628  26.897  0.00  0.00    +0.054 A 
ATOM      9  C   UNL     1       7.487  -0.484  26.349  0.00  0.00    +0.149 A 
ATOM     10  C   UNL     1       7.900  -0.400  24.996  0.00  0.00    +0.110 A 
ATOM     11  C   UNL     1       7.698  -1.567  24.204  0.00  0.00    +0.168 A 
ATOM     12  O   UNL     1       7.997  -1.489  22.862  0.00  0.00    -0.486 OA
ATOM     13  F   UNL     1       7.546   0.591  27.152  0.00  0.00    -0.203 F 
ATOM     14  O   UNL     1       5.715  -3.963  27.841  0.00  0.00    -0.286 OA
ATOM     15  C   UNL     1       7.155  -2.756  24.744  0.00  0.00    +0.097 A 
ATOM     16  C   UNL     1       8.296  -2.732  22.233  0.00  0.00    +0.254 C 
ENDROOT
BRANCH  10  17
ATOM     17  N   UNL     1       8.430   0.796  24.518  0.00  0.00    -0.322 N 
ATOM     18  C   UNL     1       7.554   1.864  23.992  0.00  0.00    +0.120 C 
ATOM     19  C   UNL     1       8.217   2.531  22.763  0.00  0.00    +0.103 C 
ATOM     20  N   UNL     1       9.597   3.025  22.986  0.00  0.00    -0.302 NA
ATOM     21  C   UNL     1       9.616   4.206  23.843  0.00  0.00    +0.105 C 
ATOM     22  C   UNL     1      10.406   1.927  23.562  0.00  0.00    +0.103 C 
ATOM     23  C   UNL     1       9.800   1.223  24.800  0.00  0.00    +0.120 C 
ENDBRANCH  10  17
BRANCH   5  24
ATOM     24  C   UNL     1       5.311  -6.391  26.282  0.00  0.00    +0.342 C 
ATOM     25  O   UNL     1       4.483  -6.997  25.615  0.00  0.00    -0.245 OA
BRANCH  24  26
ATOM     26  O   UNL     1       5.695  -6.806  27.506  0.00  0.00    -0.477 OA
ATOM     27  H   UNL     1       6.600  -6.509  27.768  0.00  0.00    +0.295 HD
ENDBRANCH  24  26
ENDBRANCH   5  24
TORSDOF 3
ENDMDL
MODEL 9
REMARK VINA RESULT:      -6.6      3.834      7.447
REMARK  Name = 
REMARK  5 active torsions:
REMARK  status: ('A' for Active; 'I' for Inactive)
REMARK    1  A    between atoms: C_1  and  C_2
REMARK    2  A    between atoms: C_10  and  C_11
REMARK    3  A    between atoms: C_11  and  O_12
REMARK    4  A    between atoms: C_20  and  N_21
REMARK    5  A    between atoms: N_24  and  C_25
REMARK                            x       y       z     vdW  Elec       q    Type
REMARK                         _______ _______ _______ _____ _____    ______ ____
ROOT
ATOM      1  C   UNL     1       4.603  -0.999  28.339  0.00  0.00    +0.034 C 
ATOM      2  C   UNL     1       4.503  -1.768  27.019  0.00  0.00    +0.122 C 
ATOM      3  N   UNL     1       5.323  -2.989  27.078  0.00  0.00    -0.337 N 
ATOM      4  C   UNL     1       4.995  -4.072  27.878  0.00  0.00    +0.105 A 
ATOM      5  C   UNL     1       5.737  -5.173  28.064  0.00  0.00    +0.122 A 
ATOM      6  C   UNL     1       7.015  -5.245  27.334  0.00  0.00    +0.204 A 
ATOM      7  C   UNL     1       7.381  -4.119  26.446  0.00  0.00    +0.052 A 
ATOM      8  C   UNL     1       8.581  -4.182  25.751  0.00  0.00    +0.054 A 
ATOM      9  C   UNL     1       8.959  -3.113  24.955  0.00  0.00    +0.149 A 
ATOM     10  C   UNL     1       8.176  -1.939  24.817  0.00  0.00    +0.110 A 
ATOM     11  C   UNL     1       6.962  -1.903  25.563  0.00  0.00    +0.168 A 
ATOM     12  O   UNL     1       6.225  -0.741  25.531  0.00  0.00    -0.486 OA
ATOM     13  F   UNL     1      10.166  -3.204  24.370  0.00  0.00    -0.203 F 
ATOM     14  O   UNL     1       7.752  -6.218  27.478  0.00  0.00    -0.286 OA
ATOM     15  C   UNL     1       6.540  -2.992  26.361  0.00  0.00    +0.097 A 
ATOM     16  C   UNL     1       4.837  -0.894  25.810  0.00  0.00    +0.254 C 
ENDROOT
BRANCH  10  17
ATOM     17  N   UNL     1       8.640  -0.899  24.017  0.00  0.00    -0.322 N 
ATOM     18  C   UNL     1       8.161  -0.730  22.629  0.00  0.00    +0.120 C 
ATOM     19  C   UNL     1       9.331  -0.282  21.719  0.00  0.00    +0.103 C 
ATOM     20  N   UNL     1      10.067   0.917  22.187  0.00  0.00    -0.302 NA
ATOM     21  C   UNL     1       9.270   2.130  22.037  0.00  0.00    +0.105 C 
ATOM     22  C   UNL     1      10.469   0.706  23.596  0.00  0.00    +0.103 C 
ATOM     23  C   UNL     1       9.341   0.264  24.559  0.00  0.00    +0.120 C 
ENDBRANCH  10  17
BRANCH   5  24
ATOM     24  C   UNL     1       5.265  -6.219  28.996  0.00  0.00    +0.342 C 
ATOM     25  O   UNL     1       4.780  -5.971  30.092  0.00  0.00    -0.245 OA
BRANCH  24  26
ATOM     26  O   UNL     1       5.428  -7.481  28.548  0.00  0.00    -0.477 OA
ATOM     27  H   UNL     1       5.019  -8.170  29.128  0.00  0.00    +0.295 HD
ENDBRANCH  24  26
ENDBRANCH   5  24
TORSDOF 3
ENDMDL
