MODEL 1
REMARK VINA RESULT:      -7.0      0.000      0.000
REMARK  Name = 
REMARK  35 active torsions:
REMARK  status: ('A' for Active; 'I' for Inactive)
REMARK    1  A    between atoms: C_1  and  C_2
REMARK    2  A    between atoms: C_2  and  C_3
REMARK    3  A    between atoms: C_2  and  C_4
REMARK    4  A    between atoms: C_2  and  C_40
REMARK    5  A    between atoms: C_4  and  O_5
REMARK    6  A    between atoms: O_5  and  P_6
REMARK    7  A    between atoms: P_6  and  O_9
REMARK    8  A    between atoms: O_9  and  P_10
REMARK    9  A    between atoms: P_10  and  O_11
REMARK   10  A    between atoms: P_10  and  O_13
REMARK   11  A    between atoms: O_13  and  C_14
REMARK   12  A    between atoms: C_14  and  C_15
REMARK   13  A    between atoms: C_18  and  N_30
REMARK   14  A    between atoms: C_20  and  O_22
REMARK   15  A    between atoms: C_23  and  O_25
REMARK   16  A    between atoms: O_25  and  P_26
REMARK   17  A    between atoms: P_26  and  O_27
REMARK   18  A    between atoms: P_26  and  O_28
REMARK   19  A    between atoms: C_40  and  O_42
REMARK   20  A    between atoms: C_40  and  C_43
REMARK   21  A    between atoms: N_45  and  C_46
REMARK   22  A    between atoms: C_46  and  C_47
REMARK   23  A    between atoms: C_47  and  C_48
REMARK   24  A    between atoms: N_50  and  C_51
REMARK   25  A    between atoms: C_51  and  C_52
REMARK   26  A    between atoms: C_52  and  S_53
REMARK   27  A    between atoms: S_53  and  C_54
REMARK   28  A    between atoms: C_54  and  C_56
REMARK   29  A    between atoms: C_56  and  C_57
REMARK   30  A    between atoms: C_57  and  O_59
REMARK   31  A    between atoms: C_57  and  C_60
REMARK   32  A    between atoms: C_60  and  N_61
REMARK   33  A    between atoms: N_61  and  C_62
REMARK   34  A    between atoms: N_61  and  C_63
REMARK   35  A    between atoms: N_61  and  C_64
REMARK                            x       y       z     vdW  Elec       q    Type
REMARK                         _______ _______ _______ _____ _____    ______ ____
ROOT
ATOM      1  P   UNL     1       8.093  -3.288  23.291  0.00  0.00    +0.222 P 
ATOM      2  O   UNL     1       7.145  -2.244  23.904  0.00  0.00    -0.437 OA
ATOM      3  O   UNL     1       8.583  -4.187  24.406  0.00  0.00    -0.517 OA
ENDROOT
BRANCH   1   4
ATOM      4  O   UNL     1       7.449  -4.460  22.174  0.00  0.00    -0.229 OA
BRANCH   4   5
ATOM      5  P   UNL     1       5.961  -5.061  22.819  0.00  0.00    +0.480 P 
ATOM      6  O   UNL     1       5.806  -6.039  21.645  0.00  0.00    -0.227 OA
BRANCH   5   7
ATOM      7  O   UNL     1       5.050  -3.799  22.334  0.00  0.00    -0.302 OA
ATOM      8  H   UNL     1       4.075  -3.792  22.545  0.00  0.00    +0.222 HD
ENDBRANCH   5   7
BRANCH   5   9
ATOM      9  O   UNL     1       4.472  -5.662  23.464  0.00  0.00    -0.284 OA
BRANCH   9  10
ATOM     10  C   UNL     1       3.662  -4.537  24.083  0.00  0.00    +0.206 C 
BRANCH  10  11
ATOM     11  C   UNL     1       3.821  -4.310  25.649  0.00  0.00    +0.179 C 
ATOM     12  C   UNL     1       5.176  -4.663  26.369  0.00  0.00    +0.194 C 
ATOM     13  C   UNL     1       5.687  -3.328  26.948  0.00  0.00    +0.196 C 
ATOM     14  C   UNL     1       4.769  -2.265  26.357  0.00  0.00    +0.253 C 
ATOM     15  O   UNL     1       3.551  -2.937  25.985  0.00  0.00    -0.346 OA
BRANCH  14  16
ATOM     16  N   UNL     1       4.403  -1.246  27.330  0.00  0.00    -0.286 N 
ATOM     17  C   UNL     1       4.183   0.086  27.100  0.00  0.00    +0.167 A 
ATOM     18  N   UNL     1       4.280   0.766  25.944  0.00  0.00    -0.216 NA
ATOM     19  C   UNL     1       3.942   2.066  26.138  0.00  0.00    +0.225 A 
ATOM     20  N   UNL     1       3.626   2.703  27.290  0.00  0.00    -0.219 NA
ATOM     21  C   UNL     1       3.538   1.968  28.416  0.00  0.00    +0.147 A 
ATOM     22  N   UNL     1       3.202   2.608  29.606  0.00  0.00    -0.341 N 
ATOM     23  H   UNL     1       3.522   2.102  30.424  0.00  0.00    +0.144 HD
ATOM     24  H   UNL     1       3.395   3.600  29.560  0.00  0.00    +0.144 HD
ATOM     25  C   UNL     1       3.830   0.597  28.346  0.00  0.00    +0.147 A 
ATOM     26  N   UNL     1       3.868  -0.378  29.319  0.00  0.00    -0.231 NA
ATOM     27  C   UNL     1       4.216  -1.468  28.675  0.00  0.00    +0.203 A 
ENDBRANCH  14  16
BRANCH  13  28
ATOM     28  O   UNL     1       7.080  -3.145  26.670  0.00  0.00    -0.385 OA
ATOM     29  H   UNL     1       7.165  -2.774  25.767  0.00  0.00    +0.210 HD
ENDBRANCH  13  28
BRANCH  12  30
ATOM     30  O   UNL     1       4.874  -5.526  27.474  0.00  0.00    -0.278 OA
BRANCH  30  31
ATOM     31  P   UNL     1       5.937  -6.062  28.541  0.00  0.00    +0.473 P 
ATOM     32  O   UNL     1       6.004  -5.445  29.891  0.00  0.00    -0.228 OA
BRANCH  31  33
ATOM     33  O   UNL     1       5.766  -7.654  28.599  0.00  0.00    -0.303 OA
ATOM     34  H   UNL     1       5.093  -7.944  27.952  0.00  0.00    +0.222 HD
ENDBRANCH  31  33
BRANCH  31  35
ATOM     35  O   UNL     1       7.317  -6.002  27.757  0.00  0.00    -0.303 OA
ATOM     36  H   UNL     1       7.927  -5.308  28.109  0.00  0.00    +0.222 HD
ENDBRANCH  31  35
ENDBRANCH  30  31
ENDBRANCH  12  30
ENDBRANCH  10  11
ENDBRANCH   9  10
ENDBRANCH   5   9
ENDBRANCH   4   5
ENDBRANCH   1   4
BRANCH   1  37
ATOM     37  O   UNL     1       9.387  -2.142  22.399  0.00  0.00    -0.327 OA
BRANCH  37  38
ATOM     38  C   UNL     1      10.015  -0.451  22.626  0.00  0.00    +0.177 C 
BRANCH  38  40
ATOM     39  C   UNL     1      10.882   0.812  24.414  0.00  0.00    +0.016 C 
ATOM     40  C   UNL     1       9.703   1.018  23.422  0.00  0.00    +0.023 C 
ATOM     41  C   UNL     1      10.053   2.112  22.329  0.00  0.00    +0.016 C 
BRANCH  40  42
ATOM     42  C   UNL     1       8.247   1.397  24.205  0.00  0.00    +0.208 C 
BRANCH  42  43
ATOM     43  C   UNL     1       7.950   0.952  25.720  0.00  0.00    +0.242 C 
ATOM     44  N   UNL     1       7.543   1.803  26.778  0.00  0.00    -0.313 N 
ATOM     45  H   UNL     1       7.584   1.274  27.651  0.00  0.00    +0.149 HD
ATOM     46  O   UNL     1       8.069  -0.266  26.054  0.00  0.00    -0.273 OA
BRANCH  44  47
ATOM     47  C   UNL     1       7.159   3.235  27.017  0.00  0.00    +0.113 C 
BRANCH  47  48
ATOM     48  C   UNL     1       6.842   3.719  28.478  0.00  0.00    +0.114 C 
BRANCH  48  49
ATOM     49  C   UNL     1       6.068   5.038  28.542  0.00  0.00    +0.215 C 
ATOM     50  N   UNL     1       5.457   5.319  27.340  0.00  0.00    -0.314 N 
ATOM     51  H   UNL     1       5.793   4.737  26.580  0.00  0.00    +0.149 HD
ATOM     52  O   UNL     1       6.150   5.812  29.493  0.00  0.00    -0.276 OA
BRANCH  50  53
ATOM     53  C   UNL     1       5.648   6.648  26.889  0.00  0.00    +0.115 C 
BRANCH  53  54
ATOM     54  C   UNL     1       6.201   6.486  25.453  0.00  0.00    +0.096 C 
BRANCH  54  55
ATOM     55  S   UNL     1       8.370   6.334  25.165  0.00  0.00    -0.087 S 
BRANCH  55  56
ATOM     56  C   UNL     1       8.146   5.835  23.410  0.00  0.00    +0.192 C 
ATOM     57  O   UNL     1       9.222   6.409  23.163  0.00  0.00    -0.285 OA
BRANCH  56  58
ATOM     58  C   UNL     1       7.185   4.499  22.237  0.00  0.00    +0.123 C 
BRANCH  58  59
ATOM     59  C   UNL     1       5.291   3.900  22.458  0.00  0.00    +0.167 C 
BRANCH  59  60
ATOM     60  O   UNL     1       4.914   2.509  22.805  0.00  0.00    -0.386 OA
ATOM     61  H   UNL     1       5.122   1.873  22.102  0.00  0.00    +0.210 HD
ENDBRANCH  59  60
BRANCH  59  62
ATOM     62  C   UNL     1       4.043   4.510  23.370  0.00  0.00    +0.164 C 
BRANCH  62  63
ATOM     63  N   UNL     1       3.073   5.824  22.588  0.00  0.00    +0.239 N 
ATOM     64  C   UNL     1       2.121   6.407  23.618  0.00  0.00    +0.192 C 
ATOM     65  C   UNL     1       2.193   5.270  21.435  0.00  0.00    +0.192 C 
ATOM     66  C   UNL     1       3.895   6.983  22.007  0.00  0.00    +0.192 C 
ENDBRANCH  62  63
ENDBRANCH  59  62
ENDBRANCH  58  59
ENDBRANCH  56  58
ENDBRANCH  55  56
ENDBRANCH  54  55
ENDBRANCH  53  54
ENDBRANCH  50  53
ENDBRANCH  48  49
ENDBRANCH  47  48
ENDBRANCH  44  47
ENDBRANCH  42  43
BRANCH  42  67
ATOM     67  O   UNL     1       7.151   0.859  23.435  0.00  0.00    -0.382 OA
ATOM     68  H   UNL     1       6.476   1.547  23.333  0.00  0.00    +0.210 HD
ENDBRANCH  42  67
ENDBRANCH  40  42
ENDBRANCH  38  40
ENDBRANCH  37  38
ENDBRANCH   1  37
TORSDOF 30
ENDMDL
MODEL 2
REMARK VINA RESULT:      -6.9      1.428      2.589
REMARK  Name = 
REMARK  35 active torsions:
REMARK  status: ('A' for Active; 'I' for Inactive)
REMARK    1  A    between atoms: C_1  and  C_2
REMARK    2  A    between atoms: C_2  and  C_3
REMARK    3  A    between atoms: C_2  and  C_4
REMARK    4  A    between atoms: C_2  and  C_40
REMARK    5  A    between atoms: C_4  and  O_5
REMARK    6  A    between atoms: O_5  and  P_6
REMARK    7  A    between atoms: P_6  and  O_9
REMARK    8  A    between atoms: O_9  and  P_10
REMARK    9  A    between atoms: P_10  and  O_11
REMARK   10  A    between atoms: P_10  and  O_13
REMARK   11  A    between atoms: O_13  and  C_14
REMARK   12  A    between atoms: C_14  and  C_15
REMARK   13  A    between atoms: C_18  and  N_30
REMARK   14  A    between atoms: C_20  and  O_22
REMARK   15  A    between atoms: C_23  and  O_25
REMARK   16  A    between atoms: O_25  and  P_26
REMARK   17  A    between atoms: P_26  and  O_27
REMARK   18  A    between atoms: P_26  and  O_28
REMARK   19  A    between atoms: C_40  and  O_42
REMARK   20  A    between atoms: C_40  and  C_43
REMARK   21  A    between atoms: N_45  and  C_46
REMARK   22  A    between atoms: C_46  and  C_47
REMARK   23  A    between atoms: C_47  and  C_48
REMARK   24  A    between atoms: N_50  and  C_51
REMARK   25  A    between atoms: C_51  and  C_52
REMARK   26  A    between atoms: C_52  and  S_53
REMARK   27  A    between atoms: S_53  and  C_54
REMARK   28  A    between atoms: C_54  and  C_56
REMARK   29  A    between atoms: C_56  and  C_57
REMARK   30  A    between atoms: C_57  and  O_59
REMARK   31  A    between atoms: C_57  and  C_60
REMARK   32  A    between atoms: C_60  and  N_61
REMARK   33  A    between atoms: N_61  and  C_62
REMARK   34  A    between atoms: N_61  and  C_63
REMARK   35  A    between atoms: N_61  and  C_64
REMARK                            x       y       z     vdW  Elec       q    Type
REMARK                         _______ _______ _______ _____ _____    ______ ____
ROOT
ATOM      1  P   UNL     1       8.018  -3.354  22.978  0.00  0.00    +0.222 P 
ATOM      2  O   UNL     1       7.118  -2.547  23.930  0.00  0.00    -0.437 OA
ATOM      3  O   UNL     1       8.978  -4.168  23.819  0.00  0.00    -0.517 OA
ENDROOT
BRANCH   1   4
ATOM      4  O   UNL     1       7.301  -4.597  21.990  0.00  0.00    -0.229 OA
BRANCH   4   5
ATOM      5  P   UNL     1       5.775  -5.024  22.682  0.00  0.00    +0.480 P 
ATOM      6  O   UNL     1       6.449  -6.009  23.649  0.00  0.00    -0.227 OA
BRANCH   5   7
ATOM      7  O   UNL     1       5.310  -6.004  21.465  0.00  0.00    -0.302 OA
ATOM      8  H   UNL     1       5.957  -6.214  20.735  0.00  0.00    +0.222 HD
ENDBRANCH   5   7
BRANCH   5   9
ATOM      9  O   UNL     1       4.248  -5.451  23.375  0.00  0.00    -0.284 OA
BRANCH   9  10
ATOM     10  C   UNL     1       3.571  -4.233  23.975  0.00  0.00    +0.206 C 
BRANCH  10  11
ATOM     11  C   UNL     1       3.696  -4.039  25.549  0.00  0.00    +0.179 C 
ATOM     12  C   UNL     1       5.026  -4.432  26.294  0.00  0.00    +0.194 C 
ATOM     13  C   UNL     1       5.549  -3.119  26.910  0.00  0.00    +0.196 C 
ATOM     14  C   UNL     1       4.666  -2.027  26.318  0.00  0.00    +0.253 C 
ATOM     15  O   UNL     1       3.445  -2.668  25.905  0.00  0.00    -0.346 OA
BRANCH  14  16
ATOM     16  N   UNL     1       4.296  -1.020  27.302  0.00  0.00    -0.286 N 
ATOM     17  C   UNL     1       4.078   0.315  27.088  0.00  0.00    +0.167 A 
ATOM     18  N   UNL     1       4.181   1.009  25.941  0.00  0.00    -0.216 NA
ATOM     19  C   UNL     1       3.843   2.307  26.149  0.00  0.00    +0.225 A 
ATOM     20  N   UNL     1       3.523   2.930  27.308  0.00  0.00    -0.219 NA
ATOM     21  C   UNL     1       3.428   2.182  28.424  0.00  0.00    +0.147 A 
ATOM     22  N   UNL     1       3.087   2.807  29.620  0.00  0.00    -0.341 N 
ATOM     23  H   UNL     1       3.403   2.291  30.434  0.00  0.00    +0.144 HD
ATOM     24  H   UNL     1       3.282   3.800  29.587  0.00  0.00    +0.144 HD
ATOM     25  C   UNL     1       3.720   0.811  28.339  0.00  0.00    +0.147 A 
ATOM     26  N   UNL     1       3.753  -0.176  29.300  0.00  0.00    -0.231 NA
ATOM     27  C   UNL     1       4.103  -1.258  28.644  0.00  0.00    +0.203 A 
ENDBRANCH  14  16
BRANCH  13  28
ATOM     28  O   UNL     1       6.951  -2.958  26.668  0.00  0.00    -0.385 OA
ATOM     29  H   UNL     1       7.416  -3.741  27.029  0.00  0.00    +0.210 HD
ENDBRANCH  13  28
BRANCH  12  30
ATOM     30  O   UNL     1       4.682  -5.310  27.374  0.00  0.00    -0.278 OA
BRANCH  30  31
ATOM     31  P   UNL     1       5.722  -5.961  28.399  0.00  0.00    +0.473 P 
ATOM     32  O   UNL     1       5.902  -5.364  29.747  0.00  0.00    -0.228 OA
BRANCH  31  33
ATOM     33  O   UNL     1       5.389  -7.527  28.459  0.00  0.00    -0.303 OA
ATOM     34  H   UNL     1       5.492  -7.927  27.572  0.00  0.00    +0.222 HD
ENDBRANCH  31  33
BRANCH  31  35
ATOM     35  O   UNL     1       7.072  -6.039  27.564  0.00  0.00    -0.303 OA
ATOM     36  H   UNL     1       7.657  -6.781  27.853  0.00  0.00    +0.222 HD
ENDBRANCH  31  35
ENDBRANCH  30  31
ENDBRANCH  12  30
ENDBRANCH  10  11
ENDBRANCH   9  10
ENDBRANCH   5   9
ENDBRANCH   4   5
ENDBRANCH   1   4
BRANCH   1  37
ATOM     37  O   UNL     1       8.748  -1.937  21.862  0.00  0.00    -0.327 OA
BRANCH  37  38
ATOM     38  C   UNL     1       8.958  -0.137  22.001  0.00  0.00    +0.177 C 
BRANCH  38  40
ATOM     39  C   UNL     1       9.977   1.414  23.450  0.00  0.00    +0.016 C 
ATOM     40  C   UNL     1       8.522   1.213  22.938  0.00  0.00    +0.023 C 
ATOM     41  C   UNL     1       8.136   2.305  21.856  0.00  0.00    +0.016 C 
BRANCH  40  42
ATOM     42  C   UNL     1       7.383   1.184  24.194  0.00  0.00    +0.208 C 
BRANCH  42  43
ATOM     43  C   UNL     1       7.750   0.663  25.669  0.00  0.00    +0.242 C 
ATOM     44  N   UNL     1       7.599   1.390  26.877  0.00  0.00    -0.313 N 
ATOM     45  H   UNL     1       8.057   0.869  27.626  0.00  0.00    +0.149 HD
ATOM     46  O   UNL     1       8.217  -0.507  25.825  0.00  0.00    -0.273 OA
BRANCH  44  47
ATOM     47  C   UNL     1       7.056   2.701  27.366  0.00  0.00    +0.113 C 
BRANCH  47  48
ATOM     48  C   UNL     1       6.923   2.956  28.911  0.00  0.00    +0.114 C 
BRANCH  48  49
ATOM     49  C   UNL     1       6.780   4.434  29.288  0.00  0.00    +0.215 C 
ATOM     50  N   UNL     1       5.729   5.021  28.618  0.00  0.00    -0.314 N 
ATOM     51  H   UNL     1       5.380   4.454  27.853  0.00  0.00    +0.149 HD
ATOM     52  O   UNL     1       7.616   5.033  29.958  0.00  0.00    -0.276 OA
BRANCH  50  53
ATOM     53  C   UNL     1       6.043   6.269  28.028  0.00  0.00    +0.115 C 
BRANCH  53  54
ATOM     54  C   UNL     1       5.685   6.084  26.534  0.00  0.00    +0.096 C 
BRANCH  54  55
ATOM     55  S   UNL     1       3.654   6.571  25.864  0.00  0.00    -0.087 S 
BRANCH  55  56
ATOM     56  C   UNL     1       3.847   5.517  24.370  0.00  0.00    +0.192 C 
ATOM     57  O   UNL     1       2.651   5.201  24.503  0.00  0.00    -0.285 OA
BRANCH  56  58
ATOM     58  C   UNL     1       4.995   5.269  22.726  0.00  0.00    +0.123 C 
BRANCH  58  59
ATOM     59  C   UNL     1       6.919   5.783  22.555  0.00  0.00    +0.167 C 
BRANCH  59  60
ATOM     60  O   UNL     1       7.531   6.228  21.281  0.00  0.00    -0.386 OA
ATOM     61  H   UNL     1       6.922   6.171  20.527  0.00  0.00    +0.210 HD
ENDBRANCH  59  60
BRANCH  59  62
ATOM     62  C   UNL     1       7.855   6.845  23.425  0.00  0.00    +0.164 C 
BRANCH  62  63
ATOM     63  N   UNL     1       9.131   6.090  24.467  0.00  0.00    +0.239 N 
ATOM     64  C   UNL     1      10.422   6.007  23.672  0.00  0.00    +0.192 C 
ATOM     65  C   UNL     1       8.756   4.636  24.859  0.00  0.00    +0.192 C 
ATOM     66  C   UNL     1       9.435   6.843  25.771  0.00  0.00    +0.192 C 
ENDBRANCH  62  63
ENDBRANCH  59  62
ENDBRANCH  58  59
ENDBRANCH  56  58
ENDBRANCH  55  56
ENDBRANCH  54  55
ENDBRANCH  53  54
ENDBRANCH  50  53
ENDBRANCH  48  49
ENDBRANCH  47  48
ENDBRANCH  44  47
ENDBRANCH  42  43
BRANCH  42  67
ATOM     67  O   UNL     1       6.257   0.382  23.782  0.00  0.00    -0.382 OA
ATOM     68  H   UNL     1       5.921  -0.101  24.552  0.00  0.00    +0.210 HD
ENDBRANCH  42  67
ENDBRANCH  40  42
ENDBRANCH  38  40
ENDBRANCH  37  38
ENDBRANCH   1  37
TORSDOF 30
ENDMDL
MODEL 3
REMARK VINA RESULT:      -5.6      2.951      5.974
REMARK  Name = 
REMARK  35 active torsions:
REMARK  status: ('A' for Active; 'I' for Inactive)
REMARK    1  A    between atoms: C_1  and  C_2
REMARK    2  A    between atoms: C_2  and  C_3
REMARK    3  A    between atoms: C_2  and  C_4
REMARK    4  A    between atoms: C_2  and  C_40
REMARK    5  A    between atoms: C_4  and  O_5
REMARK    6  A    between atoms: O_5  and  P_6
REMARK    7  A    between atoms: P_6  and  O_9
REMARK    8  A    between atoms: O_9  and  P_10
REMARK    9  A    between atoms: P_10  and  O_11
REMARK   10  A    between atoms: P_10  and  O_13
REMARK   11  A    between atoms: O_13  and  C_14
REMARK   12  A    between atoms: C_14  and  C_15
REMARK   13  A    between atoms: C_18  and  N_30
REMARK   14  A    between atoms: C_20  and  O_22
REMARK   15  A    between atoms: C_23  and  O_25
REMARK   16  A    between atoms: O_25  and  P_26
REMARK   17  A    between atoms: P_26  and  O_27
REMARK   18  A    between atoms: P_26  and  O_28
REMARK   19  A    between atoms: C_40  and  O_42
REMARK   20  A    between atoms: C_40  and  C_43
REMARK   21  A    between atoms: N_45  and  C_46
REMARK   22  A    between atoms: C_46  and  C_47
REMARK   23  A    between atoms: C_47  and  C_48
REMARK   24  A    between atoms: N_50  and  C_51
REMARK   25  A    between atoms: C_51  and  C_52
REMARK   26  A    between atoms: C_52  and  S_53
REMARK   27  A    between atoms: S_53  and  C_54
REMARK   28  A    between atoms: C_54  and  C_56
REMARK   29  A    between atoms: C_56  and  C_57
REMARK   30  A    between atoms: C_57  and  O_59
REMARK   31  A    between atoms: C_57  and  C_60
REMARK   32  A    between atoms: C_60  and  N_61
REMARK   33  A    between atoms: N_61  and  C_62
REMARK   34  A    between atoms: N_61  and  C_63
REMARK   35  A    between atoms: N_61  and  C_64
REMARK                            x       y       z     vdW  Elec       q    Type
REMARK                         _______ _______ _______ _____ _____    ______ ____
ROOT
ATOM      1  P   UNL     1       4.073  -0.316  27.273  0.00  0.00    +0.222 P 
ATOM      2  O   UNL     1       5.241  -0.804  28.147  0.00  0.00    -0.437 OA
ATOM      3  O   UNL     1       4.113  -1.084  25.968  0.00  0.00    -0.517 OA
ENDROOT
BRANCH   1   4
ATOM      4  O   UNL     1       2.441  -0.627  27.795  0.00  0.00    -0.229 OA
BRANCH   4   5
ATOM      5  P   UNL     1       2.191  -2.339  27.798  0.00  0.00    +0.480 P 
ATOM      6  O   UNL     1       0.972  -2.195  28.721  0.00  0.00    -0.227 OA
BRANCH   5   7
ATOM      7  O   UNL     1       3.383  -2.677  28.856  0.00  0.00    -0.302 OA
ATOM      8  H   UNL     1       3.796  -3.586  28.852  0.00  0.00    +0.222 HD
ENDBRANCH   5   7
BRANCH   5   9
ATOM      9  O   UNL     1       1.941  -4.051  27.800  0.00  0.00    -0.284 OA
BRANCH   9  10
ATOM     10  C   UNL     1       2.413  -4.665  26.496  0.00  0.00    +0.206 C 
BRANCH  10  11
ATOM     11  C   UNL     1       3.985  -4.797  26.287  0.00  0.00    +0.179 C 
ATOM     12  C   UNL     1       4.626  -6.195  25.951  0.00  0.00    +0.194 C 
ATOM     13  C   UNL     1       5.278  -6.020  24.564  0.00  0.00    +0.196 C 
ATOM     14  C   UNL     1       4.798  -4.659  24.073  0.00  0.00    +0.253 C 
ATOM     15  O   UNL     1       4.427  -3.909  25.244  0.00  0.00    -0.346 OA
BRANCH  14  16
ATOM     16  N   UNL     1       5.854  -3.905  23.413  0.00  0.00    -0.286 N 
ATOM     17  C   UNL     1       7.156  -3.765  23.817  0.00  0.00    +0.167 A 
ATOM     18  N   UNL     1       7.752  -4.259  24.916  0.00  0.00    -0.216 NA
ATOM     19  C   UNL     1       9.066  -3.921  24.926  0.00  0.00    +0.225 A 
ATOM     20  N   UNL     1       9.753  -3.138  24.060  0.00  0.00    -0.219 NA
ATOM     21  C   UNL     1       9.104  -2.678  22.972  0.00  0.00    +0.147 A 
ATOM     22  N   UNL     1       9.801  -1.882  22.067  0.00  0.00    -0.341 N 
ATOM     23  H   UNL     1       9.189  -1.285  21.522  0.00  0.00    +0.144 HD
ATOM     24  H   UNL     1      10.613  -1.458  22.496  0.00  0.00    +0.144 HD
ATOM     25  C   UNL     1       7.743  -2.985  22.823  0.00  0.00    +0.147 A 
ATOM     26  N   UNL     1       6.826  -2.624  21.860  0.00  0.00    -0.231 NA
ATOM     27  C   UNL     1       5.706  -3.191  22.246  0.00  0.00    +0.203 A 
ENDBRANCH  14  16
BRANCH  13  28
ATOM     28  O   UNL     1       4.960  -7.119  23.702  0.00  0.00    -0.385 OA
ATOM     29  H   UNL     1       5.564  -7.859  23.915  0.00  0.00    +0.210 HD
ENDBRANCH  13  28
BRANCH  12  30
ATOM     30  O   UNL     1       5.678  -6.435  26.896  0.00  0.00    -0.278 OA
BRANCH  30  31
ATOM     31  P   UNL     1       5.513  -6.400  28.485  0.00  0.00    +0.473 P 
ATOM     32  O   UNL     1       5.267  -5.107  29.174  0.00  0.00    -0.228 OA
BRANCH  31  33
ATOM     33  O   UNL     1       4.422  -7.513  28.858  0.00  0.00    -0.303 OA
ATOM     34  H   UNL     1       4.081  -7.360  29.762  0.00  0.00    +0.222 HD
ENDBRANCH  31  33
BRANCH  31  35
ATOM     35  O   UNL     1       6.808  -7.153  29.014  0.00  0.00    -0.303 OA
ATOM     36  H   UNL     1       7.577  -7.067  28.398  0.00  0.00    +0.222 HD
ENDBRANCH  31  35
ENDBRANCH  30  31
ENDBRANCH  12  30
ENDBRANCH  10  11
ENDBRANCH   9  10
ENDBRANCH   5   9
ENDBRANCH   4   5
ENDBRANCH   1   4
BRANCH   1  37
ATOM     37  O   UNL     1       4.416   1.598  27.223  0.00  0.00    -0.327 OA
BRANCH  37  38
ATOM     38  C   UNL     1       4.772   2.897  28.444  0.00  0.00    +0.177 C 
BRANCH  38  40
ATOM     39  C   UNL     1       5.244   3.985  30.478  0.00  0.00    +0.016 C 
ATOM     40  C   UNL     1       6.037   3.781  29.156  0.00  0.00    +0.023 C 
ATOM     41  C   UNL     1       7.187   2.703  29.335  0.00  0.00    +0.016 C 
BRANCH  40  42
ATOM     42  C   UNL     1       6.665   5.230  28.538  0.00  0.00    +0.208 C 
BRANCH  42  43
ATOM     43  C   UNL     1       6.994   5.422  26.977  0.00  0.00    +0.242 C 
ATOM     44  N   UNL     1       6.073   5.803  25.968  0.00  0.00    -0.313 N 
ATOM     45  H   UNL     1       6.526   5.690  25.060  0.00  0.00    +0.149 HD
ATOM     46  O   UNL     1       8.175   5.234  26.554  0.00  0.00    -0.273 OA
BRANCH  44  47
ATOM     47  C   UNL     1       4.642   6.232  25.823  0.00  0.00    +0.113 C 
BRANCH  47  48
ATOM     48  C   UNL     1       3.501   5.348  26.444  0.00  0.00    +0.114 C 
BRANCH  48  49
ATOM     49  C   UNL     1       2.773   4.467  25.425  0.00  0.00    +0.215 C 
ATOM     50  N   UNL     1       3.644   3.612  24.789  0.00  0.00    -0.314 N 
ATOM     51  H   UNL     1       4.618   3.854  24.940  0.00  0.00    +0.149 HD
ATOM     52  O   UNL     1       1.600   4.649  25.107  0.00  0.00    -0.276 OA
BRANCH  50  53
ATOM     53  C   UNL     1       3.496   3.573  23.382  0.00  0.00    +0.115 C 
BRANCH  53  54
ATOM     54  C   UNL     1       4.918   3.851  22.842  0.00  0.00    +0.096 C 
BRANCH  54  55
ATOM     55  S   UNL     1       5.517   5.926  22.456  0.00  0.00    -0.087 S 
BRANCH  55  56
ATOM     56  C   UNL     1       7.293   5.498  22.657  0.00  0.00    +0.192 C 
ATOM     57  O   UNL     1       7.426   6.565  23.282  0.00  0.00    -0.285 OA
BRANCH  56  58
ATOM     58  C   UNL     1       8.574   3.935  22.633  0.00  0.00    +0.123 C 
BRANCH  58  59
ATOM     59  C   UNL     1       8.114   2.055  22.134  0.00  0.00    +0.167 C 
BRANCH  59  60
ATOM     60  O   UNL     1       9.036   1.162  21.393  0.00  0.00    -0.386 OA
ATOM     61  H   UNL     1       8.682   0.880  20.534  0.00  0.00    +0.210 HD
ENDBRANCH  59  60
BRANCH  59  62
ATOM     62  C   UNL     1       7.545   0.784  23.041  0.00  0.00    +0.164 C 
BRANCH  62  63
ATOM     63  N   UNL     1       8.136   0.716  24.751  0.00  0.00    +0.239 N 
ATOM     64  C   UNL     1       7.555  -0.517  25.420  0.00  0.00    +0.192 C 
ATOM     65  C   UNL     1       7.644   1.940  25.571  0.00  0.00    +0.192 C 
ATOM     66  C   UNL     1       9.663   0.654  24.910  0.00  0.00    +0.192 C 
ENDBRANCH  62  63
ENDBRANCH  59  62
ENDBRANCH  58  59
ENDBRANCH  56  58
ENDBRANCH  55  56
ENDBRANCH  54  55
ENDBRANCH  53  54
ENDBRANCH  50  53
ENDBRANCH  48  49
ENDBRANCH  47  48
ENDBRANCH  44  47
ENDBRANCH  42  43
BRANCH  42  67
ATOM     67  O   UNL     1       7.901   5.530  29.221  0.00  0.00    -0.382 OA
ATOM     68  H   UNL     1       7.801   5.302  30.158  0.00  0.00    +0.210 HD
ENDBRANCH  42  67
ENDBRANCH  40  42
ENDBRANCH  38  40
ENDBRANCH  37  38
ENDBRANCH   1  37
TORSDOF 30
ENDMDL
MODEL 4
REMARK VINA RESULT:      -5.3      3.532      8.433
REMARK  Name = 
REMARK  35 active torsions:
REMARK  status: ('A' for Active; 'I' for Inactive)
REMARK    1  A    between atoms: C_1  and  C_2
REMARK    2  A    between atoms: C_2  and  C_3
REMARK    3  A    between atoms: C_2  and  C_4
REMARK    4  A    between atoms: C_2  and  C_40
REMARK    5  A    between atoms: C_4  and  O_5
REMARK    6  A    between atoms: O_5  and  P_6
REMARK    7  A    between atoms: P_6  and  O_9
REMARK    8  A    between atoms: O_9  and  P_10
REMARK    9  A    between atoms: P_10  and  O_11
REMARK   10  A    between atoms: P_10  and  O_13
REMARK   11  A    between atoms: O_13  and  C_14
REMARK   12  A    between atoms: C_14  and  C_15
REMARK   13  A    between atoms: C_18  and  N_30
REMARK   14  A    between atoms: C_20  and  O_22
REMARK   15  A    between atoms: C_23  and  O_25
REMARK   16  A    between atoms: O_25  and  P_26
REMARK   17  A    between atoms: P_26  and  O_27
REMARK   18  A    between atoms: P_26  and  O_28
REMARK   19  A    between atoms: C_40  and  O_42
REMARK   20  A    between atoms: C_40  and  C_43
REMARK   21  A    between atoms: N_45  and  C_46
REMARK   22  A    between atoms: C_46  and  C_47
REMARK   23  A    between atoms: C_47  and  C_48
REMARK   24  A    between atoms: N_50  and  C_51
REMARK   25  A    between atoms: C_51  and  C_52
REMARK   26  A    between atoms: C_52  and  S_53
REMARK   27  A    between atoms: S_53  and  C_54
REMARK   28  A    between atoms: C_54  and  C_56
REMARK   29  A    between atoms: C_56  and  C_57
REMARK   30  A    between atoms: C_57  and  O_59
REMARK   31  A    between atoms: C_57  and  C_60
REMARK   32  A    between atoms: C_60  and  N_61
REMARK   33  A    between atoms: N_61  and  C_62
REMARK   34  A    between atoms: N_61  and  C_63
REMARK   35  A    between atoms: N_61  and  C_64
REMARK                            x       y       z     vdW  Elec       q    Type
REMARK                         _______ _______ _______ _____ _____    ______ ____
ROOT
ATOM      1  P   UNL     1       8.118  -4.005  26.118  0.00  0.00    +0.222 P 
ATOM      2  O   UNL     1       7.617  -4.865  24.945  0.00  0.00    -0.437 OA
ATOM      3  O   UNL     1       9.240  -4.756  26.804  0.00  0.00    -0.517 OA
ENDROOT
BRANCH   1   4
ATOM      4  O   UNL     1       8.894  -2.483  25.778  0.00  0.00    -0.229 OA
BRANCH   4   5
ATOM      5  P   UNL     1       8.150  -1.267  26.758  0.00  0.00    +0.480 P 
ATOM      6  O   UNL     1       7.202  -0.876  25.615  0.00  0.00    -0.227 OA
BRANCH   5   7
ATOM      7  O   UNL     1       9.347  -0.171  26.599  0.00  0.00    -0.302 OA
ATOM      8  H   UNL     1       9.958  -0.002  27.369  0.00  0.00    +0.222 HD
ENDBRANCH   5   7
BRANCH   5   9
ATOM      9  O   UNL     1       7.405  -0.050  27.738  0.00  0.00    -0.284 OA
BRANCH   9  10
ATOM     10  C   UNL     1       5.908  -0.007  27.495  0.00  0.00    +0.206 C 
BRANCH  10  11
ATOM     11  C   UNL     1       5.274   1.410  27.146  0.00  0.00    +0.179 C 
ATOM     12  C   UNL     1       5.441   2.620  28.139  0.00  0.00    +0.194 C 
ATOM     13  C   UNL     1       6.224   3.688  27.349  0.00  0.00    +0.196 C 
ATOM     14  C   UNL     1       6.669   2.986  26.072  0.00  0.00    +0.253 C 
ATOM     15  O   UNL     1       5.767   1.880  25.878  0.00  0.00    -0.346 OA
BRANCH  14  16
ATOM     16  N   UNL     1       6.540   3.838  24.899  0.00  0.00    -0.286 N 
ATOM     17  C   UNL     1       7.493   4.658  24.355  0.00  0.00    +0.167 A 
ATOM     18  N   UNL     1       8.746   4.890  24.785  0.00  0.00    -0.216 NA
ATOM     19  C   UNL     1       9.378   5.743  23.940  0.00  0.00    +0.225 A 
ATOM     20  N   UNL     1       8.890   6.387  22.853  0.00  0.00    -0.219 NA
ATOM     21  C   UNL     1       7.630   6.109  22.466  0.00  0.00    +0.147 A 
ATOM     22  N   UNL     1       7.118   6.754  21.343  0.00  0.00    -0.341 N 
ATOM     23  H   UNL     1       6.105   6.795  21.345  0.00  0.00    +0.144 HD
ATOM     24  H   UNL     1       7.624   7.608  21.145  0.00  0.00    +0.144 HD
ATOM     25  C   UNL     1       6.873   5.213  23.238  0.00  0.00    +0.147 A 
ATOM     26  N   UNL     1       5.571   4.779  23.117  0.00  0.00    -0.231 NA
ATOM     27  C   UNL     1       5.405   3.959  24.130  0.00  0.00    +0.203 A 
ENDBRANCH  14  16
BRANCH  13  28
ATOM     28  O   UNL     1       7.288   4.235  28.138  0.00  0.00    -0.385 OA
ATOM     29  H   UNL     1       7.974   3.545  28.247  0.00  0.00    +0.210 HD
ENDBRANCH  13  28
BRANCH  12  30
ATOM     30  O   UNL     1       4.136   3.151  28.407  0.00  0.00    -0.278 OA
BRANCH  30  31
ATOM     31  P   UNL     1       2.951   2.361  29.132  0.00  0.00    +0.473 P 
ATOM     32  O   UNL     1       2.129   1.392  28.361  0.00  0.00    -0.228 OA
BRANCH  31  33
ATOM     33  O   UNL     1       3.573   1.718  30.461  0.00  0.00    -0.303 OA
ATOM     34  H   UNL     1       3.916   2.423  31.046  0.00  0.00    +0.222 HD
ENDBRANCH  31  33
BRANCH  31  35
ATOM     35  O   UNL     1       2.090   3.512  29.808  0.00  0.00    -0.303 OA
ATOM     36  H   UNL     1       2.502   3.861  30.636  0.00  0.00    +0.222 HD
ENDBRANCH  31  35
ENDBRANCH  30  31
ENDBRANCH  12  30
ENDBRANCH  10  11
ENDBRANCH   9  10
ENDBRANCH   5   9
ENDBRANCH   4   5
ENDBRANCH   1   4
BRANCH   1  37
ATOM     37  O   UNL     1       6.466  -3.718  27.105  0.00  0.00    -0.327 OA
BRANCH  37  38
ATOM     38  C   UNL     1       5.436  -4.691  28.244  0.00  0.00    +0.177 C 
BRANCH  38  40
ATOM     39  C   UNL     1       5.115  -6.769  27.185  0.00  0.00    +0.016 C 
ATOM     40  C   UNL     1       4.994  -6.280  28.655  0.00  0.00    +0.023 C 
ATOM     41  C   UNL     1       6.213  -6.786  29.534  0.00  0.00    +0.016 C 
BRANCH  40  42
ATOM     42  C   UNL     1       3.518  -6.713  29.370  0.00  0.00    +0.208 C 
BRANCH  42  43
ATOM     43  C   UNL     1       2.142  -6.743  28.541  0.00  0.00    +0.242 C 
ATOM     44  N   UNL     1       1.331  -5.624  28.223  0.00  0.00    -0.313 N 
ATOM     45  H   UNL     1       0.452  -5.965  27.830  0.00  0.00    +0.149 HD
ATOM     46  O   UNL     1       1.698  -7.846  28.099  0.00  0.00    -0.273 OA
BRANCH  44  47
ATOM     47  C   UNL     1       1.333  -4.129  28.359  0.00  0.00    +0.113 C 
BRANCH  47  48
ATOM     48  C   UNL     1       2.416  -3.283  27.598  0.00  0.00    +0.114 C 
BRANCH  48  49
ATOM     49  C   UNL     1       2.341  -3.404  26.073  0.00  0.00    +0.215 C 
ATOM     50  N   UNL     1       3.281  -4.289  25.595  0.00  0.00    -0.314 N 
ATOM     51  H   UNL     1       3.982  -4.535  26.286  0.00  0.00    +0.149 HD
ATOM     52  O   UNL     1       1.650  -2.661  25.380  0.00  0.00    -0.276 OA
BRANCH  50  53
ATOM     53  C   UNL     1       4.019  -3.809  24.486  0.00  0.00    +0.115 C 
BRANCH  53  54
ATOM     54  C   UNL     1       3.696  -4.810  23.352  0.00  0.00    +0.096 C 
BRANCH  54  55
ATOM     55  S   UNL     1       5.284  -6.140  22.629  0.00  0.00    -0.087 S 
BRANCH  55  56
ATOM     56  C   UNL     1       6.125  -4.745  21.776  0.00  0.00    +0.192 C 
ATOM     57  O   UNL     1       5.999  -5.386  20.717  0.00  0.00    -0.285 OA
BRANCH  56  58
ATOM     58  C   UNL     1       6.552  -2.779  21.965  0.00  0.00    +0.123 C 
BRANCH  58  59
ATOM     59  C   UNL     1       8.302  -2.015  22.554  0.00  0.00    +0.167 C 
BRANCH  59  60
ATOM     60  O   UNL     1       9.512  -2.839  22.791  0.00  0.00    -0.386 OA
ATOM     61  H   UNL     1       9.306  -3.730  23.118  0.00  0.00    +0.210 HD
ENDBRANCH  59  60
BRANCH  59  62
ATOM     62  C   UNL     1       9.219  -0.769  21.946  0.00  0.00    +0.164 C 
BRANCH  62  63
ATOM     63  N   UNL     1       8.735   0.892  22.482  0.00  0.00    +0.239 N 
ATOM     64  C   UNL     1       9.252   1.900  21.471  0.00  0.00    +0.192 C 
ATOM     65  C   UNL     1       9.381   1.259  23.845  0.00  0.00    +0.192 C 
ATOM     66  C   UNL     1       7.223   1.114  22.627  0.00  0.00    +0.192 C 
ENDBRANCH  62  63
ENDBRANCH  59  62
ENDBRANCH  58  59
ENDBRANCH  56  58
ENDBRANCH  55  56
ENDBRANCH  54  55
ENDBRANCH  53  54
ENDBRANCH  50  53
ENDBRANCH  48  49
ENDBRANCH  47  48
ENDBRANCH  44  47
ENDBRANCH  42  43
BRANCH  42  67
ATOM     67  O   UNL     1       3.265  -5.831  30.485  0.00  0.00    -0.382 OA
ATOM     68  H   UNL     1       2.339  -5.930  30.754  0.00  0.00    +0.210 HD
ENDBRANCH  42  67
ENDBRANCH  40  42
ENDBRANCH  38  40
ENDBRANCH  37  38
ENDBRANCH   1  37
TORSDOF 30
ENDMDL
MODEL 5
REMARK VINA RESULT:      -5.2      3.847      9.507
REMARK  Name = 
REMARK  35 active torsions:
REMARK  status: ('A' for Active; 'I' for Inactive)
REMARK    1  A    between atoms: C_1  and  C_2
REMARK    2  A    between atoms: C_2  and  C_3
REMARK    3  A    between atoms: C_2  and  C_4
REMARK    4  A    between atoms: C_2  and  C_40
REMARK    5  A    between atoms: C_4  and  O_5
REMARK    6  A    between atoms: O_5  and  P_6
REMARK    7  A    between atoms: P_6  and  O_9
REMARK    8  A    between atoms: O_9  and  P_10
REMARK    9  A    between atoms: P_10  and  O_11
REMARK   10  A    between atoms: P_10  and  O_13
REMARK   11  A    between atoms: O_13  and  C_14
REMARK   12  A    between atoms: C_14  and  C_15
REMARK   13  A    between atoms: C_18  and  N_30
REMARK   14  A    between atoms: C_20  and  O_22
REMARK   15  A    between atoms: C_23  and  O_25
REMARK   16  A    between atoms: O_25  and  P_26
REMARK   17  A    between atoms: P_26  and  O_27
REMARK   18  A    between atoms: P_26  and  O_28
REMARK   19  A    between atoms: C_40  and  O_42
REMARK   20  A    between atoms: C_40  and  C_43
REMARK   21  A    between atoms: N_45  and  C_46
REMARK   22  A    between atoms: C_46  and  C_47
REMARK   23  A    between atoms: C_47  and  C_48
REMARK   24  A    between atoms: N_50  and  C_51
REMARK   25  A    between atoms: C_51  and  C_52
REMARK   26  A    between atoms: C_52  and  S_53
REMARK   27  A    between atoms: S_53  and  C_54
REMARK   28  A    between atoms: C_54  and  C_56
REMARK   29  A    between atoms: C_56  and  C_57
REMARK   30  A    between atoms: C_57  and  O_59
REMARK   31  A    between atoms: C_57  and  C_60
REMARK   32  A    between atoms: C_60  and  N_61
REMARK   33  A    between atoms: N_61  and  C_62
REMARK   34  A    between atoms: N_61  and  C_63
REMARK   35  A    between atoms: N_61  and  C_64
REMARK                            x       y       z     vdW  Elec       q    Type
REMARK                         _______ _______ _______ _____ _____    ______ ____
ROOT
ATOM      1  P   UNL     1       5.916   1.321  28.578  0.00  0.00    +0.222 P 
ATOM      2  O   UNL     1       6.249   0.713  29.951  0.00  0.00    -0.437 OA
ATOM      3  O   UNL     1       4.968   2.481  28.798  0.00  0.00    -0.517 OA
ENDROOT
BRANCH   1   4
ATOM      4  O   UNL     1       7.183   2.094  27.666  0.00  0.00    -0.229 OA
BRANCH   4   5
ATOM      5  P   UNL     1       6.589   3.615  27.096  0.00  0.00    +0.480 P 
ATOM      6  O   UNL     1       7.722   3.711  26.064  0.00  0.00    -0.227 OA
BRANCH   5   7
ATOM      7  O   UNL     1       7.178   4.496  28.334  0.00  0.00    -0.302 OA
ATOM      8  H   UNL     1       7.577   4.028  29.119  0.00  0.00    +0.222 HD
ENDBRANCH   5   7
BRANCH   5   9
ATOM      9  O   UNL     1       5.993   5.136  26.525  0.00  0.00    -0.284 OA
BRANCH   9  10
ATOM     10  C   UNL     1       5.993   5.178  25.009  0.00  0.00    +0.206 C 
BRANCH  10  11
ATOM     11  C   UNL     1       4.733   4.548  24.270  0.00  0.00    +0.179 C 
ATOM     12  C   UNL     1       3.313   4.585  24.950  0.00  0.00    +0.194 C 
ATOM     13  C   UNL     1       2.429   5.418  23.999  0.00  0.00    +0.196 C 
ATOM     14  C   UNL     1       3.395   6.005  22.977  0.00  0.00    +0.253 C 
ATOM     15  O   UNL     1       4.557   5.154  22.976  0.00  0.00    -0.346 OA
BRANCH  14  16
ATOM     16  N   UNL     1       2.856   5.974  21.625  0.00  0.00    -0.286 N 
ATOM     17  C   UNL     1       2.387   4.885  20.939  0.00  0.00    +0.167 A 
ATOM     18  N   UNL     1       2.338   3.600  21.334  0.00  0.00    -0.216 NA
ATOM     19  C   UNL     1       1.764   2.838  20.369  0.00  0.00    +0.225 A 
ATOM     20  N   UNL     1       1.350   3.196  19.131  0.00  0.00    -0.219 NA
ATOM     21  C   UNL     1       1.415   4.499  18.795  0.00  0.00    +0.147 A 
ATOM     22  N   UNL     1       0.980   4.884  17.529  0.00  0.00    -0.341 N 
ATOM     23  H   UNL     1       1.400   5.754  17.221  0.00  0.00    +0.144 HD
ATOM     24  H   UNL     1       0.983   4.105  16.884  0.00  0.00    +0.144 HD
ATOM     25  C   UNL     1       1.960   5.404  19.719  0.00  0.00    +0.147 A 
ATOM     26  N   UNL     1       2.193   6.760  19.640  0.00  0.00    -0.231 NA
ATOM     27  C   UNL     1       2.732   7.066  20.797  0.00  0.00    +0.203 A 
ENDBRANCH  14  16
BRANCH  13  28
ATOM     28  O   UNL     1       1.659   6.383  24.725  0.00  0.00    -0.385 OA
ATOM     29  H   UNL     1       0.716   6.124  24.672  0.00  0.00    +0.210 HD
ENDBRANCH  13  28
BRANCH  12  30
ATOM     30  O   UNL     1       2.796   3.247  24.960  0.00  0.00    -0.278 OA
BRANCH  30  31
ATOM     31  P   UNL     1       2.172   2.511  26.234  0.00  0.00    +0.473 P 
ATOM     32  O   UNL     1       1.924   3.277  27.481  0.00  0.00    -0.228 OA
BRANCH  31  33
ATOM     33  O   UNL     1       0.870   1.730  25.721  0.00  0.00    -0.303 OA
ATOM     34  H   UNL     1       0.736   1.890  24.766  0.00  0.00    +0.222 HD
ENDBRANCH  31  33
BRANCH  31  35
ATOM     35  O   UNL     1       3.127   1.259  26.449  0.00  0.00    -0.303 OA
ATOM     36  H   UNL     1       3.176   0.974  27.394  0.00  0.00    +0.222 HD
ENDBRANCH  31  35
ENDBRANCH  30  31
ENDBRANCH  12  30
ENDBRANCH  10  11
ENDBRANCH   9  10
ENDBRANCH   5   9
ENDBRANCH   4   5
ENDBRANCH   1   4
BRANCH   1  37
ATOM     37  O   UNL     1       5.252  -0.241  27.627  0.00  0.00    -0.327 OA
BRANCH  37  38
ATOM     38  C   UNL     1       4.847  -1.961  28.055  0.00  0.00    +0.177 C 
BRANCH  38  40
ATOM     39  C   UNL     1       3.053  -3.480  28.194  0.00  0.00    +0.016 C 
ATOM     40  C   UNL     1       4.382  -3.453  27.387  0.00  0.00    +0.023 C 
ATOM     41  C   UNL     1       4.123  -3.110  25.861  0.00  0.00    +0.016 C 
BRANCH  40  42
ATOM     42  C   UNL     1       5.269  -4.891  27.537  0.00  0.00    +0.208 C 
BRANCH  42  43
ATOM     43  C   UNL     1       4.556  -6.319  27.722  0.00  0.00    +0.242 C 
ATOM     44  N   UNL     1       4.123  -7.180  26.682  0.00  0.00    -0.313 N 
ATOM     45  H   UNL     1       3.571  -7.933  27.096  0.00  0.00    +0.149 HD
ATOM     46  O   UNL     1       4.342  -6.770  28.888  0.00  0.00    -0.273 OA
BRANCH  44  47
ATOM     47  C   UNL     1       4.156  -7.278  25.185  0.00  0.00    +0.113 C 
BRANCH  47  48
ATOM     48  C   UNL     1       3.407  -6.201  24.321  0.00  0.00    +0.114 C 
BRANCH  48  49
ATOM     49  C   UNL     1       4.229  -5.664  23.146  0.00  0.00    +0.215 C 
ATOM     50  N   UNL     1       5.385  -6.391  22.970  0.00  0.00    -0.314 N 
ATOM     51  H   UNL     1       5.595  -6.998  23.756  0.00  0.00    +0.149 HD
ATOM     52  O   UNL     1       3.960  -4.612  22.571  0.00  0.00    -0.276 OA
BRANCH  50  53
ATOM     53  C   UNL     1       6.548  -5.601  22.803  0.00  0.00    +0.115 C 
BRANCH  53  54
ATOM     54  C   UNL     1       6.855  -5.072  24.224  0.00  0.00    +0.096 C 
BRANCH  54  55
ATOM     55  S   UNL     1       8.934  -5.063  24.924  0.00  0.00    -0.087 S 
BRANCH  55  56
ATOM     56  C   UNL     1       8.555  -3.770  26.174  0.00  0.00    +0.192 C 
ATOM     57  O   UNL     1       8.749  -4.633  27.049  0.00  0.00    -0.285 OA
BRANCH  56  58
ATOM     58  C   UNL     1       8.490  -1.767  26.434  0.00  0.00    +0.123 C 
BRANCH  58  59
ATOM     59  C   UNL     1       7.905  -0.430  25.069  0.00  0.00    +0.167 C 
BRANCH  59  60
ATOM     60  O   UNL     1       6.607   0.282  25.132  0.00  0.00    -0.386 OA
ATOM     61  H   UNL     1       6.459   0.870  24.374  0.00  0.00    +0.210 HD
ENDBRANCH  59  60
BRANCH  59  62
ATOM     62  C   UNL     1       8.661   0.916  24.453  0.00  0.00    +0.164 C 
BRANCH  62  63
ATOM     63  N   UNL     1       9.001   0.877  22.674  0.00  0.00    +0.239 N 
ATOM     64  C   UNL     1       7.750   1.310  21.929  0.00  0.00    +0.192 C 
ATOM     65  C   UNL     1       9.331  -0.561  22.191  0.00  0.00    +0.192 C 
ATOM     66  C   UNL     1      10.153   1.782  22.211  0.00  0.00    +0.192 C 
ENDBRANCH  62  63
ENDBRANCH  59  62
ENDBRANCH  58  59
ENDBRANCH  56  58
ENDBRANCH  55  56
ENDBRANCH  54  55
ENDBRANCH  53  54
ENDBRANCH  50  53
ENDBRANCH  48  49
ENDBRANCH  47  48
ENDBRANCH  44  47
ENDBRANCH  42  43
BRANCH  42  67
ATOM     67  O   UNL     1       6.165  -4.770  28.661  0.00  0.00    -0.382 OA
ATOM     68  H   UNL     1       5.642  -4.782  29.477  0.00  0.00    +0.210 HD
ENDBRANCH  42  67
ENDBRANCH  40  42
ENDBRANCH  38  40
ENDBRANCH  37  38
ENDBRANCH   1  37
TORSDOF 30
ENDMDL
MODEL 6
REMARK VINA RESULT:      -5.2      3.134      7.331
REMARK  Name = 
REMARK  35 active torsions:
REMARK  status: ('A' for Active; 'I' for Inactive)
REMARK    1  A    between atoms: C_1  and  C_2
REMARK    2  A    between atoms: C_2  and  C_3
REMARK    3  A    between atoms: C_2  and  C_4
REMARK    4  A    between atoms: C_2  and  C_40
REMARK    5  A    between atoms: C_4  and  O_5
REMARK    6  A    between atoms: O_5  and  P_6
REMARK    7  A    between atoms: P_6  and  O_9
REMARK    8  A    between atoms: O_9  and  P_10
REMARK    9  A    between atoms: P_10  and  O_11
REMARK   10  A    between atoms: P_10  and  O_13
REMARK   11  A    between atoms: O_13  and  C_14
REMARK   12  A    between atoms: C_14  and  C_15
REMARK   13  A    between atoms: C_18  and  N_30
REMARK   14  A    between atoms: C_20  and  O_22
REMARK   15  A    between atoms: C_23  and  O_25
REMARK   16  A    between atoms: O_25  and  P_26
REMARK   17  A    between atoms: P_26  and  O_27
REMARK   18  A    between atoms: P_26  and  O_28
REMARK   19  A    between atoms: C_40  and  O_42
REMARK   20  A    between atoms: C_40  and  C_43
REMARK   21  A    between atoms: N_45  and  C_46
REMARK   22  A    between atoms: C_46  and  C_47
REMARK   23  A    between atoms: C_47  and  C_48
REMARK   24  A    between atoms: N_50  and  C_51
REMARK   25  A    between atoms: C_51  and  C_52
REMARK   26  A    between atoms: C_52  and  S_53
REMARK   27  A    between atoms: S_53  and  C_54
REMARK   28  A    between atoms: C_54  and  C_56
REMARK   29  A    between atoms: C_56  and  C_57
REMARK   30  A    between atoms: C_57  and  O_59
REMARK   31  A    between atoms: C_57  and  C_60
REMARK   32  A    between atoms: C_60  and  N_61
REMARK   33  A    between atoms: N_61  and  C_62
REMARK   34  A    between atoms: N_61  and  C_63
REMARK   35  A    between atoms: N_61  and  C_64
REMARK                            x       y       z     vdW  Elec       q    Type
REMARK                         _______ _______ _______ _____ _____    ______ ____
ROOT
ATOM      1  P   UNL     1       8.587  -4.941  25.791  0.00  0.00    +0.222 P 
ATOM      2  O   UNL     1       9.316  -6.034  24.992  0.00  0.00    -0.437 OA
ATOM      3  O   UNL     1       9.610  -4.228  26.650  0.00  0.00    -0.517 OA
ENDROOT
BRANCH   1   4
ATOM      4  O   UNL     1       7.877  -3.600  24.935  0.00  0.00    -0.229 OA
BRANCH   4   5
ATOM      5  P   UNL     1       6.973  -2.654  26.066  0.00  0.00    +0.480 P 
ATOM      6  O   UNL     1       7.976  -1.495  25.951  0.00  0.00    -0.227 OA
BRANCH   5   7
ATOM      7  O   UNL     1       7.503  -3.435  27.395  0.00  0.00    -0.302 OA
ATOM      8  H   UNL     1       6.841  -3.750  28.071  0.00  0.00    +0.222 HD
ENDBRANCH   5   7
BRANCH   5   9
ATOM      9  O   UNL     1       6.069  -1.707  27.197  0.00  0.00    -0.284 OA
BRANCH   9  10
ATOM     10  C   UNL     1       5.166  -0.724  26.475  0.00  0.00    +0.206 C 
BRANCH  10  11
ATOM     11  C   UNL     1       5.141   0.770  27.022  0.00  0.00    +0.179 C 
ATOM     12  C   UNL     1       5.579   1.081  28.502  0.00  0.00    +0.194 C 
ATOM     13  C   UNL     1       6.801   2.012  28.376  0.00  0.00    +0.196 C 
ATOM     14  C   UNL     1       7.150   2.005  26.892  0.00  0.00    +0.253 C 
ATOM     15  O   UNL     1       5.953   1.620  26.192  0.00  0.00    -0.346 OA
BRANCH  14  16
ATOM     16  N   UNL     1       7.512   3.328  26.403  0.00  0.00    -0.286 N 
ATOM     17  C   UNL     1       8.407   3.634  25.412  0.00  0.00    +0.167 A 
ATOM     18  N   UNL     1       9.174   2.802  24.686  0.00  0.00    -0.216 NA
ATOM     19  C   UNL     1       9.897   3.506  23.779  0.00  0.00    +0.225 A 
ATOM     20  N   UNL     1       9.976   4.847  23.605  0.00  0.00    -0.219 NA
ATOM     21  C   UNL     1       9.178   5.630  24.357  0.00  0.00    +0.147 A 
ATOM     22  N   UNL     1       9.238   7.010  24.179  0.00  0.00    -0.341 N 
ATOM     23  H   UNL     1       8.926   7.522  24.997  0.00  0.00    +0.144 HD
ATOM     24  H   UNL     1      10.113   7.290  23.754  0.00  0.00    +0.144 HD
ATOM     25  C   UNL     1       8.352   5.022  25.315  0.00  0.00    +0.147 A 
ATOM     26  N   UNL     1       7.481   5.557  26.239  0.00  0.00    -0.231 NA
ATOM     27  C   UNL     1       6.998   4.514  26.874  0.00  0.00    +0.203 A 
ENDBRANCH  14  16
BRANCH  13  28
ATOM     28  O   UNL     1       7.859   1.595  29.246  0.00  0.00    -0.385 OA
ATOM     29  H   UNL     1       8.137   0.694  28.981  0.00  0.00    +0.210 HD
ENDBRANCH  13  28
BRANCH  12  30
ATOM     30  O   UNL     1       4.526   1.831  29.123  0.00  0.00    -0.278 OA
BRANCH  30  31
ATOM     31  P   UNL     1       2.972   1.461  29.061  0.00  0.00    +0.473 P 
ATOM     32  O   UNL     1       2.553   0.037  28.998  0.00  0.00    -0.228 OA
BRANCH  31  33
ATOM     33  O   UNL     1       2.262   2.260  30.255  0.00  0.00    -0.303 OA
ATOM     34  H   UNL     1       1.806   1.634  30.852  0.00  0.00    +0.222 HD
ENDBRANCH  31  33
BRANCH  31  35
ATOM     35  O   UNL     1       2.430   2.326  27.844  0.00  0.00    -0.303 OA
ATOM     36  H   UNL     1       2.479   3.299  28.014  0.00  0.00    +0.222 HD
ENDBRANCH  31  35
ENDBRANCH  30  31
ENDBRANCH  12  30
ENDBRANCH  10  11
ENDBRANCH   9  10
ENDBRANCH   5   9
ENDBRANCH   4   5
ENDBRANCH   1   4
BRANCH   1  37
ATOM     37  O   UNL     1       7.206  -5.984  26.681  0.00  0.00    -0.327 OA
BRANCH  37  38
ATOM     38  C   UNL     1       5.392  -6.084  26.613  0.00  0.00    +0.177 C 
BRANCH  38  40
ATOM     39  C   UNL     1       3.416  -6.771  27.693  0.00  0.00    +0.016 C 
ATOM     40  C   UNL     1       3.970  -5.392  27.234  0.00  0.00    +0.023 C 
ATOM     41  C   UNL     1       4.483  -4.538  28.469  0.00  0.00    +0.016 C 
BRANCH  40  42
ATOM     42  C   UNL     1       2.850  -4.508  26.317  0.00  0.00    +0.208 C 
BRANCH  42  43
ATOM     43  C   UNL     1       1.785  -5.222  25.348  0.00  0.00    +0.242 C 
ATOM     44  N   UNL     1       2.005  -5.608  24.002  0.00  0.00    -0.313 N 
ATOM     45  H   UNL     1       1.111  -5.889  23.597  0.00  0.00    +0.149 HD
ATOM     46  O   UNL     1       0.624  -5.496  25.781  0.00  0.00    -0.273 OA
BRANCH  44  47
ATOM     47  C   UNL     1       3.109  -5.649  22.986  0.00  0.00    +0.113 C 
BRANCH  47  48
ATOM     48  C   UNL     1       4.484  -6.311  23.361  0.00  0.00    +0.114 C 
BRANCH  48  49
ATOM     49  C   UNL     1       5.706  -5.496  22.930  0.00  0.00    +0.215 C 
ATOM     50  N   UNL     1       5.475  -4.144  23.055  0.00  0.00    -0.314 N 
ATOM     51  H   UNL     1       4.496  -3.921  23.197  0.00  0.00    +0.149 HD
ATOM     52  O   UNL     1       6.680  -6.000  22.376  0.00  0.00    -0.276 OA
BRANCH  50  53
ATOM     53  C   UNL     1       5.858  -3.383  21.924  0.00  0.00    +0.115 C 
BRANCH  53  54
ATOM     54  C   UNL     1       6.324  -2.032  22.515  0.00  0.00    +0.096 C 
BRANCH  54  55
ATOM     55  S   UNL     1       8.403  -1.404  22.211  0.00  0.00    -0.087 S 
BRANCH  55  56
ATOM     56  C   UNL     1       7.942   0.367  22.389  0.00  0.00    +0.192 C 
ATOM     57  O   UNL     1       9.039   0.650  21.877  0.00  0.00    -0.285 OA
BRANCH  56  58
ATOM     58  C   UNL     1       6.348   1.590  22.605  0.00  0.00    +0.123 C 
BRANCH  58  59
ATOM     59  C   UNL     1       6.401   3.587  22.615  0.00  0.00    +0.167 C 
BRANCH  59  60
ATOM     60  O   UNL     1       7.288   4.382  21.733  0.00  0.00    -0.386 OA
ATOM     61  H   UNL     1       7.748   5.097  22.203  0.00  0.00    +0.210 HD
ENDBRANCH  59  60
BRANCH  59  62
ATOM     62  C   UNL     1       5.191   4.721  22.489  0.00  0.00    +0.164 C 
BRANCH  62  63
ATOM     63  N   UNL     1       3.579   4.220  23.142  0.00  0.00    +0.239 N 
ATOM     64  C   UNL     1       2.853   3.411  22.081  0.00  0.00    +0.192 C 
ATOM     65  C   UNL     1       2.684   5.451  23.452  0.00  0.00    +0.192 C 
ATOM     66  C   UNL     1       3.629   3.369  24.420  0.00  0.00    +0.192 C 
ENDBRANCH  62  63
ENDBRANCH  59  62
ENDBRANCH  58  59
ENDBRANCH  56  58
ENDBRANCH  55  56
ENDBRANCH  54  55
ENDBRANCH  53  54
ENDBRANCH  50  53
ENDBRANCH  48  49
ENDBRANCH  47  48
ENDBRANCH  44  47
ENDBRANCH  42  43
BRANCH  42  67
ATOM     67  O   UNL     1       3.567  -3.585  25.472  0.00  0.00    -0.382 OA
ATOM     68  H   UNL     1       4.294  -4.060  25.041  0.00  0.00    +0.210 HD
ENDBRANCH  42  67
ENDBRANCH  40  42
ENDBRANCH  38  40
ENDBRANCH  37  38
ENDBRANCH   1  37
TORSDOF 30
ENDMDL
MODEL 7
REMARK VINA RESULT:      -5.1      3.118      6.097
REMARK  Name = 
REMARK  35 active torsions:
REMARK  status: ('A' for Active; 'I' for Inactive)
REMARK    1  A    between atoms: C_1  and  C_2
REMARK    2  A    between atoms: C_2  and  C_3
REMARK    3  A    between atoms: C_2  and  C_4
REMARK    4  A    between atoms: C_2  and  C_40
REMARK    5  A    between atoms: C_4  and  O_5
REMARK    6  A    between atoms: O_5  and  P_6
REMARK    7  A    between atoms: P_6  and  O_9
REMARK    8  A    between atoms: O_9  and  P_10
REMARK    9  A    between atoms: P_10  and  O_11
REMARK   10  A    between atoms: P_10  and  O_13
REMARK   11  A    between atoms: O_13  and  C_14
REMARK   12  A    between atoms: C_14  and  C_15
REMARK   13  A    between atoms: C_18  and  N_30
REMARK   14  A    between atoms: C_20  and  O_22
REMARK   15  A    between atoms: C_23  and  O_25
REMARK   16  A    between atoms: O_25  and  P_26
REMARK   17  A    between atoms: P_26  and  O_27
REMARK   18  A    between atoms: P_26  and  O_28
REMARK   19  A    between atoms: C_40  and  O_42
REMARK   20  A    between atoms: C_40  and  C_43
REMARK   21  A    between atoms: N_45  and  C_46
REMARK   22  A    between atoms: C_46  and  C_47
REMARK   23  A    between atoms: C_47  and  C_48
REMARK   24  A    between atoms: N_50  and  C_51
REMARK   25  A    between atoms: C_51  and  C_52
REMARK   26  A    between atoms: C_52  and  S_53
REMARK   27  A    between atoms: S_53  and  C_54
REMARK   28  A    between atoms: C_54  and  C_56
REMARK   29  A    between atoms: C_56  and  C_57
REMARK   30  A    between atoms: C_57  and  O_59
REMARK   31  A    between atoms: C_57  and  C_60
REMARK   32  A    between atoms: C_60  and  N_61
REMARK   33  A    between atoms: N_61  and  C_62
REMARK   34  A    between atoms: N_61  and  C_63
REMARK   35  A    between atoms: N_61  and  C_64
REMARK                            x       y       z     vdW  Elec       q    Type
REMARK                         _______ _______ _______ _____ _____    ______ ____
ROOT
ATOM      1  P   UNL     1       6.247  -0.433  24.982  0.00  0.00    +0.222 P 
ATOM      2  O   UNL     1       4.905  -1.118  25.291  0.00  0.00    -0.437 OA
ATOM      3  O   UNL     1       7.024  -0.320  26.277  0.00  0.00    -0.517 OA
ENDROOT
BRANCH   1   4
ATOM      4  O   UNL     1       7.402  -1.254  23.970  0.00  0.00    -0.229 OA
BRANCH   4   5
ATOM      5  P   UNL     1       7.776  -2.776  24.702  0.00  0.00    +0.480 P 
ATOM      6  O   UNL     1       9.272  -2.590  24.406  0.00  0.00    -0.227 OA
BRANCH   5   7
ATOM      7  O   UNL     1       7.290  -3.689  23.442  0.00  0.00    -0.302 OA
ATOM      8  H   UNL     1       6.581  -4.376  23.583  0.00  0.00    +0.222 HD
ENDBRANCH   5   7
BRANCH   5   9
ATOM      9  O   UNL     1       8.151  -4.298  25.434  0.00  0.00    -0.284 OA
BRANCH   9  10
ATOM     10  C   UNL     1       7.547  -4.389  26.823  0.00  0.00    +0.206 C 
BRANCH  10  11
ATOM     11  C   UNL     1       6.140  -5.120  26.952  0.00  0.00    +0.179 C 
ATOM     12  C   UNL     1       4.917  -4.378  27.611  0.00  0.00    +0.194 C 
ATOM     13  C   UNL     1       3.851  -4.288  26.501  0.00  0.00    +0.196 C 
ATOM     14  C   UNL     1       4.563  -4.745  25.233  0.00  0.00    +0.253 C 
ATOM     15  O   UNL     1       5.679  -5.549  25.658  0.00  0.00    -0.346 OA
BRANCH  14  16
ATOM     16  N   UNL     1       3.725  -5.601  24.406  0.00  0.00    -0.286 N 
ATOM     17  C   UNL     1       3.003  -6.696  24.802  0.00  0.00    +0.167 A 
ATOM     18  N   UNL     1       2.920  -7.250  26.024  0.00  0.00    -0.216 NA
ATOM     19  C   UNL     1       2.065  -8.303  26.002  0.00  0.00    +0.225 A 
ATOM     20  N   UNL     1       1.413  -8.851  24.949  0.00  0.00    -0.219 NA
ATOM     21  C   UNL     1       1.528  -8.247  23.750  0.00  0.00    +0.147 A 
ATOM     22  N   UNL     1       0.851  -8.792  22.661  0.00  0.00    -0.341 N 
ATOM     23  H   UNL     1       1.273  -8.539  21.775  0.00  0.00    +0.144 HD
ATOM     24  H   UNL     1       0.627  -9.767  22.815  0.00  0.00    +0.144 HD
ATOM     25  C   UNL     1       2.359  -7.122  23.643  0.00  0.00    +0.147 A 
ATOM     26  N   UNL     1       2.701  -6.340  22.561  0.00  0.00    -0.231 NA
ATOM     27  C   UNL     1       3.521  -5.441  23.054  0.00  0.00    +0.203 A 
ENDBRANCH  14  16
BRANCH  13  28
ATOM     28  O   UNL     1       3.286  -2.973  26.434  0.00  0.00    -0.385 OA
ATOM     29  H   UNL     1       3.476  -2.603  25.547  0.00  0.00    +0.210 HD
ENDBRANCH  13  28
BRANCH  12  30
ATOM     30  O   UNL     1       4.395  -5.224  28.645  0.00  0.00    -0.278 OA
BRANCH  30  31
ATOM     31  P   UNL     1       5.197  -6.408  29.358  0.00  0.00    +0.473 P 
ATOM     32  O   UNL     1       6.492  -6.125  30.027  0.00  0.00    -0.228 OA
BRANCH  31  33
ATOM     33  O   UNL     1       4.156  -7.152  30.322  0.00  0.00    -0.303 OA
ATOM     34  H   UNL     1       4.170  -6.744  31.211  0.00  0.00    +0.222 HD
ENDBRANCH  31  33
BRANCH  31  35
ATOM     35  O   UNL     1       5.307  -7.520  28.228  0.00  0.00    -0.303 OA
ATOM     36  H   UNL     1       6.200  -7.546  27.804  0.00  0.00    +0.222 HD
ENDBRANCH  31  35
ENDBRANCH  30  31
ENDBRANCH  12  30
ENDBRANCH  10  11
ENDBRANCH   9  10
ENDBRANCH   5   9
ENDBRANCH   4   5
ENDBRANCH   1   4
BRANCH   1  37
ATOM     37  O   UNL     1       5.642   1.207  24.128  0.00  0.00    -0.327 OA
BRANCH  37  38
ATOM     38  C   UNL     1       4.815   2.735  24.664  0.00  0.00    +0.177 C 
BRANCH  38  40
ATOM     39  C   UNL     1       4.392   5.031  24.360  0.00  0.00    +0.016 C 
ATOM     40  C   UNL     1       3.500   3.758  24.326  0.00  0.00    +0.023 C 
ATOM     41  C   UNL     1       3.104   3.372  22.839  0.00  0.00    +0.016 C 
BRANCH  40  42
ATOM     42  C   UNL     1       2.118   3.900  25.297  0.00  0.00    +0.208 C 
BRANCH  42  43
ATOM     43  C   UNL     1       1.359   2.616  25.896  0.00  0.00    +0.242 C 
ATOM     44  N   UNL     1       1.300   2.240  27.261  0.00  0.00    -0.313 N 
ATOM     45  H   UNL     1       0.888   1.307  27.321  0.00  0.00    +0.149 HD
ATOM     46  O   UNL     1       0.730   1.836  25.118  0.00  0.00    -0.273 OA
BRANCH  44  47
ATOM     47  C   UNL     1       1.725   2.744  28.610  0.00  0.00    +0.113 C 
BRANCH  47  48
ATOM     48  C   UNL     1       2.760   1.917  29.456  0.00  0.00    +0.114 C 
BRANCH  48  49
ATOM     49  C   UNL     1       4.009   1.500  28.676  0.00  0.00    +0.215 C 
ATOM     50  N   UNL     1       5.143   2.082  29.197  0.00  0.00    -0.314 N 
ATOM     51  H   UNL     1       4.939   2.834  29.848  0.00  0.00    +0.149 HD
ATOM     52  O   UNL     1       3.956   0.875  27.619  0.00  0.00    -0.276 OA
BRANCH  50  53
ATOM     53  C   UNL     1       5.993   2.666  28.227  0.00  0.00    +0.115 C 
BRANCH  53  54
ATOM     54  C   UNL     1       5.442   4.101  28.052  0.00  0.00    +0.096 C 
BRANCH  54  55
ATOM     55  S   UNL     1       6.755   5.800  28.500  0.00  0.00    -0.087 S 
BRANCH  55  56
ATOM     56  C   UNL     1       7.289   5.907  26.744  0.00  0.00    +0.192 C 
ATOM     57  O   UNL     1       6.962   7.108  26.772  0.00  0.00    -0.285 OA
BRANCH  56  58
ATOM     58  C   UNL     1       8.458   4.998  25.370  0.00  0.00    +0.123 C 
BRANCH  58  59
ATOM     59  C   UNL     1       7.885   4.423  23.544  0.00  0.00    +0.167 C 
BRANCH  59  60
ATOM     60  O   UNL     1       8.030   5.276  22.340  0.00  0.00    -0.386 OA
ATOM     61  H   UNL     1       8.165   6.214  22.554  0.00  0.00    +0.210 HD
ENDBRANCH  59  60
BRANCH  59  62
ATOM     62  C   UNL     1       8.223   3.054  22.665  0.00  0.00    +0.164 C 
BRANCH  62  63
ATOM     63  N   UNL     1       9.732   2.172  23.138  0.00  0.00    +0.239 N 
ATOM     64  C   UNL     1       9.965   1.040  22.153  0.00  0.00    +0.192 C 
ATOM     65  C   UNL     1       9.593   1.520  24.540  0.00  0.00    +0.192 C 
ATOM     66  C   UNL     1      11.006   3.031  23.167  0.00  0.00    +0.192 C 
ENDBRANCH  62  63
ENDBRANCH  59  62
ENDBRANCH  58  59
ENDBRANCH  56  58
ENDBRANCH  55  56
ENDBRANCH  54  55
ENDBRANCH  53  54
ENDBRANCH  50  53
ENDBRANCH  48  49
ENDBRANCH  47  48
ENDBRANCH  44  47
ENDBRANCH  42  43
BRANCH  42  67
ATOM     67  O   UNL     1       1.108   4.625  24.565  0.00  0.00    -0.382 OA
ATOM     68  H   UNL     1       0.399   4.010  24.321  0.00  0.00    +0.210 HD
ENDBRANCH  42  67
ENDBRANCH  40  42
ENDBRANCH  38  40
ENDBRANCH  37  38
ENDBRANCH   1  37
TORSDOF 30
ENDMDL
MODEL 8
REMARK VINA RESULT:      -5.1      3.638      8.735
REMARK  Name = 
REMARK  35 active torsions:
REMARK  status: ('A' for Active; 'I' for Inactive)
REMARK    1  A    between atoms: C_1  and  C_2
REMARK    2  A    between atoms: C_2  and  C_3
REMARK    3  A    between atoms: C_2  and  C_4
REMARK    4  A    between atoms: C_2  and  C_40
REMARK    5  A    between atoms: C_4  and  O_5
REMARK    6  A    between atoms: O_5  and  P_6
REMARK    7  A    between atoms: P_6  and  O_9
REMARK    8  A    between atoms: O_9  and  P_10
REMARK    9  A    between atoms: P_10  and  O_11
REMARK   10  A    between atoms: P_10  and  O_13
REMARK   11  A    between atoms: O_13  and  C_14
REMARK   12  A    between atoms: C_14  and  C_15
REMARK   13  A    between atoms: C_18  and  N_30
REMARK   14  A    between atoms: C_20  and  O_22
REMARK   15  A    between atoms: C_23  and  O_25
REMARK   16  A    between atoms: O_25  and  P_26
REMARK   17  A    between atoms: P_26  and  O_27
REMARK   18  A    between atoms: P_26  and  O_28
REMARK   19  A    between atoms: C_40  and  O_42
REMARK   20  A    between atoms: C_40  and  C_43
REMARK   21  A    between atoms: N_45  and  C_46
REMARK   22  A    between atoms: C_46  and  C_47
REMARK   23  A    between atoms: C_47  and  C_48
REMARK   24  A    between atoms: N_50  and  C_51
REMARK   25  A    between atoms: C_51  and  C_52
REMARK   26  A    between atoms: C_52  and  S_53
REMARK   27  A    between atoms: S_53  and  C_54
REMARK   28  A    between atoms: C_54  and  C_56
REMARK   29  A    between atoms: C_56  and  C_57
REMARK   30  A    between atoms: C_57  and  O_59
REMARK   31  A    between atoms: C_57  and  C_60
REMARK   32  A    between atoms: C_60  and  N_61
REMARK   33  A    between atoms: N_61  and  C_62
REMARK   34  A    between atoms: N_61  and  C_63
REMARK   35  A    between atoms: N_61  and  C_64
REMARK                            x       y       z     vdW  Elec       q    Type
REMARK                         _______ _______ _______ _____ _____    ______ ____
ROOT
ATOM      1  P   UNL     1       8.056  -4.900  26.393  0.00  0.00    +0.222 P 
ATOM      2  O   UNL     1       8.889  -6.037  25.777  0.00  0.00    -0.437 OA
ATOM      3  O   UNL     1       9.007  -3.801  26.818  0.00  0.00    -0.517 OA
ENDROOT
BRANCH   1   4
ATOM      4  O   UNL     1       6.954  -4.013  25.376  0.00  0.00    -0.229 OA
BRANCH   4   5
ATOM      5  P   UNL     1       6.498  -2.566  26.206  0.00  0.00    +0.480 P 
ATOM      6  O   UNL     1       7.955  -2.079  26.229  0.00  0.00    -0.227 OA
BRANCH   5   7
ATOM      7  O   UNL     1       6.346  -3.259  27.674  0.00  0.00    -0.302 OA
ATOM      8  H   UNL     1       5.862  -2.769  28.396  0.00  0.00    +0.222 HD
ENDBRANCH   5   7
BRANCH   5   9
ATOM      9  O   UNL     1       6.043  -1.118  27.037  0.00  0.00    -0.284 OA
BRANCH   9  10
ATOM     10  C   UNL     1       4.707  -0.606  26.530  0.00  0.00    +0.206 C 
BRANCH  10  11
ATOM     11  C   UNL     1       4.507   0.972  26.488  0.00  0.00    +0.179 C 
ATOM     12  C   UNL     1       5.222   1.891  27.548  0.00  0.00    +0.194 C 
ATOM     13  C   UNL     1       6.155   2.806  26.729  0.00  0.00    +0.196 C 
ATOM     14  C   UNL     1       6.122   2.238  25.315  0.00  0.00    +0.253 C 
ATOM     15  O   UNL     1       4.896   1.491  25.203  0.00  0.00    -0.346 OA
BRANCH  14  16
ATOM     16  N   UNL     1       6.069   3.280  24.301  0.00  0.00    -0.286 N 
ATOM     17  C   UNL     1       7.052   4.175  23.973  0.00  0.00    +0.167 A 
ATOM     18  N   UNL     1       8.272   4.322  24.521  0.00  0.00    -0.216 NA
ATOM     19  C   UNL     1       8.956   5.303  23.880  0.00  0.00    +0.225 A 
ATOM     20  N   UNL     1       8.539   6.128  22.891  0.00  0.00    -0.219 NA
ATOM     21  C   UNL     1       7.310   5.929  22.377  0.00  0.00    +0.147 A 
ATOM     22  N   UNL     1       6.873   6.762  21.350  0.00  0.00    -0.341 N 
ATOM     23  H   UNL     1       5.862   6.809  21.289  0.00  0.00    +0.144 HD
ATOM     24  H   UNL     1       7.387   7.634  21.337  0.00  0.00    +0.144 HD
ATOM     25  C   UNL     1       6.507   4.919  22.929  0.00  0.00    +0.147 A 
ATOM     26  N   UNL     1       5.219   4.521  22.647  0.00  0.00    -0.231 NA
ATOM     27  C   UNL     1       4.988   3.540  23.489  0.00  0.00    +0.203 A 
ENDBRANCH  14  16
BRANCH  13  28
ATOM     28  O   UNL     1       7.457   2.876  27.320  0.00  0.00    -0.385 OA
ATOM     29  H   UNL     1       7.919   3.657  26.950  0.00  0.00    +0.210 HD
ENDBRANCH  13  28
BRANCH  12  30
ATOM     30  O   UNL     1       4.222   2.723  28.153  0.00  0.00    -0.278 OA
BRANCH  30  31
ATOM     31  P   UNL     1       3.004   2.198  29.045  0.00  0.00    +0.473 P 
ATOM     32  O   UNL     1       1.713   1.848  28.399  0.00  0.00    -0.228 OA
BRANCH  31  33
ATOM     33  O   UNL     1       3.579   1.011  29.954  0.00  0.00    -0.303 OA
ATOM     34  H   UNL     1       4.425   1.281  30.365  0.00  0.00    +0.222 HD
ENDBRANCH  31  33
BRANCH  31  35
ATOM     35  O   UNL     1       2.859   3.309  30.172  0.00  0.00    -0.303 OA
ATOM     36  H   UNL     1       3.716   3.513  30.619  0.00  0.00    +0.222 HD
ENDBRANCH  31  35
ENDBRANCH  30  31
ENDBRANCH  12  30
ENDBRANCH  10  11
ENDBRANCH   9  10
ENDBRANCH   5   9
ENDBRANCH   4   5
ENDBRANCH   1   4
BRANCH   1  37
ATOM     37  O   UNL     1       7.080  -5.858  27.777  0.00  0.00    -0.327 OA
BRANCH  37  38
ATOM     38  C   UNL     1       5.338  -6.246  28.120  0.00  0.00    +0.177 C 
BRANCH  38  40
ATOM     39  C   UNL     1       3.295  -7.055  28.967  0.00  0.00    +0.016 C 
ATOM     40  C   UNL     1       3.932  -5.641  28.858  0.00  0.00    +0.023 C 
ATOM     41  C   UNL     1       4.445  -5.129  30.269  0.00  0.00    +0.016 C 
BRANCH  40  42
ATOM     42  C   UNL     1       2.888  -4.505  28.152  0.00  0.00    +0.208 C 
BRANCH  42  43
ATOM     43  C   UNL     1       1.345  -4.835  27.849  0.00  0.00    +0.242 C 
ATOM     44  N   UNL     1       0.774  -5.070  26.573  0.00  0.00    -0.313 N 
ATOM     45  H   UNL     1      -0.242  -5.096  26.675  0.00  0.00    +0.149 HD
ATOM     46  O   UNL     1       0.517  -4.911  28.808  0.00  0.00    -0.273 OA
BRANCH  44  47
ATOM     47  C   UNL     1       1.189  -5.208  25.137  0.00  0.00    +0.113 C 
BRANCH  47  48
ATOM     48  C   UNL     1       1.321  -6.638  24.502  0.00  0.00    +0.114 C 
BRANCH  48  49
ATOM     49  C   UNL     1       2.590  -7.389  24.917  0.00  0.00    +0.215 C 
ATOM     50  N   UNL     1       3.630  -6.520  25.157  0.00  0.00    -0.314 N 
ATOM     51  H   UNL     1       3.448  -5.581  24.817  0.00  0.00    +0.149 HD
ATOM     52  O   UNL     1       2.688  -8.612  24.858  0.00  0.00    -0.276 OA
BRANCH  50  53
ATOM     53  C   UNL     1       4.852  -6.894  24.547  0.00  0.00    +0.115 C 
BRANCH  53  54
ATOM     54  C   UNL     1       4.976  -5.945  23.331  0.00  0.00    +0.096 C 
BRANCH  54  55
ATOM     55  S   UNL     1       6.582  -6.291  21.878  0.00  0.00    -0.087 S 
BRANCH  55  56
ATOM     56  C   UNL     1       6.649  -4.502  21.460  0.00  0.00    +0.192 C 
ATOM     57  O   UNL     1       5.891  -4.749  20.505  0.00  0.00    -0.285 OA
BRANCH  56  58
ATOM     58  C   UNL     1       7.050  -2.688  22.255  0.00  0.00    +0.123 C 
BRANCH  58  59
ATOM     59  C   UNL     1       8.749  -2.161  23.166  0.00  0.00    +0.167 C 
BRANCH  59  60
ATOM     60  O   UNL     1       9.669  -3.137  23.799  0.00  0.00    -0.386 OA
ATOM     61  H   UNL     1      10.445  -2.717  24.206  0.00  0.00    +0.210 HD
ENDBRANCH  59  60
BRANCH  59  62
ATOM     62  C   UNL     1      10.025  -1.224  22.659  0.00  0.00    +0.164 C 
BRANCH  62  63
ATOM     63  N   UNL     1      10.030   0.483  23.265  0.00  0.00    +0.239 N 
ATOM     64  C   UNL     1       8.725   0.745  23.996  0.00  0.00    +0.192 C 
ATOM     65  C   UNL     1      10.096   1.500  22.094  0.00  0.00    +0.192 C 
ATOM     66  C   UNL     1      11.178   0.829  24.225  0.00  0.00    +0.192 C 
ENDBRANCH  62  63
ENDBRANCH  59  62
ENDBRANCH  58  59
ENDBRANCH  56  58
ENDBRANCH  55  56
ENDBRANCH  54  55
ENDBRANCH  53  54
ENDBRANCH  50  53
ENDBRANCH  48  49
ENDBRANCH  47  48
ENDBRANCH  44  47
ENDBRANCH  42  43
BRANCH  42  67
ATOM     67  O   UNL     1       3.440  -4.092  26.884  0.00  0.00    -0.382 OA
ATOM     68  H   UNL     1       2.871  -3.403  26.508  0.00  0.00    +0.210 HD
ENDBRANCH  42  67
ENDBRANCH  40  42
ENDBRANCH  38  40
ENDBRANCH  37  38
ENDBRANCH   1  37
TORSDOF 30
ENDMDL
MODEL 9
REMARK VINA RESULT:      -5.1      3.692      7.613
REMARK  Name = 
REMARK  35 active torsions:
REMARK  status: ('A' for Active; 'I' for Inactive)
REMARK    1  A    between atoms: C_1  and  C_2
REMARK    2  A    between atoms: C_2  and  C_3
REMARK    3  A    between atoms: C_2  and  C_4
REMARK    4  A    between atoms: C_2  and  C_40
REMARK    5  A    between atoms: C_4  and  O_5
REMARK    6  A    between atoms: O_5  and  P_6
REMARK    7  A    between atoms: P_6  and  O_9
REMARK    8  A    between atoms: O_9  and  P_10
REMARK    9  A    between atoms: P_10  and  O_11
REMARK   10  A    between atoms: P_10  and  O_13
REMARK   11  A    between atoms: O_13  and  C_14
REMARK   12  A    between atoms: C_14  and  C_15
REMARK   13  A    between atoms: C_18  and  N_30
REMARK   14  A    between atoms: C_20  and  O_22
REMARK   15  A    between atoms: C_23  and  O_25
REMARK   16  A    between atoms: O_25  and  P_26
REMARK   17  A    between atoms: P_26  and  O_27
REMARK   18  A    between atoms: P_26  and  O_28
REMARK   19  A    between atoms: C_40  and  O_42
REMARK   20  A    between atoms: C_40  and  C_43
REMARK   21  A    between atoms: N_45  and  C_46
REMARK   22  A    between atoms: C_46  and  C_47
REMARK   23  A    between atoms: C_47  and  C_48
REMARK   24  A    between atoms: N_50  and  C_51
REMARK   25  A    between atoms: C_51  and  C_52
REMARK   26  A    between atoms: C_52  and  S_53
REMARK   27  A    between atoms: S_53  and  C_54
REMARK   28  A    between atoms: C_54  and  C_56
REMARK   29  A    between atoms: C_56  and  C_57
REMARK   30  A    between atoms: C_57  and  O_59
REMARK   31  A    between atoms: C_57  and  C_60
REMARK   32  A    between atoms: C_60  and  N_61
REMARK   33  A    between atoms: N_61  and  C_62
REMARK   34  A    between atoms: N_61  and  C_63
REMARK   35  A    between atoms: N_61  and  C_64
REMARK                            x       y       z     vdW  Elec       q    Type
REMARK                         _______ _______ _______ _____ _____    ______ ____
ROOT
ATOM      1  P   UNL     1       5.801   1.498  25.025  0.00  0.00    +0.222 P 
ATOM      2  O   UNL     1       6.409   2.909  25.093  0.00  0.00    -0.437 OA
ATOM      3  O   UNL     1       6.290   0.839  23.753  0.00  0.00    -0.517 OA
ENDROOT
BRANCH   1   4
ATOM      4  O   UNL     1       6.272   0.317  26.216  0.00  0.00    -0.229 OA
BRANCH   4   5
ATOM      5  P   UNL     1       4.869  -0.118  27.129  0.00  0.00    +0.480 P 
ATOM      6  O   UNL     1       5.048   1.097  28.051  0.00  0.00    -0.227 OA
BRANCH   5   7
ATOM      7  O   UNL     1       5.589  -1.305  27.983  0.00  0.00    -0.302 OA
ATOM      8  H   UNL     1       5.611  -2.229  27.610  0.00  0.00    +0.222 HD
ENDBRANCH   5   7
BRANCH   5   9
ATOM      9  O   UNL     1       3.464  -0.553  28.042  0.00  0.00    -0.284 OA
BRANCH   9  10
ATOM     10  C   UNL     1       2.584  -1.504  27.253  0.00  0.00    +0.206 C 
BRANCH  10  11
ATOM     11  C   UNL     1       3.284  -2.792  26.635  0.00  0.00    +0.179 C 
ATOM     12  C   UNL     1       3.651  -4.014  27.557  0.00  0.00    +0.194 C 
ATOM     13  C   UNL     1       2.831  -5.199  27.007  0.00  0.00    +0.196 C 
ATOM     14  C   UNL     1       1.882  -4.580  25.987  0.00  0.00    +0.253 C 
ATOM     15  O   UNL     1       2.480  -3.337  25.573  0.00  0.00    -0.346 OA
BRANCH  14  16
ATOM     16  N   UNL     1       1.749  -5.397  24.789  0.00  0.00    -0.286 N 
ATOM     17  C   UNL     1       1.539  -6.748  24.721  0.00  0.00    +0.167 A 
ATOM     18  N   UNL     1       1.434  -7.635  25.727  0.00  0.00    -0.216 NA
ATOM     19  C   UNL     1       1.189  -8.874  25.233  0.00  0.00    +0.225 A 
ATOM     20  N   UNL     1       1.126  -9.282  23.943  0.00  0.00    -0.219 NA
ATOM     21  C   UNL     1       1.230  -8.348  22.978  0.00  0.00    +0.147 A 
ATOM     22  N   UNL     1       1.155  -8.752  21.647  0.00  0.00    -0.341 N 
ATOM     23  H   UNL     1       1.608  -8.101  21.016  0.00  0.00    +0.144 HD
ATOM     24  H   UNL     1       1.372  -9.735  21.546  0.00  0.00    +0.144 HD
ATOM     25  C   UNL     1       1.453  -7.015  23.356  0.00  0.00    +0.147 A 
ATOM     26  N   UNL     1       1.642  -5.874  22.608  0.00  0.00    -0.231 NA
ATOM     27  C   UNL     1       1.819  -4.925  23.498  0.00  0.00    +0.203 A 
ENDBRANCH  14  16
BRANCH  13  28
ATOM     28  O   UNL     1       2.190  -5.919  28.066  0.00  0.00    -0.385 OA
ATOM     29  H   UNL     1       2.652  -6.775  28.177  0.00  0.00    +0.210 HD
ENDBRANCH  13  28
BRANCH  12  30
ATOM     30  O   UNL     1       5.038  -4.317  27.353  0.00  0.00    -0.278 OA
BRANCH  30  31
ATOM     31  P   UNL     1       5.899  -5.330  28.241  0.00  0.00    +0.473 P 
ATOM     32  O   UNL     1       5.792  -5.288  29.722  0.00  0.00    -0.228 OA
BRANCH  31  33
ATOM     33  O   UNL     1       5.642  -6.795  27.646  0.00  0.00    -0.303 OA
ATOM     34  H   UNL     1       5.703  -7.462  28.358  0.00  0.00    +0.222 HD
ENDBRANCH  31  33
BRANCH  31  35
ATOM     35  O   UNL     1       7.384  -5.120  27.715  0.00  0.00    -0.303 OA
ATOM     36  H   UNL     1       7.450  -5.163  26.729  0.00  0.00    +0.222 HD
ENDBRANCH  31  35
ENDBRANCH  30  31
ENDBRANCH  12  30
ENDBRANCH  10  11
ENDBRANCH   9  10
ENDBRANCH   5   9
ENDBRANCH   4   5
ENDBRANCH   1   4
BRANCH   1  37
ATOM     37  O   UNL     1       3.904   1.900  25.181  0.00  0.00    -0.327 OA
BRANCH  37  38
ATOM     38  C   UNL     1       2.800   3.239  24.641  0.00  0.00    +0.177 C 
BRANCH  38  40
ATOM     39  C   UNL     1       0.997   4.722  24.331  0.00  0.00    +0.016 C 
ATOM     40  C   UNL     1       2.444   4.884  24.877  0.00  0.00    +0.023 C 
ATOM     41  C   UNL     1       2.449   5.040  26.456  0.00  0.00    +0.016 C 
BRANCH  40  42
ATOM     42  C   UNL     1       3.281   6.165  24.145  0.00  0.00    +0.208 C 
BRANCH  42  43
ATOM     43  C   UNL     1       3.499   6.245  22.555  0.00  0.00    +0.242 C 
ATOM     44  N   UNL     1       4.689   6.636  21.892  0.00  0.00    -0.313 N 
ATOM     45  H   UNL     1       4.484   6.742  20.897  0.00  0.00    +0.149 HD
ATOM     46  O   UNL     1       2.550   5.933  21.773  0.00  0.00    -0.273 OA
BRANCH  44  47
ATOM     47  C   UNL     1       6.108   7.015  22.207  0.00  0.00    +0.113 C 
BRANCH  47  48
ATOM     48  C   UNL     1       7.274   6.033  21.829  0.00  0.00    +0.114 C 
BRANCH  48  49
ATOM     49  C   UNL     1       7.017   4.578  22.231  0.00  0.00    +0.215 C 
ATOM     50  N   UNL     1       8.193   3.924  22.522  0.00  0.00    -0.314 N 
ATOM     51  H   UNL     1       9.016   4.434  22.220  0.00  0.00    +0.149 HD
ATOM     52  O   UNL     1       5.917   4.042  22.120  0.00  0.00    -0.276 OA
BRANCH  50  53
ATOM     53  C   UNL     1       8.315   2.651  21.914  0.00  0.00    +0.115 C 
BRANCH  53  54
ATOM     54  C   UNL     1       9.638   2.084  22.480  0.00  0.00    +0.096 C 
BRANCH  54  55
ATOM     55  S   UNL     1       9.733   1.537  24.603  0.00  0.00    -0.087 S 
BRANCH  55  56
ATOM     56  C   UNL     1      10.398  -0.126  24.190  0.00  0.00    +0.192 C 
ATOM     57  O   UNL     1      11.499   0.266  24.617  0.00  0.00    -0.285 OA
BRANCH  56  58
ATOM     58  C   UNL     1       9.833  -2.038  23.860  0.00  0.00    +0.123 C 
BRANCH  58  59
ATOM     59  C   UNL     1       7.954  -2.721  23.878  0.00  0.00    +0.167 C 
BRANCH  59  60
ATOM     60  O   UNL     1       6.812  -1.945  24.418  0.00  0.00    -0.386 OA
ATOM     61  H   UNL     1       6.982  -1.588  25.305  0.00  0.00    +0.210 HD
ENDBRANCH  59  60
BRANCH  59  62
ATOM     62  C   UNL     1       7.005  -3.361  22.674  0.00  0.00    +0.164 C 
BRANCH  62  63
ATOM     63  N   UNL     1       6.523  -5.093  22.895  0.00  0.00    +0.239 N 
ATOM     64  C   UNL     1       7.606  -5.979  22.305  0.00  0.00    +0.192 C 
ATOM     65  C   UNL     1       5.214  -5.420  22.127  0.00  0.00    +0.192 C 
ATOM     66  C   UNL     1       6.310  -5.528  24.352  0.00  0.00    +0.192 C 
ENDBRANCH  62  63
ENDBRANCH  59  62
ENDBRANCH  58  59
ENDBRANCH  56  58
ENDBRANCH  55  56
ENDBRANCH  54  55
ENDBRANCH  53  54
ENDBRANCH  50  53
ENDBRANCH  48  49
ENDBRANCH  47  48
ENDBRANCH  44  47
ENDBRANCH  42  43
BRANCH  42  67
ATOM     67  O   UNL     1       4.607   6.236  24.710  0.00  0.00    -0.382 OA
ATOM     68  H   UNL     1       4.959   7.127  24.563  0.00  0.00    +0.210 HD
ENDBRANCH  42  67
ENDBRANCH  40  42
ENDBRANCH  38  40
ENDBRANCH  37  38
ENDBRANCH   1  37
TORSDOF 30
ENDMDL
