MODEL 1
REMARK VINA RESULT:      -4.7      0.000      0.000
REMARK  Name = 
REMARK  12 active torsions:
REMARK  status: ('A' for Active; 'I' for Inactive)
REMARK    1  A    between atoms: O_1  and  C_2
REMARK    2  A    between atoms: C_2  and  C_3
REMARK    3  A    between atoms: C_3  and  O_5
REMARK    4  A    between atoms: C_3  and  C_6
REMARK    5  A    between atoms: C_6  and  O_8
REMARK    6  A    between atoms: C_6  and  C_9
REMARK    7  A    between atoms: C_9  and  O_11
REMARK    8  A    between atoms: C_9  and  C_12
REMARK    9  A    between atoms: C_12  and  O_13
REMARK   10  A    between atoms: O_13  and  P_14
REMARK   11  A    between atoms: P_14  and  O_15
REMARK   12  A    between atoms: P_14  and  O_16
REMARK                            x       y       z     vdW  Elec       q    Type
REMARK                         _______ _______ _______ _____ _____    ______ ____
ROOT
ATOM      1  C   UNL     1       8.732  -1.967  23.367  0.00  0.00    +0.172 C 
ENDROOT
BRANCH   1   2
ATOM      2  O   UNL     1       8.042  -2.748  22.392  0.00  0.00    -0.387 OA
ATOM      3  H   UNL     1       8.649  -2.815  21.620  0.00  0.00    +0.210 HD
ENDBRANCH   1   2
BRANCH   1   4
ATOM      4  C   UNL     1       9.430  -0.737  22.725  0.00  0.00    +0.176 C 
BRANCH   4   5
ATOM      5  O   UNL     1       9.873  -1.010  21.386  0.00  0.00    -0.387 OA
ATOM      6  H   UNL     1      10.770  -0.661  21.282  0.00  0.00    +0.210 HD
ENDBRANCH   4   5
BRANCH   4   7
ATOM      7  C   UNL     1       8.485   0.482  22.703  0.00  0.00    +0.171 C 
BRANCH   7   8
ATOM      8  O   UNL     1       7.108   0.064  22.778  0.00  0.00    -0.387 OA
ATOM      9  H   UNL     1       6.642   0.824  23.189  0.00  0.00    +0.210 HD
ENDBRANCH   7   8
BRANCH   7  10
ATOM     10  C   UNL     1       8.674   1.341  21.446  0.00  0.00    +0.189 C 
BRANCH  10  11
ATOM     11  O   UNL     1       9.946   1.992  21.538  0.00  0.00    -0.392 OA
ATOM     12  H   UNL     1      10.148   2.071  22.488  0.00  0.00    +0.210 HD
ENDBRANCH  10  11
ENDBRANCH   7  10
ENDBRANCH   4   7
ENDBRANCH   1   4
BRANCH   1  13
ATOM     13  C   UNL     1       9.707  -2.878  24.115  0.00  0.00    +0.206 C 
BRANCH  13  14
ATOM     14  O   UNL     1       9.031  -3.473  25.208  0.00  0.00    -0.284 OA
BRANCH  14  15
ATOM     15  P   UNL     1       8.964  -5.066  25.257  0.00  0.00    +0.472 P 
ATOM     16  O   UNL     1       8.052  -5.660  26.264  0.00  0.00    -0.228 OA
BRANCH  15  17
ATOM     17  O   UNL     1      10.481  -5.530  25.387  0.00  0.00    -0.303 OA
ATOM     18  H   UNL     1      10.738  -6.117  24.648  0.00  0.00    +0.222 HD
ENDBRANCH  15  17
BRANCH  15  19
ATOM     19  O   UNL     1       8.581  -5.470  23.759  0.00  0.00    -0.303 OA
ATOM     20  H   UNL     1       7.633  -5.308  23.600  0.00  0.00    +0.222 HD
ENDBRANCH  15  19
ENDBRANCH  14  15
ENDBRANCH  13  14
ENDBRANCH   1  13
TORSDOF 12
ENDMDL
MODEL 2
REMARK VINA RESULT:      -4.7      3.282      5.741
REMARK  Name = 
REMARK  12 active torsions:
REMARK  status: ('A' for Active; 'I' for Inactive)
REMARK    1  A    between atoms: O_1  and  C_2
REMARK    2  A    between atoms: C_2  and  C_3
REMARK    3  A    between atoms: C_3  and  O_5
REMARK    4  A    between atoms: C_3  and  C_6
REMARK    5  A    between atoms: C_6  and  O_8
REMARK    6  A    between atoms: C_6  and  C_9
REMARK    7  A    between atoms: C_9  and  O_11
REMARK    8  A    between atoms: C_9  and  C_12
REMARK    9  A    between atoms: C_12  and  O_13
REMARK   10  A    between atoms: O_13  and  P_14
REMARK   11  A    between atoms: P_14  and  O_15
REMARK   12  A    between atoms: P_14  and  O_16
REMARK                            x       y       z     vdW  Elec       q    Type
REMARK                         _______ _______ _______ _____ _____    ______ ____
ROOT
ATOM      1  C   UNL     1       8.487  -3.447  24.002  0.00  0.00    +0.172 C 
ENDROOT
BRANCH   1   2
ATOM      2  O   UNL     1       9.835  -3.078  23.717  0.00  0.00    -0.387 OA
ATOM      3  H   UNL     1      10.371  -3.403  24.476  0.00  0.00    +0.210 HD
ENDBRANCH   1   2
BRANCH   1   4
ATOM      4  C   UNL     1       8.417  -4.737  24.866  0.00  0.00    +0.176 C 
BRANCH   4   5
ATOM      5  O   UNL     1       9.517  -5.621  24.599  0.00  0.00    -0.387 OA
ATOM      6  H   UNL     1      10.303  -5.086  24.415  0.00  0.00    +0.210 HD
ENDBRANCH   4   5
BRANCH   4   7
ATOM      7  C   UNL     1       8.401  -4.392  26.369  0.00  0.00    +0.171 C 
BRANCH   7   8
ATOM      8  O   UNL     1       9.595  -4.873  27.018  0.00  0.00    -0.387 OA
ATOM      9  H   UNL     1      10.113  -5.294  26.299  0.00  0.00    +0.210 HD
ENDBRANCH   7   8
BRANCH   7  10
ATOM     10  C   UNL     1       7.178  -4.977  27.087  0.00  0.00    +0.189 C 
BRANCH  10  11
ATOM     11  O   UNL     1       7.602  -6.136  27.814  0.00  0.00    -0.392 OA
ATOM     12  H   UNL     1       7.942  -6.768  27.156  0.00  0.00    +0.210 HD
ENDBRANCH  10  11
ENDBRANCH   7  10
ENDBRANCH   4   7
ENDBRANCH   1   4
BRANCH   1  13
ATOM     13  C   UNL     1       7.730  -3.578  22.680  0.00  0.00    +0.206 C 
BRANCH  13  14
ATOM     14  O   UNL     1       7.480  -4.949  22.428  0.00  0.00    -0.284 OA
BRANCH  14  15
ATOM     15  P   UNL     1       6.055  -5.343  21.829  0.00  0.00    +0.472 P 
ATOM     16  O   UNL     1       6.008  -5.649  20.379  0.00  0.00    -0.228 OA
BRANCH  15  17
ATOM     17  O   UNL     1       5.087  -4.165  22.286  0.00  0.00    -0.303 OA
ATOM     18  H   UNL     1       5.005  -3.482  21.591  0.00  0.00    +0.222 HD
ENDBRANCH  15  17
BRANCH  15  19
ATOM     19  O   UNL     1       5.594  -6.573  22.738  0.00  0.00    -0.303 OA
ATOM     20  H   UNL     1       6.198  -7.328  22.611  0.00  0.00    +0.222 HD
ENDBRANCH  15  19
ENDBRANCH  14  15
ENDBRANCH  13  14
ENDBRANCH   1  13
TORSDOF 12
ENDMDL
MODEL 3
REMARK VINA RESULT:      -4.6      1.366      1.715
REMARK  Name = 
REMARK  12 active torsions:
REMARK  status: ('A' for Active; 'I' for Inactive)
REMARK    1  A    between atoms: O_1  and  C_2
REMARK    2  A    between atoms: C_2  and  C_3
REMARK    3  A    between atoms: C_3  and  O_5
REMARK    4  A    between atoms: C_3  and  C_6
REMARK    5  A    between atoms: C_6  and  O_8
REMARK    6  A    between atoms: C_6  and  C_9
REMARK    7  A    between atoms: C_9  and  O_11
REMARK    8  A    between atoms: C_9  and  C_12
REMARK    9  A    between atoms: C_12  and  O_13
REMARK   10  A    between atoms: O_13  and  P_14
REMARK   11  A    between atoms: P_14  and  O_15
REMARK   12  A    between atoms: P_14  and  O_16
REMARK                            x       y       z     vdW  Elec       q    Type
REMARK                         _______ _______ _______ _____ _____    ______ ____
ROOT
ATOM      1  C   UNL     1       8.871  -2.331  22.906  0.00  0.00    +0.172 C 
ENDROOT
BRANCH   1   2
ATOM      2  O   UNL     1      10.260  -2.621  23.060  0.00  0.00    -0.387 OA
ATOM      3  H   UNL     1      10.508  -2.284  23.951  0.00  0.00    +0.210 HD
ENDBRANCH   1   2
BRANCH   1   4
ATOM      4  C   UNL     1       8.564  -0.834  23.188  0.00  0.00    +0.176 C 
BRANCH   4   5
ATOM      5  O   UNL     1       9.193  -0.377  24.396  0.00  0.00    -0.387 OA
ATOM      6  H   UNL     1      10.082  -0.060  24.179  0.00  0.00    +0.210 HD
ENDBRANCH   4   5
BRANCH   4   7
ATOM      7  C   UNL     1       9.026   0.053  22.014  0.00  0.00    +0.171 C 
BRANCH   7   8
ATOM      8  O   UNL     1       9.594  -0.749  20.959  0.00  0.00    -0.387 OA
ATOM      9  H   UNL     1       8.848  -0.909  20.342  0.00  0.00    +0.210 HD
ENDBRANCH   7   8
BRANCH   7  10
ATOM     10  C   UNL     1      10.057   1.102  22.448  0.00  0.00    +0.189 C 
BRANCH  10  11
ATOM     11  O   UNL     1      10.019   2.180  21.508  0.00  0.00    -0.392 OA
ATOM     12  H   UNL     1      10.803   2.731  21.685  0.00  0.00    +0.210 HD
ENDBRANCH  10  11
ENDBRANCH   7  10
ENDBRANCH   4   7
ENDBRANCH   1   4
BRANCH   1  13
ATOM     13  C   UNL     1       8.075  -3.278  23.805  0.00  0.00    +0.206 C 
BRANCH  13  14
ATOM     14  O   UNL     1       8.783  -3.463  25.017  0.00  0.00    -0.284 OA
BRANCH  14  15
ATOM     15  P   UNL     1       8.754  -4.915  25.677  0.00  0.00    +0.472 P 
ATOM     16  O   UNL     1       7.420  -5.545  25.832  0.00  0.00    -0.228 OA
BRANCH  15  17
ATOM     17  O   UNL     1       9.570  -4.757  27.035  0.00  0.00    -0.303 OA
ATOM     18  H   UNL     1       9.345  -3.921  27.490  0.00  0.00    +0.222 HD
ENDBRANCH  15  17
BRANCH  15  19
ATOM     19  O   UNL     1       9.739  -5.766  24.752  0.00  0.00    -0.303 OA
ATOM     20  H   UNL     1      10.560  -5.267  24.589  0.00  0.00    +0.222 HD
ENDBRANCH  15  19
ENDBRANCH  14  15
ENDBRANCH  13  14
ENDBRANCH   1  13
TORSDOF 12
ENDMDL
MODEL 4
REMARK VINA RESULT:      -4.6      2.641      5.559
REMARK  Name = 
REMARK  12 active torsions:
REMARK  status: ('A' for Active; 'I' for Inactive)
REMARK    1  A    between atoms: O_1  and  C_2
REMARK    2  A    between atoms: C_2  and  C_3
REMARK    3  A    between atoms: C_3  and  O_5
REMARK    4  A    between atoms: C_3  and  C_6
REMARK    5  A    between atoms: C_6  and  O_8
REMARK    6  A    between atoms: C_6  and  C_9
REMARK    7  A    between atoms: C_9  and  O_11
REMARK    8  A    between atoms: C_9  and  C_12
REMARK    9  A    between atoms: C_12  and  O_13
REMARK   10  A    between atoms: O_13  and  P_14
REMARK   11  A    between atoms: P_14  and  O_15
REMARK   12  A    between atoms: P_14  and  O_16
REMARK                            x       y       z     vdW  Elec       q    Type
REMARK                         _______ _______ _______ _____ _____    ______ ____
ROOT
ATOM      1  C   UNL     1      10.370  -1.150  22.522  0.00  0.00    +0.172 C 
ENDROOT
BRANCH   1   2
ATOM      2  O   UNL     1       9.822  -0.863  21.236  0.00  0.00    -0.387 OA
ATOM      3  H   UNL     1       9.386  -1.693  20.937  0.00  0.00    +0.210 HD
ENDBRANCH   1   2
BRANCH   1   4
ATOM      4  C   UNL     1       9.527  -2.211  23.281  0.00  0.00    +0.176 C 
BRANCH   4   5
ATOM      5  O   UNL     1       9.240  -1.805  24.628  0.00  0.00    -0.387 OA
ATOM      6  H   UNL     1       9.486  -0.874  24.728  0.00  0.00    +0.210 HD
ENDBRANCH   4   5
BRANCH   4   7
ATOM      7  C   UNL     1       8.199  -2.486  22.545  0.00  0.00    +0.171 C 
BRANCH   7   8
ATOM      8  O   UNL     1       7.288  -1.380  22.701  0.00  0.00    -0.387 OA
ATOM      9  H   UNL     1       7.802  -0.596  22.413  0.00  0.00    +0.210 HD
ENDBRANCH   7   8
BRANCH   7  10
ATOM     10  C   UNL     1       7.514  -3.766  23.043  0.00  0.00    +0.189 C 
BRANCH  10  11
ATOM     11  O   UNL     1       8.494  -4.563  23.716  0.00  0.00    -0.392 OA
ATOM     12  H   UNL     1       9.331  -4.439  23.234  0.00  0.00    +0.210 HD
ENDBRANCH  10  11
ENDBRANCH   7  10
ENDBRANCH   4   7
ENDBRANCH   1   4
BRANCH   1  13
ATOM     13  C   UNL     1      10.504   0.163  23.295  0.00  0.00    +0.206 C 
BRANCH  13  14
ATOM     14  O   UNL     1       9.221   0.747  23.435  0.00  0.00    -0.284 OA
BRANCH  14  15
ATOM     15  P   UNL     1       8.885   2.017  22.533  0.00  0.00    +0.472 P 
ATOM     16  O   UNL     1       8.525   3.264  23.251  0.00  0.00    -0.228 OA
BRANCH  15  17
ATOM     17  O   UNL     1       7.777   1.503  21.510  0.00  0.00    -0.303 OA
ATOM     18  H   UNL     1       6.885   1.533  21.908  0.00  0.00    +0.222 HD
ENDBRANCH  15  17
BRANCH  15  19
ATOM     19  O   UNL     1      10.184   2.182  21.618  0.00  0.00    -0.303 OA
ATOM     20  H   UNL     1      10.815   1.462  21.801  0.00  0.00    +0.222 HD
ENDBRANCH  15  19
ENDBRANCH  14  15
ENDBRANCH  13  14
ENDBRANCH   1  13
TORSDOF 12
ENDMDL
MODEL 5
REMARK VINA RESULT:      -4.5      2.181      3.410
REMARK  Name = 
REMARK  12 active torsions:
REMARK  status: ('A' for Active; 'I' for Inactive)
REMARK    1  A    between atoms: O_1  and  C_2
REMARK    2  A    between atoms: C_2  and  C_3
REMARK    3  A    between atoms: C_3  and  O_5
REMARK    4  A    between atoms: C_3  and  C_6
REMARK    5  A    between atoms: C_6  and  O_8
REMARK    6  A    between atoms: C_6  and  C_9
REMARK    7  A    between atoms: C_9  and  O_11
REMARK    8  A    between atoms: C_9  and  C_12
REMARK    9  A    between atoms: C_12  and  O_13
REMARK   10  A    between atoms: O_13  and  P_14
REMARK   11  A    between atoms: P_14  and  O_15
REMARK   12  A    between atoms: P_14  and  O_16
REMARK                            x       y       z     vdW  Elec       q    Type
REMARK                         _______ _______ _______ _____ _____    ______ ____
ROOT
ATOM      1  C   UNL     1       9.253   0.544  22.097  0.00  0.00    +0.172 C 
ENDROOT
BRANCH   1   2
ATOM      2  O   UNL     1       8.656   1.119  20.936  0.00  0.00    -0.387 OA
ATOM      3  H   UNL     1       8.388   0.362  20.367  0.00  0.00    +0.210 HD
ENDBRANCH   1   2
BRANCH   1   4
ATOM      4  C   UNL     1      10.406   1.429  22.646  0.00  0.00    +0.176 C 
BRANCH   4   5
ATOM      5  O   UNL     1      10.565   2.636  21.883  0.00  0.00    -0.387 OA
ATOM      6  H   UNL     1      10.719   2.396  20.958  0.00  0.00    +0.210 HD
ENDBRANCH   4   5
BRANCH   4   7
ATOM      7  C   UNL     1      10.160   1.797  24.124  0.00  0.00    +0.171 C 
BRANCH   7   8
ATOM      8  O   UNL     1      10.745   0.814  25.001  0.00  0.00    -0.387 OA
ATOM      9  H   UNL     1      11.406   0.350  24.444  0.00  0.00    +0.210 HD
ENDBRANCH   7   8
BRANCH   7  10
ATOM     10  C   UNL     1       8.666   1.924  24.450  0.00  0.00    +0.189 C 
BRANCH  10  11
ATOM     11  O   UNL     1       8.435   1.313  25.725  0.00  0.00    -0.392 OA
ATOM     12  H   UNL     1       8.861   1.886  26.388  0.00  0.00    +0.210 HD
ENDBRANCH  10  11
ENDBRANCH   7  10
ENDBRANCH   4   7
ENDBRANCH   1   4
BRANCH   1  13
ATOM     13  C   UNL     1       9.709  -0.876  21.755  0.00  0.00    +0.206 C 
BRANCH  13  14
ATOM     14  O   UNL     1      10.282  -1.465  22.908  0.00  0.00    -0.284 OA
BRANCH  14  15
ATOM     15  P   UNL     1       9.314  -2.274  23.883  0.00  0.00    +0.472 P 
ATOM     16  O   UNL     1       8.818  -1.547  25.077  0.00  0.00    -0.228 OA
BRANCH  15  17
ATOM     17  O   UNL     1      10.103  -3.618  24.211  0.00  0.00    -0.303 OA
ATOM     18  H   UNL     1      10.486  -3.595  25.110  0.00  0.00    +0.222 HD
ENDBRANCH  15  17
BRANCH  15  19
ATOM     19  O   UNL     1       8.136  -2.763  22.922  0.00  0.00    -0.303 OA
ATOM     20  H   UNL     1       7.406  -3.137  23.450  0.00  0.00    +0.222 HD
ENDBRANCH  15  19
ENDBRANCH  14  15
ENDBRANCH  13  14
ENDBRANCH   1  13
TORSDOF 12
ENDMDL
MODEL 6
REMARK VINA RESULT:      -4.5      2.623      3.864
REMARK  Name = 
REMARK  12 active torsions:
REMARK  status: ('A' for Active; 'I' for Inactive)
REMARK    1  A    between atoms: O_1  and  C_2
REMARK    2  A    between atoms: C_2  and  C_3
REMARK    3  A    between atoms: C_3  and  O_5
REMARK    4  A    between atoms: C_3  and  C_6
REMARK    5  A    between atoms: C_6  and  O_8
REMARK    6  A    between atoms: C_6  and  C_9
REMARK    7  A    between atoms: C_9  and  O_11
REMARK    8  A    between atoms: C_9  and  C_12
REMARK    9  A    between atoms: C_12  and  O_13
REMARK   10  A    between atoms: O_13  and  P_14
REMARK   11  A    between atoms: P_14  and  O_15
REMARK   12  A    between atoms: P_14  and  O_16
REMARK                            x       y       z     vdW  Elec       q    Type
REMARK                         _______ _______ _______ _____ _____    ______ ____
ROOT
ATOM      1  C   UNL     1      10.050   1.836  22.798  0.00  0.00    +0.172 C 
ENDROOT
BRANCH   1   2
ATOM      2  O   UNL     1      10.426   3.071  23.406  0.00  0.00    -0.387 OA
ATOM      3  H   UNL     1       9.598   3.452  23.778  0.00  0.00    +0.210 HD
ENDBRANCH   1   2
BRANCH   1   4
ATOM      4  C   UNL     1       8.876   2.024  21.798  0.00  0.00    +0.176 C 
BRANCH   4   5
ATOM      5  O   UNL     1       8.759   0.915  20.893  0.00  0.00    -0.387 OA
ATOM      6  H   UNL     1       7.971   0.406  21.130  0.00  0.00    +0.210 HD
ENDBRANCH   4   5
BRANCH   4   7
ATOM      7  C   UNL     1       7.539   2.205  22.547  0.00  0.00    +0.171 C 
BRANCH   7   8
ATOM      8  O   UNL     1       6.630   1.129  22.240  0.00  0.00    -0.387 OA
ATOM      9  H   UNL     1       6.040   1.074  23.021  0.00  0.00    +0.210 HD
ENDBRANCH   7   8
BRANCH   7  10
ATOM     10  C   UNL     1       6.860   3.538  22.210  0.00  0.00    +0.189 C 
BRANCH  10  11
ATOM     11  O   UNL     1       7.867   4.555  22.178  0.00  0.00    -0.392 OA
ATOM     12  H   UNL     1       7.399   5.410  22.202  0.00  0.00    +0.210 HD
ENDBRANCH  10  11
ENDBRANCH   7  10
ENDBRANCH   4   7
ENDBRANCH   1   4
BRANCH   1  13
ATOM     13  C   UNL     1       9.730   0.829  23.904  0.00  0.00    +0.206 C 
BRANCH  13  14
ATOM     14  O   UNL     1      10.546  -0.316  23.732  0.00  0.00    -0.284 OA
BRANCH  14  15
ATOM     15  P   UNL     1       9.873  -1.615  23.100  0.00  0.00    +0.472 P 
ATOM     16  O   UNL     1      10.154  -2.904  23.777  0.00  0.00    -0.228 OA
BRANCH  15  17
ATOM     17  O   UNL     1      10.286  -1.575  21.562  0.00  0.00    -0.303 OA
ATOM     18  H   UNL     1       9.502  -1.474  20.987  0.00  0.00    +0.222 HD
ENDBRANCH  15  17
BRANCH  15  19
ATOM     19  O   UNL     1       8.317  -1.256  23.073  0.00  0.00    -0.303 OA
ATOM     20  H   UNL     1       7.784  -2.063  23.204  0.00  0.00    +0.222 HD
ENDBRANCH  15  19
ENDBRANCH  14  15
ENDBRANCH  13  14
ENDBRANCH   1  13
TORSDOF 12
ENDMDL
MODEL 7
REMARK VINA RESULT:      -4.5      2.623      5.264
REMARK  Name = 
REMARK  12 active torsions:
REMARK  status: ('A' for Active; 'I' for Inactive)
REMARK    1  A    between atoms: O_1  and  C_2
REMARK    2  A    between atoms: C_2  and  C_3
REMARK    3  A    between atoms: C_3  and  O_5
REMARK    4  A    between atoms: C_3  and  C_6
REMARK    5  A    between atoms: C_6  and  O_8
REMARK    6  A    between atoms: C_6  and  C_9
REMARK    7  A    between atoms: C_9  and  O_11
REMARK    8  A    between atoms: C_9  and  C_12
REMARK    9  A    between atoms: C_12  and  O_13
REMARK   10  A    between atoms: O_13  and  P_14
REMARK   11  A    between atoms: P_14  and  O_15
REMARK   12  A    between atoms: P_14  and  O_16
REMARK                            x       y       z     vdW  Elec       q    Type
REMARK                         _______ _______ _______ _____ _____    ______ ____
ROOT
ATOM      1  C   UNL     1       6.643  -3.778  23.187  0.00  0.00    +0.172 C 
ENDROOT
BRANCH   1   2
ATOM      2  O   UNL     1       5.813  -2.797  23.807  0.00  0.00    -0.387 OA
ATOM      3  H   UNL     1       6.399  -2.292  24.414  0.00  0.00    +0.210 HD
ENDBRANCH   1   2
BRANCH   1   4
ATOM      4  C   UNL     1       7.199  -4.795  24.222  0.00  0.00    +0.176 C 
BRANCH   4   5
ATOM      5  O   UNL     1       8.571  -5.129  23.961  0.00  0.00    -0.387 OA
ATOM      6  H   UNL     1       8.631  -6.084  23.810  0.00  0.00    +0.210 HD
ENDBRANCH   4   5
BRANCH   4   7
ATOM      7  C   UNL     1       7.080  -4.239  25.656  0.00  0.00    +0.171 C 
BRANCH   7   8
ATOM      8  O   UNL     1       8.130  -3.289  25.926  0.00  0.00    -0.387 OA
ATOM      9  H   UNL     1       7.884  -2.889  26.787  0.00  0.00    +0.210 HD
ENDBRANCH   7   8
BRANCH   7  10
ATOM     10  C   UNL     1       7.133  -5.349  26.714  0.00  0.00    +0.189 C 
BRANCH  10  11
ATOM     11  O   UNL     1       8.454  -5.900  26.716  0.00  0.00    -0.392 OA
ATOM     12  H   UNL     1       8.602  -6.267  25.826  0.00  0.00    +0.210 HD
ENDBRANCH  10  11
ENDBRANCH   7  10
ENDBRANCH   4   7
ENDBRANCH   1   4
BRANCH   1  13
ATOM     13  C   UNL     1       7.748  -3.058  22.412  0.00  0.00    +0.206 C 
BRANCH  13  14
ATOM     14  O   UNL     1       8.194  -1.950  23.172  0.00  0.00    -0.284 OA
BRANCH  14  15
ATOM     15  P   UNL     1       9.765  -1.695  23.256  0.00  0.00    +0.472 P 
ATOM     16  O   UNL     1      10.205  -0.518  24.044  0.00  0.00    -0.228 OA
BRANCH  15  17
ATOM     17  O   UNL     1      10.255  -1.693  21.740  0.00  0.00    -0.303 OA
ATOM     18  H   UNL     1       9.560  -1.353  21.143  0.00  0.00    +0.222 HD
ENDBRANCH  15  17
BRANCH  15  19
ATOM     19  O   UNL     1      10.338  -3.073  23.827  0.00  0.00    -0.303 OA
ATOM     20  H   UNL     1      10.539  -2.983  24.777  0.00  0.00    +0.222 HD
ENDBRANCH  15  19
ENDBRANCH  14  15
ENDBRANCH  13  14
ENDBRANCH   1  13
TORSDOF 12
ENDMDL
MODEL 8
REMARK VINA RESULT:      -4.5      2.798      4.432
REMARK  Name = 
REMARK  12 active torsions:
REMARK  status: ('A' for Active; 'I' for Inactive)
REMARK    1  A    between atoms: O_1  and  C_2
REMARK    2  A    between atoms: C_2  and  C_3
REMARK    3  A    between atoms: C_3  and  O_5
REMARK    4  A    between atoms: C_3  and  C_6
REMARK    5  A    between atoms: C_6  and  O_8
REMARK    6  A    between atoms: C_6  and  C_9
REMARK    7  A    between atoms: C_9  and  O_11
REMARK    8  A    between atoms: C_9  and  C_12
REMARK    9  A    between atoms: C_12  and  O_13
REMARK   10  A    between atoms: O_13  and  P_14
REMARK   11  A    between atoms: P_14  and  O_15
REMARK   12  A    between atoms: P_14  and  O_16
REMARK                            x       y       z     vdW  Elec       q    Type
REMARK                         _______ _______ _______ _____ _____    ______ ____
ROOT
ATOM      1  C   UNL     1       8.817   2.027  21.939  0.00  0.00    +0.172 C 
ENDROOT
BRANCH   1   2
ATOM      2  O   UNL     1      10.202   2.251  21.677  0.00  0.00    -0.387 OA
ATOM      3  H   UNL     1      10.235   2.933  20.968  0.00  0.00    +0.210 HD
ENDBRANCH   1   2
BRANCH   1   4
ATOM      4  C   UNL     1       8.424   2.484  23.371  0.00  0.00    +0.176 C 
BRANCH   4   5
ATOM      5  O   UNL     1       9.471   2.230  24.321  0.00  0.00    -0.387 OA
ATOM      6  H   UNL     1       9.692   3.062  24.764  0.00  0.00    +0.210 HD
ENDBRANCH   4   5
BRANCH   4   7
ATOM      7  C   UNL     1       8.078   3.987  23.392  0.00  0.00    +0.171 C 
BRANCH   7   8
ATOM      8  O   UNL     1       7.925   4.497  22.053  0.00  0.00    -0.387 OA
ATOM      9  H   UNL     1       7.114   5.048  22.090  0.00  0.00    +0.210 HD
ENDBRANCH   7   8
BRANCH   7  10
ATOM     10  C   UNL     1       9.143   4.818  24.120  0.00  0.00    +0.189 C 
BRANCH  10  11
ATOM     11  O   UNL     1      10.334   4.807  23.325  0.00  0.00    -0.392 OA
ATOM     12  H   UNL     1      10.256   5.548  22.697  0.00  0.00    +0.210 HD
ENDBRANCH  10  11
ENDBRANCH   7  10
ENDBRANCH   4   7
ENDBRANCH   1   4
BRANCH   1  13
ATOM     13  C   UNL     1       8.509   0.551  21.683  0.00  0.00    +0.206 C 
BRANCH  13  14
ATOM     14  O   UNL     1       8.598  -0.156  22.907  0.00  0.00    -0.284 OA
BRANCH  14  15
ATOM     15  P   UNL     1       9.855  -1.114  23.118  0.00  0.00    +0.472 P 
ATOM     16  O   UNL     1       9.650  -2.293  23.994  0.00  0.00    -0.228 OA
BRANCH  15  17
ATOM     17  O   UNL     1      11.028  -0.143  23.583  0.00  0.00    -0.303 OA
ATOM     18  H   UNL     1      10.805   0.307  24.422  0.00  0.00    +0.222 HD
ENDBRANCH  15  17
BRANCH  15  19
ATOM     19  O   UNL     1      10.275  -1.514  21.629  0.00  0.00    -0.303 OA
ATOM     20  H   UNL     1      10.092  -2.459  21.472  0.00  0.00    +0.222 HD
ENDBRANCH  15  19
ENDBRANCH  14  15
ENDBRANCH  13  14
ENDBRANCH   1  13
TORSDOF 12
ENDMDL
MODEL 9
REMARK VINA RESULT:      -4.5      3.000      5.509
REMARK  Name = 
REMARK  12 active torsions:
REMARK  status: ('A' for Active; 'I' for Inactive)
REMARK    1  A    between atoms: O_1  and  C_2
REMARK    2  A    between atoms: C_2  and  C_3
REMARK    3  A    between atoms: C_3  and  O_5
REMARK    4  A    between atoms: C_3  and  C_6
REMARK    5  A    between atoms: C_6  and  O_8
REMARK    6  A    between atoms: C_6  and  C_9
REMARK    7  A    between atoms: C_9  and  O_11
REMARK    8  A    between atoms: C_9  and  C_12
REMARK    9  A    between atoms: C_12  and  O_13
REMARK   10  A    between atoms: O_13  and  P_14
REMARK   11  A    between atoms: P_14  and  O_15
REMARK   12  A    between atoms: P_14  and  O_16
REMARK                            x       y       z     vdW  Elec       q    Type
REMARK                         _______ _______ _______ _____ _____    ______ ____
ROOT
ATOM      1  C   UNL     1       9.433  -0.834  24.405  0.00  0.00    +0.172 C 
ENDROOT
BRANCH   1   2
ATOM      2  O   UNL     1       8.952  -1.476  25.586  0.00  0.00    -0.387 OA
ATOM      3  H   UNL     1       9.623  -2.159  25.813  0.00  0.00    +0.210 HD
ENDBRANCH   1   2
BRANCH   1   4
ATOM      4  C   UNL     1      10.116  -1.843  23.442  0.00  0.00    +0.176 C 
BRANCH   4   5
ATOM      5  O   UNL     1      10.155  -3.169  23.994  0.00  0.00    -0.387 OA
ATOM      6  H   UNL     1      11.049  -3.337  24.327  0.00  0.00    +0.210 HD
ENDBRANCH   4   5
BRANCH   4   7
ATOM      7  C   UNL     1       9.388  -1.886  22.083  0.00  0.00    +0.171 C 
BRANCH   7   8
ATOM      8  O   UNL     1       9.715  -0.727  21.290  0.00  0.00    -0.387 OA
ATOM      9  H   UNL     1      10.549  -0.389  21.681  0.00  0.00    +0.210 HD
ENDBRANCH   7   8
BRANCH   7  10
ATOM     10  C   UNL     1       7.864  -1.963  22.243  0.00  0.00    +0.189 C 
BRANCH  10  11
ATOM     11  O   UNL     1       7.517  -3.316  22.553  0.00  0.00    -0.392 OA
ATOM     12  H   UNL     1       7.727  -3.448  23.495  0.00  0.00    +0.210 HD
ENDBRANCH  10  11
ENDBRANCH   7  10
ENDBRANCH   4   7
ENDBRANCH   1   4
BRANCH   1  13
ATOM     13  C   UNL     1      10.359   0.310  24.819  0.00  0.00    +0.206 C 
BRANCH  13  14
ATOM     14  O   UNL     1      10.844   0.953  23.654  0.00  0.00    -0.284 OA
BRANCH  14  15
ATOM     15  P   UNL     1      10.132   2.307  23.205  0.00  0.00    +0.472 P 
ATOM     16  O   UNL     1       8.860   2.644  23.888  0.00  0.00    -0.228 OA
BRANCH  15  17
ATOM     17  O   UNL     1      10.021   2.197  21.620  0.00  0.00    -0.303 OA
ATOM     18  H   UNL     1      10.756   2.667  21.179  0.00  0.00    +0.222 HD
ENDBRANCH  15  17
BRANCH  15  19
ATOM     19  O   UNL     1      11.264   3.414  23.420  0.00  0.00    -0.303 OA
ATOM     20  H   UNL     1      12.121   3.084  23.093  0.00  0.00    +0.222 HD
ENDBRANCH  15  19
ENDBRANCH  14  15
ENDBRANCH  13  14
ENDBRANCH   1  13
TORSDOF 12
ENDMDL
