MODEL 1
REMARK VINA RESULT:      -8.1      0.000      0.000
REMARK  Name = 
REMARK  9 active torsions:
REMARK  status: ('A' for Active; 'I' for Inactive)
REMARK    1  A    between atoms: C_1  and  C_2
REMARK    2  A    between atoms: C_2  and  O_3
REMARK    3  A    between atoms: C_2  and  C_4
REMARK    4  A    between atoms: C_2  and  C_17
REMARK    5  A    between atoms: C_4  and  O_5
REMARK    6  A    between atoms: O_5  and  C_6
REMARK    7  A    between atoms: N_19  and  C_20
REMARK    8  A    between atoms: C_23  and  N_30
REMARK    9  A    between atoms: C_24  and  C_26
REMARK                            x       y       z     vdW  Elec       q    Type
REMARK                         _______ _______ _______ _____ _____    ______ ____
ROOT
ATOM      1  C   UNL     1       8.598  -1.498  22.276  0.00  0.00    +0.055 C 
ATOM      2  C   UNL     1       9.711  -1.553  23.326  0.00  0.00    +0.173 C 
ENDROOT
BRANCH   2   3
ATOM      3  C   UNL     1       9.963  -0.147  23.919  0.00  0.00    +0.252 C 
ATOM      4  N   UNL     1       9.530   0.889  23.105  0.00  0.00    -0.283 N 
ATOM      5  H   UNL     1       9.507   0.682  22.111  0.00  0.00    +0.155 HD
ATOM      6  O   UNL     1      10.565   0.026  24.976  0.00  0.00    -0.272 OA
BRANCH   4   7
ATOM      7  C   UNL     1       9.555   2.227  23.530  0.00  0.00    +0.034 A 
ATOM      8  C   UNL     1      10.689   3.002  23.277  0.00  0.00    +0.042 A 
ATOM      9  C   UNL     1      10.768   4.340  23.720  0.00  0.00    +0.133 A 
ATOM     10  C   UNL     1       9.645   4.880  24.361  0.00  0.00    +0.285 A 
ATOM     11  C   UNL     1       8.490   4.125  24.593  0.00  0.00    +0.087 A 
ATOM     12  C   UNL     1       8.458   2.793  24.190  0.00  0.00    +0.030 A 
BRANCH   9  13
ATOM     13  C   UNL     1      12.058   5.081  23.495  0.00  0.00    +0.424 C 
ATOM     14  F   UNL     1      12.002   5.840  22.363  0.00  0.00    -0.166 F 
ATOM     15  F   UNL     1      13.102   4.228  23.308  0.00  0.00    -0.166 F 
ATOM     16  F   UNL     1      12.431   5.931  24.480  0.00  0.00    -0.166 F 
ENDBRANCH   9  13
BRANCH  10  17
ATOM     17  N   UNL     1       9.618   6.257  24.811  0.00  0.00    +0.080 N 
ATOM     18  O   UNL     1       9.866   6.461  26.004  0.00  0.00    +0.041 OA
ATOM     19  O   UNL     1       9.313   7.108  23.966  0.00  0.00    -0.576 OA
ENDBRANCH  10  17
ENDBRANCH   4   7
ENDBRANCH   2   3
BRANCH   2  20
ATOM     20  O   UNL     1      10.908  -1.982  22.656  0.00  0.00    -0.376 OA
ATOM     21  H   UNL     1      10.736  -1.959  21.697  0.00  0.00    +0.211 HD
ENDBRANCH   2  20
BRANCH   2  22
ATOM     22  C   UNL     1       9.331  -2.531  24.462  0.00  0.00    +0.273 C 
BRANCH  22  23
ATOM     23  O   UNL     1       9.343  -3.874  23.959  0.00  0.00    -0.483 OA
BRANCH  23  24
ATOM     24  C   UNL     1       8.203  -4.605  24.149  0.00  0.00    +0.197 A 
ATOM     25  C   UNL     1       7.288  -4.892  23.139  0.00  0.00    +0.206 A 
ATOM     26  F   UNL     1       7.530  -4.532  21.871  0.00  0.00    -0.198 F 
ATOM     27  C   UNL     1       6.078  -5.515  23.438  0.00  0.00    +0.200 A 
ATOM     28  F   UNL     1       5.195  -5.753  22.459  0.00  0.00    -0.199 F 
ATOM     29  C   UNL     1       5.770  -5.866  24.748  0.00  0.00    +0.199 A 
ATOM     30  F   UNL     1       4.595  -6.443  25.028  0.00  0.00    -0.199 F 
ATOM     31  C   UNL     1       6.681  -5.601  25.763  0.00  0.00    +0.200 A 
ATOM     32  F   UNL     1       6.387  -5.934  27.027  0.00  0.00    -0.199 F 
ATOM     33  C   UNL     1       7.885  -4.967  25.465  0.00  0.00    +0.206 A 
ATOM     34  F   UNL     1       8.740  -4.701  26.462  0.00  0.00    -0.198 F 
ENDBRANCH  23  24
ENDBRANCH  22  23
ENDBRANCH   2  22
TORSDOF 8
ENDMDL
MODEL 2
REMARK VINA RESULT:      -8.0      0.184      1.887
REMARK  Name = 
REMARK  9 active torsions:
REMARK  status: ('A' for Active; 'I' for Inactive)
REMARK    1  A    between atoms: C_1  and  C_2
REMARK    2  A    between atoms: C_2  and  O_3
REMARK    3  A    between atoms: C_2  and  C_4
REMARK    4  A    between atoms: C_2  and  C_17
REMARK    5  A    between atoms: C_4  and  O_5
REMARK    6  A    between atoms: O_5  and  C_6
REMARK    7  A    between atoms: N_19  and  C_20
REMARK    8  A    between atoms: C_23  and  N_30
REMARK    9  A    between atoms: C_24  and  C_26
REMARK                            x       y       z     vdW  Elec       q    Type
REMARK                         _______ _______ _______ _____ _____    ______ ____
ROOT
ATOM      1  C   UNL     1       8.592  -1.562  22.239  0.00  0.00    +0.055 C 
ATOM      2  C   UNL     1       9.707  -1.579  23.287  0.00  0.00    +0.173 C 
ENDROOT
BRANCH   2   3
ATOM      3  C   UNL     1       9.868  -0.181  23.925  0.00  0.00    +0.252 C 
ATOM      4  N   UNL     1       9.678   0.866  23.036  0.00  0.00    -0.283 N 
ATOM      5  H   UNL     1       9.880   0.653  22.063  0.00  0.00    +0.155 HD
ATOM      6  O   UNL     1      10.213  -0.024  25.094  0.00  0.00    -0.272 OA
BRANCH   4   7
ATOM      7  C   UNL     1       9.655   2.205  23.458  0.00  0.00    +0.034 A 
ATOM      8  C   UNL     1      10.783   3.003  23.255  0.00  0.00    +0.042 A 
ATOM      9  C   UNL     1      10.813   4.344  23.698  0.00  0.00    +0.133 A 
ATOM     10  C   UNL     1       9.650   4.861  24.286  0.00  0.00    +0.285 A 
ATOM     11  C   UNL     1       8.502   4.082  24.466  0.00  0.00    +0.087 A 
ATOM     12  C   UNL     1       8.516   2.748  24.065  0.00  0.00    +0.030 A 
BRANCH   9  13
ATOM     13  C   UNL     1      12.095   5.111  23.531  0.00  0.00    +0.424 C 
ATOM     14  F   UNL     1      12.028   5.964  22.469  0.00  0.00    -0.166 F 
ATOM     15  F   UNL     1      13.145   4.286  23.267  0.00  0.00    -0.166 F 
ATOM     16  F   UNL     1      12.467   5.877  24.584  0.00  0.00    -0.166 F 
ENDBRANCH   9  13
BRANCH  10  17
ATOM     17  N   UNL     1       9.574   6.238  24.730  0.00  0.00    +0.080 N 
ATOM     18  O   UNL     1       9.773   6.450  25.931  0.00  0.00    +0.041 OA
ATOM     19  O   UNL     1       9.278   7.079  23.873  0.00  0.00    -0.576 OA
ENDBRANCH  10  17
ENDBRANCH   4   7
ENDBRANCH   2   3
BRANCH   2  20
ATOM     20  O   UNL     1      10.929  -1.908  22.604  0.00  0.00    -0.376 OA
ATOM     21  H   UNL     1      11.492  -2.405  23.225  0.00  0.00    +0.211 HD
ENDBRANCH   2  20
BRANCH   2  22
ATOM     22  C   UNL     1       9.393  -2.617  24.390  0.00  0.00    +0.273 C 
BRANCH  22  23
ATOM     23  O   UNL     1       9.106  -3.885  23.784  0.00  0.00    -0.483 OA
BRANCH  23  24
ATOM     24  C   UNL     1       7.936  -4.486  24.156  0.00  0.00    +0.197 A 
ATOM     25  C   UNL     1       7.634  -4.854  25.466  0.00  0.00    +0.206 A 
ATOM     26  F   UNL     1       8.462  -4.546  26.474  0.00  0.00    -0.198 F 
ATOM     27  C   UNL     1       6.488  -5.596  25.744  0.00  0.00    +0.200 A 
ATOM     28  F   UNL     1       6.231  -5.969  27.005  0.00  0.00    -0.199 F 
ATOM     29  C   UNL     1       5.625  -5.973  24.721  0.00  0.00    +0.199 A 
ATOM     30  F   UNL     1       4.539  -6.705  24.997  0.00  0.00    -0.199 F 
ATOM     31  C   UNL     1       5.905  -5.599  23.412  0.00  0.00    +0.200 A 
ATOM     32  F   UNL     1       5.079  -5.964  22.424  0.00  0.00    -0.199 F 
ATOM     33  C   UNL     1       7.058  -4.869  23.133  0.00  0.00    +0.206 A 
ATOM     34  F   UNL     1       7.321  -4.536  21.861  0.00  0.00    -0.198 F 
ENDBRANCH  23  24
ENDBRANCH  22  23
ENDBRANCH   2  22
TORSDOF 8
ENDMDL
MODEL 3
REMARK VINA RESULT:      -7.8      1.636      1.985
REMARK  Name = 
REMARK  9 active torsions:
REMARK  status: ('A' for Active; 'I' for Inactive)
REMARK    1  A    between atoms: C_1  and  C_2
REMARK    2  A    between atoms: C_2  and  O_3
REMARK    3  A    between atoms: C_2  and  C_4
REMARK    4  A    between atoms: C_2  and  C_17
REMARK    5  A    between atoms: C_4  and  O_5
REMARK    6  A    between atoms: O_5  and  C_6
REMARK    7  A    between atoms: N_19  and  C_20
REMARK    8  A    between atoms: C_23  and  N_30
REMARK    9  A    between atoms: C_24  and  C_26
REMARK                            x       y       z     vdW  Elec       q    Type
REMARK                         _______ _______ _______ _____ _____    ______ ____
ROOT
ATOM      1  C   UNL     1       8.590  -1.809  22.052  0.00  0.00    +0.055 C 
ATOM      2  C   UNL     1       9.803  -1.689  22.979  0.00  0.00    +0.173 C 
ENDROOT
BRANCH   2   3
ATOM      3  C   UNL     1       9.811  -0.312  23.680  0.00  0.00    +0.252 C 
ATOM      4  N   UNL     1       9.935   0.759  22.809  0.00  0.00    -0.283 N 
ATOM      5  H   UNL     1      10.415   0.558  21.936  0.00  0.00    +0.155 HD
ATOM      6  O   UNL     1       9.790  -0.193  24.903  0.00  0.00    -0.272 OA
BRANCH   4   7
ATOM      7  C   UNL     1       9.831   2.090  23.247  0.00  0.00    +0.034 A 
ATOM      8  C   UNL     1      10.933   2.938  23.118  0.00  0.00    +0.042 A 
ATOM      9  C   UNL     1      10.881   4.271  23.580  0.00  0.00    +0.133 A 
ATOM     10  C   UNL     1       9.667   4.729  24.109  0.00  0.00    +0.285 A 
ATOM     11  C   UNL     1       8.545   3.900  24.214  0.00  0.00    +0.087 A 
ATOM     12  C   UNL     1       8.639   2.575  23.797  0.00  0.00    +0.030 A 
BRANCH   9  13
ATOM     13  C   UNL     1      12.137   5.095  23.495  0.00  0.00    +0.424 C 
ATOM     14  F   UNL     1      12.339   5.810  24.638  0.00  0.00    -0.166 F 
ATOM     15  F   UNL     1      12.067   6.018  22.497  0.00  0.00    -0.166 F 
ATOM     16  F   UNL     1      13.284   4.404  23.295  0.00  0.00    -0.166 F 
ENDBRANCH   9  13
BRANCH  10  17
ATOM     17  N   UNL     1       9.507   6.095  24.567  0.00  0.00    +0.080 N 
ATOM     18  O   UNL     1       9.565   6.286  25.786  0.00  0.00    +0.041 OA
ATOM     19  O   UNL     1       9.289   6.947  23.697  0.00  0.00    -0.576 OA
ENDBRANCH  10  17
ENDBRANCH   4   7
ENDBRANCH   2   3
BRANCH   2  20
ATOM     20  O   UNL     1      10.978  -1.785  22.157  0.00  0.00    -0.376 OA
ATOM     21  H   UNL     1      11.430  -0.922  22.184  0.00  0.00    +0.211 HD
ENDBRANCH   2  20
BRANCH   2  22
ATOM     22  C   UNL     1       9.778  -2.810  24.044  0.00  0.00    +0.273 C 
BRANCH  22  23
ATOM     23  O   UNL     1       8.621  -3.633  23.844  0.00  0.00    -0.483 OA
BRANCH  23  24
ATOM     24  C   UNL     1       7.791  -3.789  24.920  0.00  0.00    +0.197 A 
ATOM     25  C   UNL     1       6.796  -2.879  25.271  0.00  0.00    +0.206 A 
ATOM     26  F   UNL     1       6.531  -1.818  24.496  0.00  0.00    -0.198 F 
ATOM     27  C   UNL     1       6.090  -3.030  26.463  0.00  0.00    +0.200 A 
ATOM     28  F   UNL     1       5.159  -2.127  26.800  0.00  0.00    -0.199 F 
ATOM     29  C   UNL     1       6.364  -4.094  27.315  0.00  0.00    +0.199 A 
ATOM     30  F   UNL     1       5.695  -4.217  28.469  0.00  0.00    -0.199 F 
ATOM     31  C   UNL     1       7.342  -5.018  26.969  0.00  0.00    +0.200 A 
ATOM     32  F   UNL     1       7.611  -6.042  27.790  0.00  0.00    -0.199 F 
ATOM     33  C   UNL     1       8.056  -4.859  25.784  0.00  0.00    +0.206 A 
ATOM     34  F   UNL     1       9.011  -5.750  25.480  0.00  0.00    -0.198 F 
ENDBRANCH  23  24
ENDBRANCH  22  23
ENDBRANCH   2  22
TORSDOF 8
ENDMDL
MODEL 4
REMARK VINA RESULT:      -7.7      4.528      9.715
REMARK  Name = 
REMARK  9 active torsions:
REMARK  status: ('A' for Active; 'I' for Inactive)
REMARK    1  A    between atoms: C_1  and  C_2
REMARK    2  A    between atoms: C_2  and  O_3
REMARK    3  A    between atoms: C_2  and  C_4
REMARK    4  A    between atoms: C_2  and  C_17
REMARK    5  A    between atoms: C_4  and  O_5
REMARK    6  A    between atoms: O_5  and  C_6
REMARK    7  A    between atoms: N_19  and  C_20
REMARK    8  A    between atoms: C_23  and  N_30
REMARK    9  A    between atoms: C_24  and  C_26
REMARK                            x       y       z     vdW  Elec       q    Type
REMARK                         _______ _______ _______ _____ _____    ______ ____
ROOT
ATOM      1  C   UNL     1       7.325  -5.266  21.729  0.00  0.00    +0.055 C 
ATOM      2  C   UNL     1       6.584  -3.991  22.139  0.00  0.00    +0.173 C 
ENDROOT
BRANCH   2   3
ATOM      3  C   UNL     1       6.317  -3.990  23.662  0.00  0.00    +0.252 C 
ATOM      4  N   UNL     1       6.315  -5.255  24.230  0.00  0.00    -0.283 N 
ATOM      5  H   UNL     1       6.061  -6.014  23.605  0.00  0.00    +0.155 HD
ATOM      6  O   UNL     1       6.052  -2.965  24.286  0.00  0.00    -0.272 OA
BRANCH   4   7
ATOM      7  C   UNL     1       6.219  -5.445  25.619  0.00  0.00    +0.034 A 
ATOM      8  C   UNL     1       4.994  -5.824  26.172  0.00  0.00    +0.042 A 
ATOM      9  C   UNL     1       4.848  -5.990  27.567  0.00  0.00    +0.133 A 
ATOM     10  C   UNL     1       5.989  -5.826  28.365  0.00  0.00    +0.285 A 
ATOM     11  C   UNL     1       7.230  -5.478  27.820  0.00  0.00    +0.087 A 
ATOM     12  C   UNL     1       7.335  -5.272  26.447  0.00  0.00    +0.030 A 
BRANCH   9  13
ATOM     13  C   UNL     1       3.476  -6.305  28.098  0.00  0.00    +0.424 C 
ATOM     14  F   UNL     1       2.570  -6.431  27.086  0.00  0.00    -0.166 F 
ATOM     15  F   UNL     1       3.000  -5.304  28.888  0.00  0.00    -0.166 F 
ATOM     16  F   UNL     1       3.370  -7.444  28.821  0.00  0.00    -0.166 F 
ENDBRANCH   9  13
BRANCH  10  17
ATOM     17  N   UNL     1       5.943  -6.019  29.800  0.00  0.00    +0.080 N 
ATOM     18  O   UNL     1       6.126  -7.168  30.216  0.00  0.00    +0.041 OA
ATOM     19  O   UNL     1       5.688  -5.020  30.484  0.00  0.00    -0.576 OA
ENDBRANCH  10  17
ENDBRANCH   4   7
ENDBRANCH   2   3
BRANCH   2  20
ATOM     20  O   UNL     1       5.318  -3.996  21.459  0.00  0.00    -0.376 OA
ATOM     21  H   UNL     1       5.496  -3.998  20.500  0.00  0.00    +0.211 HD
ENDBRANCH   2  20
BRANCH   2  22
ATOM     22  C   UNL     1       7.413  -2.742  21.760  0.00  0.00    +0.273 C 
BRANCH  22  23
ATOM     23  O   UNL     1       8.735  -2.864  22.302  0.00  0.00    -0.483 OA
BRANCH  23  24
ATOM     24  C   UNL     1       9.259  -1.745  22.888  0.00  0.00    +0.197 A 
ATOM     25  C   UNL     1       9.387  -1.578  24.266  0.00  0.00    +0.206 A 
ATOM     26  F   UNL     1       9.078  -2.572  25.110  0.00  0.00    -0.198 F 
ATOM     27  C   UNL     1       9.792  -0.353  24.793  0.00  0.00    +0.200 A 
ATOM     28  F   UNL     1       9.878  -0.200  26.122  0.00  0.00    -0.199 F 
ATOM     29  C   UNL     1      10.081   0.716  23.953  0.00  0.00    +0.199 A 
ATOM     30  F   UNL     1      10.447   1.895  24.472  0.00  0.00    -0.199 F 
ATOM     31  C   UNL     1       9.975   0.558  22.577  0.00  0.00    +0.200 A 
ATOM     32  F   UNL     1      10.248   1.587  21.764  0.00  0.00    -0.199 F 
ATOM     33  C   UNL     1       9.557  -0.662  22.050  0.00  0.00    +0.206 A 
ATOM     34  F   UNL     1       9.439  -0.787  20.721  0.00  0.00    -0.198 F 
ENDBRANCH  23  24
ENDBRANCH  22  23
ENDBRANCH   2  22
TORSDOF 8
ENDMDL
MODEL 5
REMARK VINA RESULT:      -7.6      3.546      7.866
REMARK  Name = 
REMARK  9 active torsions:
REMARK  status: ('A' for Active; 'I' for Inactive)
REMARK    1  A    between atoms: C_1  and  C_2
REMARK    2  A    between atoms: C_2  and  O_3
REMARK    3  A    between atoms: C_2  and  C_4
REMARK    4  A    between atoms: C_2  and  C_17
REMARK    5  A    between atoms: C_4  and  O_5
REMARK    6  A    between atoms: O_5  and  C_6
REMARK    7  A    between atoms: N_19  and  C_20
REMARK    8  A    between atoms: C_23  and  N_30
REMARK    9  A    between atoms: C_24  and  C_26
REMARK                            x       y       z     vdW  Elec       q    Type
REMARK                         _______ _______ _______ _____ _____    ______ ____
ROOT
ATOM      1  C   UNL     1       4.009   3.229  23.990  0.00  0.00    +0.055 C 
ATOM      2  C   UNL     1       5.529   3.100  24.121  0.00  0.00    +0.173 C 
ENDROOT
BRANCH   2   3
ATOM      3  C   UNL     1       5.895   1.824  24.913  0.00  0.00    +0.252 C 
ATOM      4  N   UNL     1       5.662   0.648  24.217  0.00  0.00    -0.283 N 
ATOM      5  H   UNL     1       4.933   0.695  23.512  0.00  0.00    +0.155 HD
ATOM      6  O   UNL     1       6.278   1.858  26.080  0.00  0.00    -0.272 OA
BRANCH   4   7
ATOM      7  C   UNL     1       6.054  -0.604  24.721  0.00  0.00    +0.034 A 
ATOM      8  C   UNL     1       7.086  -1.300  24.089  0.00  0.00    +0.042 A 
ATOM      9  C   UNL     1       7.485  -2.577  24.543  0.00  0.00    +0.133 A 
ATOM     10  C   UNL     1       6.855  -3.086  25.687  0.00  0.00    +0.285 A 
ATOM     11  C   UNL     1       5.842  -2.384  26.349  0.00  0.00    +0.087 A 
ATOM     12  C   UNL     1       5.434  -1.150  25.851  0.00  0.00    +0.030 A 
BRANCH   9  13
ATOM     13  C   UNL     1       8.537  -3.307  23.754  0.00  0.00    +0.424 C 
ATOM     14  F   UNL     1       8.136  -4.574  23.448  0.00  0.00    -0.166 F 
ATOM     15  F   UNL     1       9.689  -3.452  24.464  0.00  0.00    -0.166 F 
ATOM     16  F   UNL     1       8.886  -2.745  22.573  0.00  0.00    -0.166 F 
ENDBRANCH   9  13
BRANCH  10  17
ATOM     17  N   UNL     1       7.229  -4.368  26.250  0.00  0.00    +0.080 N 
ATOM     18  O   UNL     1       8.189  -4.378  27.028  0.00  0.00    +0.041 OA
ATOM     19  O   UNL     1       6.577  -5.348  25.873  0.00  0.00    -0.576 OA
ENDBRANCH  10  17
ENDBRANCH   4   7
ENDBRANCH   2   3
BRANCH   2  20
ATOM     20  O   UNL     1       5.991   4.241  24.863  0.00  0.00    -0.376 OA
ATOM     21  H   UNL     1       6.089   3.970  25.794  0.00  0.00    +0.211 HD
ENDBRANCH   2  20
BRANCH   2  22
ATOM     22  C   UNL     1       6.187   3.046  22.722  0.00  0.00    +0.273 C 
BRANCH  22  23
ATOM     23  O   UNL     1       7.565   3.428  22.828  0.00  0.00    -0.483 OA
BRANCH  23  24
ATOM     24  C   UNL     1       8.483   2.415  22.788  0.00  0.00    +0.197 A 
ATOM     25  C   UNL     1       8.610   1.524  21.723  0.00  0.00    +0.206 A 
ATOM     26  F   UNL     1       7.878   1.676  20.610  0.00  0.00    -0.198 F 
ATOM     27  C   UNL     1       9.465   0.429  21.817  0.00  0.00    +0.200 A 
ATOM     28  F   UNL     1       9.550  -0.435  20.796  0.00  0.00    -0.199 F 
ATOM     29  C   UNL     1      10.210   0.212  22.972  0.00  0.00    +0.199 A 
ATOM     30  F   UNL     1      11.011  -0.857  23.060  0.00  0.00    -0.199 F 
ATOM     31  C   UNL     1      10.106   1.101  24.034  0.00  0.00    +0.200 A 
ATOM     32  F   UNL     1      10.818   0.893  25.149  0.00  0.00    -0.199 F 
ATOM     33  C   UNL     1       9.240   2.189  23.944  0.00  0.00    +0.206 A 
ATOM     34  F   UNL     1       9.138   3.022  24.990  0.00  0.00    -0.198 F 
ENDBRANCH  23  24
ENDBRANCH  22  23
ENDBRANCH   2  22
TORSDOF 8
ENDMDL
MODEL 6
REMARK VINA RESULT:      -7.5      3.058      4.498
REMARK  Name = 
REMARK  9 active torsions:
REMARK  status: ('A' for Active; 'I' for Inactive)
REMARK    1  A    between atoms: C_1  and  C_2
REMARK    2  A    between atoms: C_2  and  O_3
REMARK    3  A    between atoms: C_2  and  C_4
REMARK    4  A    between atoms: C_2  and  C_17
REMARK    5  A    between atoms: C_4  and  O_5
REMARK    6  A    between atoms: O_5  and  C_6
REMARK    7  A    between atoms: N_19  and  C_20
REMARK    8  A    between atoms: C_23  and  N_30
REMARK    9  A    between atoms: C_24  and  C_26
REMARK                            x       y       z     vdW  Elec       q    Type
REMARK                         _______ _______ _______ _____ _____    ______ ____
ROOT
ATOM      1  C   UNL     1       7.838  -5.618  23.381  0.00  0.00    +0.055 C 
ATOM      2  C   UNL     1       8.610  -5.087  24.592  0.00  0.00    +0.173 C 
ENDROOT
BRANCH   2   3
ATOM      3  C   UNL     1       9.029  -3.617  24.360  0.00  0.00    +0.252 C 
ATOM      4  N   UNL     1       7.968  -2.725  24.360  0.00  0.00    -0.283 N 
ATOM      5  H   UNL     1       7.071  -3.115  24.085  0.00  0.00    +0.155 HD
ATOM      6  O   UNL     1      10.190  -3.291  24.118  0.00  0.00    -0.272 OA
BRANCH   4   7
ATOM      7  C   UNL     1       8.164  -1.336  24.295  0.00  0.00    +0.034 A 
ATOM      8  C   UNL     1       8.440  -0.744  23.060  0.00  0.00    +0.042 A 
ATOM      9  C   UNL     1       8.680   0.644  22.958  0.00  0.00    +0.133 A 
ATOM     10  C   UNL     1       8.566   1.411  24.126  0.00  0.00    +0.285 A 
ATOM     11  C   UNL     1       8.258   0.836  25.363  0.00  0.00    +0.087 A 
ATOM     12  C   UNL     1       8.075  -0.542  25.444  0.00  0.00    +0.030 A 
BRANCH   9  13
ATOM     13  C   UNL     1       9.065   1.194  21.612  0.00  0.00    +0.424 C 
ATOM     14  F   UNL     1       8.110   2.040  21.131  0.00  0.00    -0.166 F 
ATOM     15  F   UNL     1       9.180   0.209  20.680  0.00  0.00    -0.166 F 
ATOM     16  F   UNL     1      10.222   1.896  21.570  0.00  0.00    -0.166 F 
ENDBRANCH   9  13
BRANCH  10  17
ATOM     17  N   UNL     1       8.751   2.848  24.109  0.00  0.00    +0.080 N 
ATOM     18  O   UNL     1       7.744   3.540  23.925  0.00  0.00    +0.041 OA
ATOM     19  O   UNL     1       9.911   3.257  24.243  0.00  0.00    -0.576 OA
ENDBRANCH  10  17
ENDBRANCH   4   7
ENDBRANCH   2   3
BRANCH   2  20
ATOM     20  O   UNL     1       9.801  -5.881  24.720  0.00  0.00    -0.376 OA
ATOM     21  H   UNL     1      10.553  -5.273  24.836  0.00  0.00    +0.211 HD
ENDBRANCH   2  20
BRANCH   2  22
ATOM     22  C   UNL     1       7.741  -5.180  25.868  0.00  0.00    +0.273 C 
BRANCH  22  23
ATOM     23  O   UNL     1       6.370  -4.933  25.530  0.00  0.00    -0.483 OA
BRANCH  23  24
ATOM     24  C   UNL     1       5.492  -4.841  26.574  0.00  0.00    +0.197 A 
ATOM     25  C   UNL     1       5.293  -3.681  27.321  0.00  0.00    +0.206 A 
ATOM     26  F   UNL     1       5.902  -2.536  26.985  0.00  0.00    -0.198 F 
ATOM     27  C   UNL     1       4.494  -3.705  28.462  0.00  0.00    +0.200 A 
ATOM     28  F   UNL     1       4.340  -2.587  29.186  0.00  0.00    -0.199 F 
ATOM     29  C   UNL     1       3.878  -4.883  28.868  0.00  0.00    +0.199 A 
ATOM     30  F   UNL     1       3.130  -4.900  29.979  0.00  0.00    -0.199 F 
ATOM     31  C   UNL     1       4.054  -6.043  28.124  0.00  0.00    +0.200 A 
ATOM     32  F   UNL     1       3.465  -7.181  28.514  0.00  0.00    -0.199 F 
ATOM     33  C   UNL     1       4.864  -6.022  26.990  0.00  0.00    +0.206 A 
ATOM     34  F   UNL     1       5.038  -7.158  26.299  0.00  0.00    -0.198 F 
ENDBRANCH  23  24
ENDBRANCH  22  23
ENDBRANCH   2  22
TORSDOF 8
ENDMDL
MODEL 7
REMARK VINA RESULT:      -7.5      2.847      4.003
REMARK  Name = 
REMARK  9 active torsions:
REMARK  status: ('A' for Active; 'I' for Inactive)
REMARK    1  A    between atoms: C_1  and  C_2
REMARK    2  A    between atoms: C_2  and  O_3
REMARK    3  A    between atoms: C_2  and  C_4
REMARK    4  A    between atoms: C_2  and  C_17
REMARK    5  A    between atoms: C_4  and  O_5
REMARK    6  A    between atoms: O_5  and  C_6
REMARK    7  A    between atoms: N_19  and  C_20
REMARK    8  A    between atoms: C_23  and  N_30
REMARK    9  A    between atoms: C_24  and  C_26
REMARK                            x       y       z     vdW  Elec       q    Type
REMARK                         _______ _______ _______ _____ _____    ______ ____
ROOT
ATOM      1  C   UNL     1       9.389  -5.366  24.896  0.00  0.00    +0.055 C 
ATOM      2  C   UNL     1       8.749  -4.669  26.100  0.00  0.00    +0.173 C 
ENDROOT
BRANCH   2   3
ATOM      3  C   UNL     1       8.575  -3.159  25.818  0.00  0.00    +0.252 C 
ATOM      4  N   UNL     1       8.597  -2.836  24.470  0.00  0.00    -0.283 N 
ATOM      5  H   UNL     1       9.121  -3.472  23.877  0.00  0.00    +0.155 HD
ATOM      6  O   UNL     1       8.506  -2.323  26.716  0.00  0.00    -0.272 OA
BRANCH   4   7
ATOM      7  C   UNL     1       8.325  -1.535  24.014  0.00  0.00    +0.034 A 
ATOM      8  C   UNL     1       9.345  -0.581  24.027  0.00  0.00    +0.042 A 
ATOM      9  C   UNL     1       9.103   0.746  23.611  0.00  0.00    +0.133 A 
ATOM     10  C   UNL     1       7.825   1.052  23.125  0.00  0.00    +0.285 A 
ATOM     11  C   UNL     1       6.803   0.098  23.076  0.00  0.00    +0.087 A 
ATOM     12  C   UNL     1       7.055  -1.191  23.538  0.00  0.00    +0.030 A 
BRANCH   9  13
ATOM     13  C   UNL     1      10.224   1.741  23.744  0.00  0.00    +0.424 C 
ATOM     14  F   UNL     1      11.322   1.176  24.324  0.00  0.00    -0.166 F 
ATOM     15  F   UNL     1       9.881   2.781  24.553  0.00  0.00    -0.166 F 
ATOM     16  F   UNL     1      10.668   2.288  22.588  0.00  0.00    -0.166 F 
ENDBRANCH   9  13
BRANCH  10  17
ATOM     17  N   UNL     1       7.497   2.377  22.636  0.00  0.00    +0.080 N 
ATOM     18  O   UNL     1       7.005   3.167  23.448  0.00  0.00    +0.041 OA
ATOM     19  O   UNL     1       7.707   2.589  21.435  0.00  0.00    -0.576 OA
ENDBRANCH  10  17
ENDBRANCH   4   7
ENDBRANCH   2   3
BRANCH   2  20
ATOM     20  O   UNL     1       9.650  -4.821  27.209  0.00  0.00    -0.376 OA
ATOM     21  H   UNL     1       9.314  -4.275  27.943  0.00  0.00    +0.211 HD
ENDBRANCH   2  20
BRANCH   2  22
ATOM     22  C   UNL     1       7.371  -5.297  26.415  0.00  0.00    +0.273 C 
BRANCH  22  23
ATOM     23  O   UNL     1       6.335  -4.480  25.853  0.00  0.00    -0.483 OA
BRANCH  23  24
ATOM     24  C   UNL     1       5.460  -5.103  25.007  0.00  0.00    +0.197 A 
ATOM     25  C   UNL     1       5.724  -5.348  23.660  0.00  0.00    +0.206 A 
ATOM     26  F   UNL     1       6.921  -5.060  23.132  0.00  0.00    -0.198 F 
ATOM     27  C   UNL     1       4.728  -5.852  22.826  0.00  0.00    +0.200 A 
ATOM     28  F   UNL     1       4.990  -6.051  21.527  0.00  0.00    -0.199 F 
ATOM     29  C   UNL     1       3.459  -6.124  23.326  0.00  0.00    +0.199 A 
ATOM     30  F   UNL     1       2.503  -6.587  22.511  0.00  0.00    -0.199 F 
ATOM     31  C   UNL     1       3.187  -5.900  24.671  0.00  0.00    +0.200 A 
ATOM     32  F   UNL     1       1.965  -6.158  25.155  0.00  0.00    -0.199 F 
ATOM     33  C   UNL     1       4.180  -5.384  25.501  0.00  0.00    +0.206 A 
ATOM     34  F   UNL     1       3.889  -5.155  26.789  0.00  0.00    -0.198 F 
ENDBRANCH  23  24
ENDBRANCH  22  23
ENDBRANCH   2  22
TORSDOF 8
ENDMDL
MODEL 8
REMARK VINA RESULT:      -7.5      3.431      9.949
REMARK  Name = 
REMARK  9 active torsions:
REMARK  status: ('A' for Active; 'I' for Inactive)
REMARK    1  A    between atoms: C_1  and  C_2
REMARK    2  A    between atoms: C_2  and  O_3
REMARK    3  A    between atoms: C_2  and  C_4
REMARK    4  A    between atoms: C_2  and  C_17
REMARK    5  A    between atoms: C_4  and  O_5
REMARK    6  A    between atoms: O_5  and  C_6
REMARK    7  A    between atoms: N_19  and  C_20
REMARK    8  A    between atoms: C_23  and  N_30
REMARK    9  A    between atoms: C_24  and  C_26
REMARK                            x       y       z     vdW  Elec       q    Type
REMARK                         _______ _______ _______ _____ _____    ______ ____
ROOT
ATOM      1  C   UNL     1      10.531  -2.172  23.282  0.00  0.00    +0.055 C 
ATOM      2  C   UNL     1       9.416  -1.342  22.640  0.00  0.00    +0.173 C 
ENDROOT
BRANCH   2   3
ATOM      3  C   UNL     1       8.056  -2.063  22.784  0.00  0.00    +0.252 C 
ATOM      4  N   UNL     1       8.165  -3.438  22.933  0.00  0.00    -0.283 N 
ATOM      5  H   UNL     1       8.995  -3.856  22.524  0.00  0.00    +0.155 HD
ATOM      6  O   UNL     1       6.982  -1.473  22.692  0.00  0.00    -0.272 OA
BRANCH   4   7
ATOM      7  C   UNL     1       7.049  -4.245  23.208  0.00  0.00    +0.034 A 
ATOM      8  C   UNL     1       6.618  -4.386  24.529  0.00  0.00    +0.042 A 
ATOM      9  C   UNL     1       5.523  -5.217  24.851  0.00  0.00    +0.133 A 
ATOM     10  C   UNL     1       4.846  -5.840  23.794  0.00  0.00    +0.285 A 
ATOM     11  C   UNL     1       5.247  -5.682  22.462  0.00  0.00    +0.087 A 
ATOM     12  C   UNL     1       6.360  -4.896  22.177  0.00  0.00    +0.030 A 
BRANCH   9  13
ATOM     13  C   UNL     1       5.179  -5.395  26.304  0.00  0.00    +0.424 C 
ATOM     14  F   UNL     1       5.934  -4.581  27.096  0.00  0.00    -0.166 F 
ATOM     15  F   UNL     1       5.440  -6.661  26.733  0.00  0.00    -0.166 F 
ATOM     16  F   UNL     1       3.894  -5.136  26.643  0.00  0.00    -0.166 F 
ENDBRANCH   9  13
BRANCH  10  17
ATOM     17  N   UNL     1       3.685  -6.675  24.025  0.00  0.00    +0.080 N 
ATOM     18  O   UNL     1       2.578  -6.146  23.882  0.00  0.00    +0.041 OA
ATOM     19  O   UNL     1       3.905  -7.839  24.383  0.00  0.00    -0.576 OA
ENDBRANCH  10  17
ENDBRANCH   4   7
ENDBRANCH   2   3
BRANCH   2  20
ATOM     20  O   UNL     1       9.721  -1.229  21.240  0.00  0.00    -0.376 OA
ATOM     21  H   UNL     1      10.647  -1.507  21.114  0.00  0.00    +0.211 HD
ENDBRANCH   2  20
BRANCH   2  22
ATOM     22  C   UNL     1       9.333   0.052  23.304  0.00  0.00    +0.273 C 
BRANCH  22  23
ATOM     23  O   UNL     1       9.722   1.055  22.356  0.00  0.00    -0.483 OA
BRANCH  23  24
ATOM     24  C   UNL     1       9.315   2.334  22.620  0.00  0.00    +0.197 A 
ATOM     25  C   UNL     1      10.037   3.233  23.401  0.00  0.00    +0.206 A 
ATOM     26  F   UNL     1      11.250   2.912  23.873  0.00  0.00    -0.198 F 
ATOM     27  C   UNL     1       9.489   4.466  23.748  0.00  0.00    +0.200 A 
ATOM     28  F   UNL     1      10.185   5.305  24.528  0.00  0.00    -0.199 F 
ATOM     29  C   UNL     1       8.216   4.819  23.315  0.00  0.00    +0.199 A 
ATOM     30  F   UNL     1       7.690   5.997  23.673  0.00  0.00    -0.199 F 
ATOM     31  C   UNL     1       7.491   3.939  22.520  0.00  0.00    +0.200 A 
ATOM     32  F   UNL     1       6.263   4.275  22.104  0.00  0.00    -0.199 F 
ATOM     33  C   UNL     1       8.035   2.701  22.185  0.00  0.00    +0.206 A 
ATOM     34  F   UNL     1       7.309   1.858  21.436  0.00  0.00    -0.198 F 
ENDBRANCH  23  24
ENDBRANCH  22  23
ENDBRANCH   2  22
TORSDOF 8
ENDMDL
MODEL 9
REMARK VINA RESULT:      -7.5      3.541      8.158
REMARK  Name = 
REMARK  9 active torsions:
REMARK  status: ('A' for Active; 'I' for Inactive)
REMARK    1  A    between atoms: C_1  and  C_2
REMARK    2  A    between atoms: C_2  and  O_3
REMARK    3  A    between atoms: C_2  and  C_4
REMARK    4  A    between atoms: C_2  and  C_17
REMARK    5  A    between atoms: C_4  and  O_5
REMARK    6  A    between atoms: O_5  and  C_6
REMARK    7  A    between atoms: N_19  and  C_20
REMARK    8  A    between atoms: C_23  and  N_30
REMARK    9  A    between atoms: C_24  and  C_26
REMARK                            x       y       z     vdW  Elec       q    Type
REMARK                         _______ _______ _______ _____ _____    ______ ____
ROOT
ATOM      1  C   UNL     1       5.283   2.765  26.798  0.00  0.00    +0.055 C 
ATOM      2  C   UNL     1       6.721   2.266  26.634  0.00  0.00    +0.173 C 
ENDROOT
BRANCH   2   3
ATOM      3  C   UNL     1       6.812   0.761  26.974  0.00  0.00    +0.252 C 
ATOM      4  N   UNL     1       6.069  -0.049  26.128  0.00  0.00    -0.283 N 
ATOM      5  H   UNL     1       5.263   0.393  25.696  0.00  0.00    +0.155 HD
ATOM      6  O   UNL     1       7.422   0.340  27.954  0.00  0.00    -0.272 OA
BRANCH   4   7
ATOM      7  C   UNL     1       6.131  -1.451  26.198  0.00  0.00    +0.034 A 
ATOM      8  C   UNL     1       6.830  -2.152  25.213  0.00  0.00    +0.042 A 
ATOM      9  C   UNL     1       6.885  -3.563  25.228  0.00  0.00    +0.133 A 
ATOM     10  C   UNL     1       6.272  -4.227  26.300  0.00  0.00    +0.285 A 
ATOM     11  C   UNL     1       5.596  -3.535  27.311  0.00  0.00    +0.087 A 
ATOM     12  C   UNL     1       5.515  -2.146  27.245  0.00  0.00    +0.030 A 
BRANCH   9  13
ATOM     13  C   UNL     1       7.573  -4.252  24.082  0.00  0.00    +0.424 C 
ATOM     14  F   UNL     1       7.919  -3.365  23.106  0.00  0.00    -0.166 F 
ATOM     15  F   UNL     1       6.758  -5.159  23.476  0.00  0.00    -0.166 F 
ATOM     16  F   UNL     1       8.714  -4.913  24.390  0.00  0.00    -0.166 F 
ENDBRANCH   9  13
BRANCH  10  17
ATOM     17  N   UNL     1       6.315  -5.670  26.421  0.00  0.00    +0.080 N 
ATOM     18  O   UNL     1       5.355  -6.299  25.964  0.00  0.00    +0.041 OA
ATOM     19  O   UNL     1       7.295  -6.146  27.008  0.00  0.00    -0.576 OA
ENDBRANCH  10  17
ENDBRANCH   4   7
ENDBRANCH   2   3
BRANCH   2  20
ATOM     20  O   UNL     1       7.533   2.991  27.573  0.00  0.00    -0.376 OA
ATOM     21  H   UNL     1       8.084   2.344  28.051  0.00  0.00    +0.211 HD
ENDBRANCH   2  20
BRANCH   2  22
ATOM     22  C   UNL     1       7.209   2.498  25.185  0.00  0.00    +0.273 C 
BRANCH  22  23
ATOM     23  O   UNL     1       8.621   2.259  25.113  0.00  0.00    -0.483 OA
BRANCH  23  24
ATOM     24  C   UNL     1       9.041   1.374  24.158  0.00  0.00    +0.197 A 
ATOM     25  C   UNL     1       8.870   1.571  22.789  0.00  0.00    +0.206 A 
ATOM     26  F   UNL     1       8.352   2.714  22.320  0.00  0.00    -0.198 F 
ATOM     27  C   UNL     1       9.189   0.560  21.885  0.00  0.00    +0.200 A 
ATOM     28  F   UNL     1       8.987   0.755  20.575  0.00  0.00    -0.199 F 
ATOM     29  C   UNL     1       9.689  -0.657  22.335  0.00  0.00    +0.199 A 
ATOM     30  F   UNL     1       9.971  -1.630  21.460  0.00  0.00    -0.199 F 
ATOM     31  C   UNL     1       9.881  -0.861  23.697  0.00  0.00    +0.200 A 
ATOM     32  F   UNL     1      10.359  -2.033  24.134  0.00  0.00    -0.199 F 
ATOM     33  C   UNL     1       9.549   0.146  24.601  0.00  0.00    +0.206 A 
ATOM     34  F   UNL     1       9.721  -0.080  25.911  0.00  0.00    -0.198 F 
ENDBRANCH  23  24
ENDBRANCH  22  23
ENDBRANCH   2  22
TORSDOF 8
ENDMDL
