MODEL 1
REMARK VINA RESULT:      -8.0      0.000      0.000
REMARK  Name = 
REMARK  13 active torsions:
REMARK  status: ('A' for Active; 'I' for Inactive)
REMARK    1  A    between atoms: O_1  and  C_2
REMARK    2  A    between atoms: C_2  and  C_4
REMARK    3  A    between atoms: C_8  and  O_9
REMARK    4  A    between atoms: C_10  and  C_11
REMARK    5  A    between atoms: C_11  and  C_13
REMARK    6  A    between atoms: C_14  and  O_15
REMARK    7  A    between atoms: C_17  and  C_21
REMARK    8  A    between atoms: C_19  and  O_20
REMARK    9  A    between atoms: C_21  and  O_23
REMARK   10  A    between atoms: O_23  and  C_24
REMARK   11  A    between atoms: C_31  and  N_33
REMARK   12  A    between atoms: C_34  and  C_36
REMARK   13  A    between atoms: C_39  and  O_40
REMARK                            x       y       z     vdW  Elec       q    Type
REMARK                         _______ _______ _______ _____ _____    ______ ____
ROOT
ATOM      1  C   UNL     1       9.311   2.298  23.614  0.00  0.00    +0.105 A 
ATOM      2  C   UNL     1       8.958   1.502  24.713  0.00  0.00    +0.132 A 
ATOM      3  C   UNL     1       9.076   0.091  24.680  0.00  0.00    +0.061 A 
ATOM      4  C   UNL     1       9.541  -0.565  23.534  0.00  0.00    +0.066 A 
ATOM      5  C   UNL     1       9.945   0.225  22.446  0.00  0.00    +0.061 A 
ATOM      6  C   UNL     1       9.830   1.630  22.488  0.00  0.00    +0.132 A 
ENDROOT
BRANCH   1   7
ATOM      7  C   UNL     1       9.034   3.781  23.556  0.00  0.00    +0.204 C 
ATOM      8  O   UNL     1       8.099   4.181  22.859  0.00  0.00    -0.286 OA
BRANCH   7  10
ATOM      9  C   UNL     1       9.325   5.686  25.242  0.00  0.00    +0.073 A 
ATOM     10  C   UNL     1       9.841   4.836  24.236  0.00  0.00    +0.078 A 
ATOM     11  C   UNL     1      11.133   5.102  23.748  0.00  0.00    +0.128 A 
ATOM     12  C   UNL     1      11.927   6.125  24.291  0.00  0.00    +0.046 A 
ATOM     13  C   UNL     1      11.430   6.935  25.300  0.00  0.00    +0.004 A 
ATOM     14  C   UNL     1      10.134   6.725  25.762  0.00  0.00    +0.016 A 
BRANCH   9  15
ATOM     15  C   UNL     1       7.986   5.607  25.888  0.00  0.00    +0.338 C 
ATOM     16  O   UNL     1       7.052   6.286  25.482  0.00  0.00    -0.245 OA
BRANCH  15  17
ATOM     17  O   UNL     1       7.820   4.663  26.829  0.00  0.00    -0.477 OA
ATOM     18  H   UNL     1       7.164   3.956  26.623  0.00  0.00    +0.295 HD
ENDBRANCH  15  17
ENDBRANCH   9  15
BRANCH  11  19
ATOM     19  O   UNL     1      11.619   4.390  22.684  0.00  0.00    -0.506 OA
ATOM     20  H   UNL     1      11.943   3.529  23.002  0.00  0.00    +0.292 HD
ENDBRANCH  11  19
ENDBRANCH   7  10
ENDBRANCH   1   7
BRANCH   2  21
ATOM     21  O   UNL     1       8.446   2.095  25.833  0.00  0.00    -0.506 OA
ATOM     22  H   UNL     1       8.598   3.054  25.794  0.00  0.00    +0.292 HD
ENDBRANCH   2  21
BRANCH   4  23
ATOM     23  C   UNL     1       9.601  -2.067  23.406  0.00  0.00    +0.340 C 
ATOM     24  O   UNL     1      10.595  -2.709  23.708  0.00  0.00    -0.245 OA
BRANCH  23  25
ATOM     25  O   UNL     1       8.443  -2.606  22.914  0.00  0.00    -0.456 OA
BRANCH  25  26
ATOM     26  C   UNL     1       7.542  -3.235  23.887  0.00  0.00    +0.198 C 
ATOM     27  C   UNL     1       6.074  -2.784  23.661  0.00  0.00    +0.128 C 
ATOM     28  C   UNL     1       5.567  -3.074  22.227  0.00  0.00    +0.106 C 
ATOM     29  N   UNL     1       4.988  -4.389  21.960  0.00  0.00    -0.314 NA
ATOM     30  H   UNL     1       4.003  -4.386  22.235  0.00  0.00    +0.122 HD
ATOM     31  C   UNL     1       5.638  -5.545  22.561  0.00  0.00    +0.081 C 
ATOM     32  C   UNL     1       7.165  -5.498  22.631  0.00  0.00    +0.019 C 
ATOM     33  C   UNL     1       7.697  -4.766  23.868  0.00  0.00    +0.048 C 
BRANCH  27  34
ATOM     34  N   UNL     1       5.921  -1.351  23.971  0.00  0.00    -0.304 N 
ATOM     35  H   UNL     1       5.680  -0.743  23.202  0.00  0.00    +0.149 HD
ATOM     36  C   UNL     1       5.681  -0.924  25.268  0.00  0.00    +0.244 C 
ATOM     37  O   UNL     1       5.709  -1.678  26.235  0.00  0.00    -0.270 OA
BRANCH  36  38
ATOM     38  C   UNL     1       5.293   0.508  25.443  0.00  0.00    +0.037 A 
ATOM     39  C   UNL     1       4.806   1.015  26.656  0.00  0.00    +0.016 A 
ATOM     40  C   UNL     1       4.589   2.392  26.803  0.00  0.00    +0.046 A 
ATOM     41  C   UNL     1       4.849   3.251  25.740  0.00  0.00    +0.117 A 
ATOM     42  C   UNL     1       5.246   2.756  24.504  0.00  0.00    +0.046 A 
ATOM     43  C   UNL     1       5.462   1.380  24.357  0.00  0.00    +0.016 A 
BRANCH  41  44
ATOM     44  O   UNL     1       4.725   4.589  25.964  0.00  0.00    -0.507 OA
ATOM     45  H   UNL     1       5.560   5.018  25.707  0.00  0.00    +0.292 HD
ENDBRANCH  41  44
ENDBRANCH  36  38
ENDBRANCH  27  34
ENDBRANCH  25  26
ENDBRANCH  23  25
ENDBRANCH   4  23
BRANCH   6  46
ATOM     46  O   UNL     1      10.259   2.285  21.360  0.00  0.00    -0.506 OA
ATOM     47  H   UNL     1       9.628   2.104  20.633  0.00  0.00    +0.292 HD
ENDBRANCH   6  46
TORSDOF 13
ENDMDL
MODEL 2
REMARK VINA RESULT:      -8.0      3.895      9.305
REMARK  Name = 
REMARK  13 active torsions:
REMARK  status: ('A' for Active; 'I' for Inactive)
REMARK    1  A    between atoms: O_1  and  C_2
REMARK    2  A    between atoms: C_2  and  C_4
REMARK    3  A    between atoms: C_8  and  O_9
REMARK    4  A    between atoms: C_10  and  C_11
REMARK    5  A    between atoms: C_11  and  C_13
REMARK    6  A    between atoms: C_14  and  O_15
REMARK    7  A    between atoms: C_17  and  C_21
REMARK    8  A    between atoms: C_19  and  O_20
REMARK    9  A    between atoms: C_21  and  O_23
REMARK   10  A    between atoms: O_23  and  C_24
REMARK   11  A    between atoms: C_31  and  N_33
REMARK   12  A    between atoms: C_34  and  C_36
REMARK   13  A    between atoms: C_39  and  O_40
REMARK                            x       y       z     vdW  Elec       q    Type
REMARK                         _______ _______ _______ _____ _____    ______ ____
ROOT
ATOM      1  C   UNL     1       6.190  -4.510  26.415  0.00  0.00    +0.105 A 
ATOM      2  C   UNL     1       5.580  -3.255  26.279  0.00  0.00    +0.132 A 
ATOM      3  C   UNL     1       6.334  -2.056  26.272  0.00  0.00    +0.061 A 
ATOM      4  C   UNL     1       7.726  -2.081  26.416  0.00  0.00    +0.066 A 
ATOM      5  C   UNL     1       8.353  -3.335  26.503  0.00  0.00    +0.061 A 
ATOM      6  C   UNL     1       7.596  -4.525  26.503  0.00  0.00    +0.132 A 
ENDROOT
BRANCH   1   7
ATOM      7  C   UNL     1       5.403  -5.785  26.600  0.00  0.00    +0.204 C 
ATOM      8  O   UNL     1       5.616  -6.727  25.833  0.00  0.00    -0.286 OA
BRANCH   7  10
ATOM      9  C   UNL     1       4.583  -6.279  28.975  0.00  0.00    +0.073 A 
ATOM     10  C   UNL     1       4.327  -5.995  27.612  0.00  0.00    +0.078 A 
ATOM     11  C   UNL     1       2.996  -6.065  27.164  0.00  0.00    +0.128 A 
ATOM     12  C   UNL     1       1.937  -6.328  28.046  0.00  0.00    +0.046 A 
ATOM     13  C   UNL     1       2.188  -6.573  29.388  0.00  0.00    +0.004 A 
ATOM     14  C   UNL     1       3.501  -6.562  29.845  0.00  0.00    +0.016 A 
BRANCH   9  15
ATOM     15  C   UNL     1       5.904  -6.285  29.661  0.00  0.00    +0.338 C 
ATOM     16  O   UNL     1       6.188  -5.424  30.483  0.00  0.00    -0.245 OA
BRANCH  15  17
ATOM     17  O   UNL     1       6.698  -7.346  29.442  0.00  0.00    -0.477 OA
ATOM     18  H   UNL     1       7.469  -7.195  28.847  0.00  0.00    +0.295 HD
ENDBRANCH  15  17
ENDBRANCH   9  15
BRANCH  11  19
ATOM     19  O   UNL     1       2.720  -5.929  25.828  0.00  0.00    -0.506 OA
ATOM     20  H   UNL     1       1.959  -6.494  25.605  0.00  0.00    +0.292 HD
ENDBRANCH  11  19
ENDBRANCH   7  10
ENDBRANCH   1   7
BRANCH   2  21
ATOM     21  O   UNL     1       4.218  -3.177  26.191  0.00  0.00    -0.506 OA
ATOM     22  H   UNL     1       3.815  -3.670  26.926  0.00  0.00    +0.292 HD
ENDBRANCH   2  21
BRANCH   4  23
ATOM     23  C   UNL     1       8.572  -0.836  26.511  0.00  0.00    +0.340 C 
ATOM     24  O   UNL     1       9.202  -0.549  27.518  0.00  0.00    -0.245 OA
BRANCH  23  25
ATOM     25  O   UNL     1       8.541  -0.083  25.369  0.00  0.00    -0.456 OA
BRANCH  25  26
ATOM     26  C   UNL     1       9.383  -0.535  24.256  0.00  0.00    +0.198 C 
ATOM     27  C   UNL     1       8.575  -0.592  22.931  0.00  0.00    +0.128 C 
ATOM     28  C   UNL     1       7.922   0.763  22.564  0.00  0.00    +0.106 C 
ATOM     29  N   UNL     1       8.716   1.721  21.799  0.00  0.00    -0.314 NA
ATOM     30  H   UNL     1       8.650   1.495  20.804  0.00  0.00    +0.122 HD
ATOM     31  C   UNL     1      10.122   1.862  22.152  0.00  0.00    +0.081 C 
ATOM     32  C   UNL     1      10.454   1.771  23.642  0.00  0.00    +0.019 C 
ATOM     33  C   UNL     1      10.648   0.333  24.136  0.00  0.00    +0.048 C 
BRANCH  27  34
ATOM     34  N   UNL     1       7.548  -1.647  22.998  0.00  0.00    -0.304 N 
ATOM     35  H   UNL     1       6.604  -1.378  22.758  0.00  0.00    +0.149 HD
ATOM     36  C   UNL     1       7.898  -2.987  22.953  0.00  0.00    +0.244 C 
ATOM     37  O   UNL     1       9.061  -3.374  22.984  0.00  0.00    -0.270 OA
BRANCH  36  38
ATOM     38  C   UNL     1       6.785  -3.968  22.773  0.00  0.00    +0.037 A 
ATOM     39  C   UNL     1       7.011  -5.330  22.532  0.00  0.00    +0.016 A 
ATOM     40  C   UNL     1       5.934  -6.226  22.510  0.00  0.00    +0.046 A 
ATOM     41  C   UNL     1       4.640  -5.757  22.718  0.00  0.00    +0.117 A 
ATOM     42  C   UNL     1       4.389  -4.400  22.869  0.00  0.00    +0.046 A 
ATOM     43  C   UNL     1       5.466  -3.504  22.890  0.00  0.00    +0.016 A 
BRANCH  41  44
ATOM     44  O   UNL     1       3.639  -6.678  22.794  0.00  0.00    -0.507 OA
ATOM     45  H   UNL     1       3.851  -7.299  23.512  0.00  0.00    +0.292 HD
ENDBRANCH  41  44
ENDBRANCH  36  38
ENDBRANCH  27  34
ENDBRANCH  25  26
ENDBRANCH  23  25
ENDBRANCH   4  23
BRANCH   6  46
ATOM     46  O   UNL     1       8.328  -5.683  26.594  0.00  0.00    -0.506 OA
ATOM     47  H   UNL     1       9.186  -5.549  26.141  0.00  0.00    +0.292 HD
ENDBRANCH   6  46
TORSDOF 13
ENDMDL
MODEL 3
REMARK VINA RESULT:      -7.8      3.911      9.397
REMARK  Name = 
REMARK  13 active torsions:
REMARK  status: ('A' for Active; 'I' for Inactive)
REMARK    1  A    between atoms: O_1  and  C_2
REMARK    2  A    between atoms: C_2  and  C_4
REMARK    3  A    between atoms: C_8  and  O_9
REMARK    4  A    between atoms: C_10  and  C_11
REMARK    5  A    between atoms: C_11  and  C_13
REMARK    6  A    between atoms: C_14  and  O_15
REMARK    7  A    between atoms: C_17  and  C_21
REMARK    8  A    between atoms: C_19  and  O_20
REMARK    9  A    between atoms: C_21  and  O_23
REMARK   10  A    between atoms: O_23  and  C_24
REMARK   11  A    between atoms: C_31  and  N_33
REMARK   12  A    between atoms: C_34  and  C_36
REMARK   13  A    between atoms: C_39  and  O_40
REMARK                            x       y       z     vdW  Elec       q    Type
REMARK                         _______ _______ _______ _____ _____    ______ ____
ROOT
ATOM      1  C   UNL     1       6.256  -4.528  26.707  0.00  0.00    +0.105 A 
ATOM      2  C   UNL     1       7.655  -4.563  26.780  0.00  0.00    +0.132 A 
ATOM      3  C   UNL     1       8.435  -3.382  26.732  0.00  0.00    +0.061 A 
ATOM      4  C   UNL     1       7.830  -2.127  26.598  0.00  0.00    +0.066 A 
ATOM      5  C   UNL     1       6.427  -2.075  26.575  0.00  0.00    +0.061 A 
ATOM      6  C   UNL     1       5.657  -3.255  26.628  0.00  0.00    +0.132 A 
ENDROOT
BRANCH   1   7
ATOM      7  C   UNL     1       5.412  -5.774  26.580  0.00  0.00    +0.204 C 
ATOM      8  O   UNL     1       5.553  -6.483  25.581  0.00  0.00    -0.286 OA
BRANCH   7  10
ATOM      9  C   UNL     1       4.632  -6.575  28.882  0.00  0.00    +0.073 A 
ATOM     10  C   UNL     1       4.359  -6.204  27.545  0.00  0.00    +0.078 A 
ATOM     11  C   UNL     1       3.052  -6.396  27.062  0.00  0.00    +0.128 A 
ATOM     12  C   UNL     1       2.023  -6.865  27.893  0.00  0.00    +0.046 A 
ATOM     13  C   UNL     1       2.286  -7.197  29.214  0.00  0.00    +0.004 A 
ATOM     14  C   UNL     1       3.583  -7.066  29.700  0.00  0.00    +0.016 A 
BRANCH   9  15
ATOM     15  C   UNL     1       5.934  -6.480  29.595  0.00  0.00    +0.338 C 
ATOM     16  O   UNL     1       6.847  -7.255  29.341  0.00  0.00    -0.245 OA
BRANCH  15  17
ATOM     17  O   UNL     1       6.104  -5.429  30.414  0.00  0.00    -0.477 OA
ATOM     18  H   UNL     1       5.459  -5.348  31.155  0.00  0.00    +0.295 HD
ENDBRANCH  15  17
ENDBRANCH   9  15
BRANCH  11  19
ATOM     19  O   UNL     1       2.776  -6.176  25.738  0.00  0.00    -0.506 OA
ATOM     20  H   UNL     1       3.614  -6.050  25.258  0.00  0.00    +0.292 HD
ENDBRANCH  11  19
ENDBRANCH   7  10
ENDBRANCH   1   7
BRANCH   2  21
ATOM     21  O   UNL     1       8.293  -5.771  26.856  0.00  0.00    -0.506 OA
ATOM     22  H   UNL     1       7.804  -6.431  26.335  0.00  0.00    +0.292 HD
ENDBRANCH   2  21
BRANCH   4  23
ATOM     23  C   UNL     1       8.609  -0.844  26.448  0.00  0.00    +0.340 C 
ATOM     24  O   UNL     1       9.328  -0.409  27.336  0.00  0.00    -0.245 OA
BRANCH  23  25
ATOM     25  O   UNL     1       8.410  -0.237  25.238  0.00  0.00    -0.456 OA
BRANCH  25  26
ATOM     26  C   UNL     1       9.230  -0.713  24.118  0.00  0.00    +0.198 C 
ATOM     27  C   UNL     1       8.420  -0.715  22.793  0.00  0.00    +0.128 C 
ATOM     28  C   UNL     1       7.830   0.673  22.445  0.00  0.00    +0.106 C 
ATOM     29  N   UNL     1       8.667   1.603  21.691  0.00  0.00    -0.314 NA
ATOM     30  H   UNL     1       8.590   1.394  20.693  0.00  0.00    +0.122 HD
ATOM     31  C   UNL     1      10.078   1.675  22.045  0.00  0.00    +0.081 C 
ATOM     32  C   UNL     1      10.406   1.549  23.534  0.00  0.00    +0.019 C 
ATOM     33  C   UNL     1      10.534   0.097  24.009  0.00  0.00    +0.048 C 
BRANCH  27  34
ATOM     34  N   UNL     1       7.346  -1.723  22.848  0.00  0.00    -0.304 N 
ATOM     35  H   UNL     1       6.446  -1.449  22.478  0.00  0.00    +0.149 HD
ATOM     36  C   UNL     1       7.639  -3.071  22.973  0.00  0.00    +0.244 C 
ATOM     37  O   UNL     1       8.773  -3.492  23.172  0.00  0.00    -0.270 OA
BRANCH  36  38
ATOM     38  C   UNL     1       6.509  -4.028  22.766  0.00  0.00    +0.037 A 
ATOM     39  C   UNL     1       6.696  -5.315  22.245  0.00  0.00    +0.016 A 
ATOM     40  C   UNL     1       5.624  -6.217  22.202  0.00  0.00    +0.046 A 
ATOM     41  C   UNL     1       4.373  -5.826  22.670  0.00  0.00    +0.117 A 
ATOM     42  C   UNL     1       4.149  -4.527  23.106  0.00  0.00    +0.046 A 
ATOM     43  C   UNL     1       5.220  -3.626  23.148  0.00  0.00    +0.016 A 
BRANCH  41  44
ATOM     44  O   UNL     1       3.390  -6.768  22.707  0.00  0.00    -0.507 OA
ATOM     45  H   UNL     1       2.581  -6.350  23.049  0.00  0.00    +0.292 HD
ENDBRANCH  41  44
ENDBRANCH  36  38
ENDBRANCH  27  34
ENDBRANCH  25  26
ENDBRANCH  23  25
ENDBRANCH   4  23
BRANCH   6  46
ATOM     46  O   UNL     1       4.298  -3.068  26.597  0.00  0.00    -0.506 OA
ATOM     47  H   UNL     1       4.075  -2.292  27.153  0.00  0.00    +0.292 HD
ENDBRANCH   6  46
TORSDOF 13
ENDMDL
MODEL 4
REMARK VINA RESULT:      -7.6      2.836      5.419
REMARK  Name = 
REMARK  13 active torsions:
REMARK  status: ('A' for Active; 'I' for Inactive)
REMARK    1  A    between atoms: O_1  and  C_2
REMARK    2  A    between atoms: C_2  and  C_4
REMARK    3  A    between atoms: C_8  and  O_9
REMARK    4  A    between atoms: C_10  and  C_11
REMARK    5  A    between atoms: C_11  and  C_13
REMARK    6  A    between atoms: C_14  and  O_15
REMARK    7  A    between atoms: C_17  and  C_21
REMARK    8  A    between atoms: C_19  and  O_20
REMARK    9  A    between atoms: C_21  and  O_23
REMARK   10  A    between atoms: O_23  and  C_24
REMARK   11  A    between atoms: C_31  and  N_33
REMARK   12  A    between atoms: C_34  and  C_36
REMARK   13  A    between atoms: C_39  and  O_40
REMARK                            x       y       z     vdW  Elec       q    Type
REMARK                         _______ _______ _______ _____ _____    ______ ____
ROOT
ATOM      1  C   UNL     1       7.563   0.064  25.237  0.00  0.00    +0.105 A 
ATOM      2  C   UNL     1       7.466  -0.507  26.513  0.00  0.00    +0.132 A 
ATOM      3  C   UNL     1       6.399  -1.369  26.866  0.00  0.00    +0.061 A 
ATOM      4  C   UNL     1       5.387  -1.672  25.947  0.00  0.00    +0.066 A 
ATOM      5  C   UNL     1       5.500  -1.145  24.651  0.00  0.00    +0.061 A 
ATOM      6  C   UNL     1       6.570  -0.293  24.305  0.00  0.00    +0.132 A 
ENDROOT
BRANCH   1   7
ATOM      7  C   UNL     1       8.588   1.118  24.889  0.00  0.00    +0.204 C 
ATOM      8  O   UNL     1       9.783   0.821  24.945  0.00  0.00    -0.286 OA
BRANCH   7  10
ATOM      9  C   UNL     1       8.476   3.071  23.237  0.00  0.00    +0.073 A 
ATOM     10  C   UNL     1       8.281   2.533  24.532  0.00  0.00    +0.078 A 
ATOM     11  C   UNL     1       7.925   3.418  25.565  0.00  0.00    +0.128 A 
ATOM     12  C   UNL     1       7.688   4.779  25.318  0.00  0.00    +0.046 A 
ATOM     13  C   UNL     1       7.848   5.297  24.041  0.00  0.00    +0.004 A 
ATOM     14  C   UNL     1       8.251   4.451  23.013  0.00  0.00    +0.016 A 
BRANCH   9  15
ATOM     15  C   UNL     1       8.871   2.333  22.007  0.00  0.00    +0.338 C 
ATOM     16  O   UNL     1       8.025   1.854  21.263  0.00  0.00    -0.245 OA
BRANCH  15  17
ATOM     17  O   UNL     1      10.174   2.345  21.683  0.00  0.00    -0.477 OA
ATOM     18  H   UNL     1      10.746   1.702  22.164  0.00  0.00    +0.295 HD
ENDBRANCH  15  17
ENDBRANCH   9  15
BRANCH  11  19
ATOM     19  O   UNL     1       7.857   2.965  26.856  0.00  0.00    -0.506 OA
ATOM     20  H   UNL     1       8.385   3.552  27.425  0.00  0.00    +0.292 HD
ENDBRANCH  11  19
ENDBRANCH   7  10
ENDBRANCH   1   7
BRANCH   2  21
ATOM     21  O   UNL     1       8.401  -0.195  27.461  0.00  0.00    -0.506 OA
ATOM     22  H   UNL     1       9.291  -0.379  27.115  0.00  0.00    +0.292 HD
ENDBRANCH   2  21
BRANCH   4  23
ATOM     23  C   UNL     1       4.177  -2.506  26.292  0.00  0.00    +0.340 C 
ATOM     24  O   UNL     1       3.079  -2.297  25.799  0.00  0.00    -0.245 OA
BRANCH  23  25
ATOM     25  O   UNL     1       4.450  -3.488  27.205  0.00  0.00    -0.456 OA
BRANCH  25  26
ATOM     26  C   UNL     1       4.434  -4.870  26.713  0.00  0.00    +0.198 C 
ATOM     27  C   UNL     1       5.873  -5.379  26.430  0.00  0.00    +0.128 C 
ATOM     28  C   UNL     1       6.800  -5.284  27.666  0.00  0.00    +0.106 C 
ATOM     29  N   UNL     1       6.808  -6.405  28.603  0.00  0.00    -0.314 NA
ATOM     30  H   UNL     1       7.448  -7.126  28.262  0.00  0.00    +0.122 HD
ATOM     31  C   UNL     1       5.530  -7.027  28.918  0.00  0.00    +0.081 C 
ATOM     32  C   UNL     1       4.330  -6.084  29.027  0.00  0.00    +0.019 C 
ATOM     33  C   UNL     1       3.664  -5.787  27.679  0.00  0.00    +0.048 C 
BRANCH  27  34
ATOM     34  N   UNL     1       6.465  -4.648  25.296  0.00  0.00    -0.304 N 
ATOM     35  H   UNL     1       5.969  -3.829  24.974  0.00  0.00    +0.149 HD
ATOM     36  C   UNL     1       7.807  -4.790  24.979  0.00  0.00    +0.244 C 
ATOM     37  O   UNL     1       8.539  -5.608  25.525  0.00  0.00    -0.270 OA
BRANCH  36  38
ATOM     38  C   UNL     1       8.368  -3.827  23.984  0.00  0.00    +0.037 A 
ATOM     39  C   UNL     1       7.729  -3.537  22.770  0.00  0.00    +0.016 A 
ATOM     40  C   UNL     1       8.228  -2.525  21.939  0.00  0.00    +0.046 A 
ATOM     41  C   UNL     1       9.364  -1.815  22.318  0.00  0.00    +0.117 A 
ATOM     42  C   UNL     1      10.060  -2.149  23.473  0.00  0.00    +0.046 A 
ATOM     43  C   UNL     1       9.562  -3.161  24.303  0.00  0.00    +0.016 A 
BRANCH  41  44
ATOM     44  O   UNL     1       9.748  -0.772  21.532  0.00  0.00    -0.507 OA
ATOM     45  H   UNL     1       8.977  -0.481  21.015  0.00  0.00    +0.292 HD
ENDBRANCH  41  44
ENDBRANCH  36  38
ENDBRANCH  27  34
ENDBRANCH  25  26
ENDBRANCH  23  25
ENDBRANCH   4  23
BRANCH   6  46
ATOM     46  O   UNL     1       6.565   0.154  23.007  0.00  0.00    -0.506 OA
ATOM     47  H   UNL     1       7.435  -0.046  22.603  0.00  0.00    +0.292 HD
ENDBRANCH   6  46
TORSDOF 13
ENDMDL
MODEL 5
REMARK VINA RESULT:      -7.6      2.701      8.927
REMARK  Name = 
REMARK  13 active torsions:
REMARK  status: ('A' for Active; 'I' for Inactive)
REMARK    1  A    between atoms: O_1  and  C_2
REMARK    2  A    between atoms: C_2  and  C_4
REMARK    3  A    between atoms: C_8  and  O_9
REMARK    4  A    between atoms: C_10  and  C_11
REMARK    5  A    between atoms: C_11  and  C_13
REMARK    6  A    between atoms: C_14  and  O_15
REMARK    7  A    between atoms: C_17  and  C_21
REMARK    8  A    between atoms: C_19  and  O_20
REMARK    9  A    between atoms: C_21  and  O_23
REMARK   10  A    between atoms: O_23  and  C_24
REMARK   11  A    between atoms: C_31  and  N_33
REMARK   12  A    between atoms: C_34  and  C_36
REMARK   13  A    between atoms: C_39  and  O_40
REMARK                            x       y       z     vdW  Elec       q    Type
REMARK                         _______ _______ _______ _____ _____    ______ ____
ROOT
ATOM      1  C   UNL     1       7.210  -3.402  23.777  0.00  0.00    +0.105 A 
ATOM      2  C   UNL     1       6.320  -2.533  23.131  0.00  0.00    +0.132 A 
ATOM      3  C   UNL     1       6.407  -1.128  23.281  0.00  0.00    +0.061 A 
ATOM      4  C   UNL     1       7.387  -0.552  24.100  0.00  0.00    +0.066 A 
ATOM      5  C   UNL     1       8.314  -1.410  24.712  0.00  0.00    +0.061 A 
ATOM      6  C   UNL     1       8.225  -2.808  24.553  0.00  0.00    +0.132 A 
ENDROOT
BRANCH   1   7
ATOM      7  C   UNL     1       7.035  -4.902  23.776  0.00  0.00    +0.204 C 
ATOM      8  O   UNL     1       7.796  -5.586  23.087  0.00  0.00    -0.286 OA
BRANCH   7  10
ATOM      9  C   UNL     1       6.000  -5.905  25.892  0.00  0.00    +0.073 A 
ATOM     10  C   UNL     1       5.964  -5.646  24.501  0.00  0.00    +0.078 A 
ATOM     11  C   UNL     1       4.944  -6.250  23.745  0.00  0.00    +0.128 A 
ATOM     12  C   UNL     1       3.940  -7.022  24.350  0.00  0.00    +0.046 A 
ATOM     13  C   UNL     1       3.960  -7.248  25.719  0.00  0.00    +0.004 A 
ATOM     14  C   UNL     1       4.989  -6.704  26.480  0.00  0.00    +0.016 A 
BRANCH   9  15
ATOM     15  C   UNL     1       6.990  -5.393  26.878  0.00  0.00    +0.338 C 
ATOM     16  O   UNL     1       6.647  -4.640  27.779  0.00  0.00    -0.245 OA
BRANCH  15  17
ATOM     17  O   UNL     1       8.230  -5.906  26.816  0.00  0.00    -0.477 OA
ATOM     18  H   UNL     1       8.499  -6.483  27.569  0.00  0.00    +0.295 HD
ENDBRANCH  15  17
ENDBRANCH   9  15
BRANCH  11  19
ATOM     19  O   UNL     1       4.949  -6.134  22.380  0.00  0.00    -0.506 OA
ATOM     20  H   UNL     1       4.030  -6.066  22.066  0.00  0.00    +0.292 HD
ENDBRANCH  11  19
ENDBRANCH   7  10
ENDBRANCH   1   7
BRANCH   2  21
ATOM     21  O   UNL     1       5.312  -3.053  22.366  0.00  0.00    -0.506 OA
ATOM     22  H   UNL     1       5.245  -4.010  22.521  0.00  0.00    +0.292 HD
ENDBRANCH   2  21
BRANCH   4  23
ATOM     23  C   UNL     1       7.472   0.929  24.373  0.00  0.00    +0.340 C 
ATOM     24  O   UNL     1       8.465   1.446  24.861  0.00  0.00    -0.245 OA
BRANCH  23  25
ATOM     25  O   UNL     1       6.330   1.600  24.030  0.00  0.00    -0.456 OA
BRANCH  25  26
ATOM     26  C   UNL     1       6.076   2.868  24.724  0.00  0.00    +0.198 C 
ATOM     27  C   UNL     1       6.485   4.079  23.843  0.00  0.00    +0.128 C 
ATOM     28  C   UNL     1       5.772   4.094  22.469  0.00  0.00    +0.106 C 
ATOM     29  N   UNL     1       4.463   4.736  22.384  0.00  0.00    -0.314 NA
ATOM     30  H   UNL     1       4.588   5.742  22.254  0.00  0.00    +0.122 HD
ATOM     31  C   UNL     1       3.535   4.519  23.485  0.00  0.00    +0.081 C 
ATOM     32  C   UNL     1       3.546   3.124  24.111  0.00  0.00    +0.019 C 
ATOM     33  C   UNL     1       4.614   2.951  25.197  0.00  0.00    +0.048 C 
BRANCH  27  34
ATOM     34  N   UNL     1       7.946   4.111  23.655  0.00  0.00    -0.304 N 
ATOM     35  H   UNL     1       8.296   3.810  22.757  0.00  0.00    +0.149 HD
ATOM     36  C   UNL     1       8.752   4.901  24.461  0.00  0.00    +0.244 C 
ATOM     37  O   UNL     1       8.328   5.508  25.438  0.00  0.00    -0.270 OA
BRANCH  36  38
ATOM     38  C   UNL     1      10.176   5.061  24.037  0.00  0.00    +0.037 A 
ATOM     39  C   UNL     1      10.938   6.191  24.364  0.00  0.00    +0.016 A 
ATOM     40  C   UNL     1      12.305   6.226  24.060  0.00  0.00    +0.046 A 
ATOM     41  C   UNL     1      12.901   5.140  23.425  0.00  0.00    +0.117 A 
ATOM     42  C   UNL     1      12.143   4.052  23.014  0.00  0.00    +0.046 A 
ATOM     43  C   UNL     1      10.777   4.017  23.317  0.00  0.00    +0.016 A 
BRANCH  41  44
ATOM     44  O   UNL     1      14.251   5.176  23.247  0.00  0.00    -0.507 OA
ATOM     45  H   UNL     1      14.442   5.755  22.489  0.00  0.00    +0.292 HD
ENDBRANCH  41  44
ENDBRANCH  36  38
ENDBRANCH  27  34
ENDBRANCH  25  26
ENDBRANCH  23  25
ENDBRANCH   4  23
BRANCH   6  46
ATOM     46  O   UNL     1       9.191  -3.534  25.204  0.00  0.00    -0.506 OA
ATOM     47  H   UNL     1       9.248  -3.221  26.130  0.00  0.00    +0.292 HD
ENDBRANCH   6  46
TORSDOF 13
ENDMDL
MODEL 6
REMARK VINA RESULT:      -7.5      2.563      8.210
REMARK  Name = 
REMARK  13 active torsions:
REMARK  status: ('A' for Active; 'I' for Inactive)
REMARK    1  A    between atoms: O_1  and  C_2
REMARK    2  A    between atoms: C_2  and  C_4
REMARK    3  A    between atoms: C_8  and  O_9
REMARK    4  A    between atoms: C_10  and  C_11
REMARK    5  A    between atoms: C_11  and  C_13
REMARK    6  A    between atoms: C_14  and  O_15
REMARK    7  A    between atoms: C_17  and  C_21
REMARK    8  A    between atoms: C_19  and  O_20
REMARK    9  A    between atoms: C_21  and  O_23
REMARK   10  A    between atoms: O_23  and  C_24
REMARK   11  A    between atoms: C_31  and  N_33
REMARK   12  A    between atoms: C_34  and  C_36
REMARK   13  A    between atoms: C_39  and  O_40
REMARK                            x       y       z     vdW  Elec       q    Type
REMARK                         _______ _______ _______ _____ _____    ______ ____
ROOT
ATOM      1  C   UNL     1       7.906  -3.318  23.420  0.00  0.00    +0.105 A 
ATOM      2  C   UNL     1       9.175  -2.946  23.885  0.00  0.00    +0.132 A 
ATOM      3  C   UNL     1       9.666  -1.626  23.740  0.00  0.00    +0.061 A 
ATOM      4  C   UNL     1       8.899  -0.640  23.107  0.00  0.00    +0.066 A 
ATOM      5  C   UNL     1       7.607  -0.988  22.682  0.00  0.00    +0.061 A 
ATOM      6  C   UNL     1       7.122  -2.304  22.835  0.00  0.00    +0.132 A 
ENDROOT
BRANCH   1   7
ATOM      7  C   UNL     1       7.429  -4.751  23.404  0.00  0.00    +0.204 C 
ATOM      8  O   UNL     1       7.950  -5.539  22.612  0.00  0.00    -0.286 OA
BRANCH   7  10
ATOM      9  C   UNL     1       6.458  -5.615  25.609  0.00  0.00    +0.073 A 
ATOM     10  C   UNL     1       6.319  -5.299  24.237  0.00  0.00    +0.078 A 
ATOM     11  C   UNL     1       5.121  -5.661  23.596  0.00  0.00    +0.128 A 
ATOM     12  C   UNL     1       4.058  -6.246  24.301  0.00  0.00    +0.046 A 
ATOM     13  C   UNL     1       4.185  -6.525  25.654  0.00  0.00    +0.004 A 
ATOM     14  C   UNL     1       5.380  -6.224  26.299  0.00  0.00    +0.016 A 
BRANCH   9  15
ATOM     15  C   UNL     1       7.634  -5.347  26.481  0.00  0.00    +0.338 C 
ATOM     16  O   UNL     1       7.527  -4.650  27.482  0.00  0.00    -0.245 OA
BRANCH  15  17
ATOM     17  O   UNL     1       8.765  -6.013  26.198  0.00  0.00    -0.477 OA
ATOM     18  H   UNL     1       9.604  -5.591  26.500  0.00  0.00    +0.295 HD
ENDBRANCH  15  17
ENDBRANCH   9  15
BRANCH  11  19
ATOM     19  O   UNL     1       4.997  -5.495  22.241  0.00  0.00    -0.506 OA
ATOM     20  H   UNL     1       4.058  -5.569  22.000  0.00  0.00    +0.292 HD
ENDBRANCH  11  19
ENDBRANCH   7  10
ENDBRANCH   1   7
BRANCH   2  21
ATOM     21  O   UNL     1       9.982  -3.889  24.459  0.00  0.00    -0.506 OA
ATOM     22  H   UNL     1      10.603  -3.459  25.071  0.00  0.00    +0.292 HD
ENDBRANCH   2  21
BRANCH   4  23
ATOM     23  C   UNL     1       9.402   0.757  22.839  0.00  0.00    +0.340 C 
ATOM     24  O   UNL     1      10.087   1.028  21.865  0.00  0.00    -0.245 OA
BRANCH  23  25
ATOM     25  O   UNL     1       9.020   1.654  23.799  0.00  0.00    -0.456 OA
BRANCH  25  26
ATOM     26  C   UNL     1       7.736   2.335  23.593  0.00  0.00    +0.198 C 
ATOM     27  C   UNL     1       6.990   2.538  24.940  0.00  0.00    +0.128 C 
ATOM     28  C   UNL     1       7.826   3.321  25.981  0.00  0.00    +0.106 C 
ATOM     29  N   UNL     1       7.756   4.780  25.957  0.00  0.00    -0.314 NA
ATOM     30  H   UNL     1       6.935   5.088  26.484  0.00  0.00    +0.122 HD
ATOM     31  C   UNL     1       7.744   5.432  24.655  0.00  0.00    +0.081 C 
ATOM     32  C   UNL     1       8.622   4.796  23.576  0.00  0.00    +0.019 C 
ATOM     33  C   UNL     1       7.931   3.653  22.824  0.00  0.00    +0.048 C 
BRANCH  27  34
ATOM     34  N   UNL     1       6.572   1.240  25.499  0.00  0.00    -0.304 N 
ATOM     35  H   UNL     1       7.204   0.803  26.155  0.00  0.00    +0.149 HD
ATOM     36  C   UNL     1       5.241   0.855  25.488  0.00  0.00    +0.244 C 
ATOM     37  O   UNL     1       4.366   1.492  24.912  0.00  0.00    -0.270 OA
BRANCH  36  38
ATOM     38  C   UNL     1       4.884  -0.351  26.296  0.00  0.00    +0.037 A 
ATOM     39  C   UNL     1       4.834  -1.640  25.748  0.00  0.00    +0.016 A 
ATOM     40  C   UNL     1       4.629  -2.748  26.580  0.00  0.00    +0.046 A 
ATOM     41  C   UNL     1       4.467  -2.565  27.950  0.00  0.00    +0.117 A 
ATOM     42  C   UNL     1       4.424  -1.289  28.497  0.00  0.00    +0.046 A 
ATOM     43  C   UNL     1       4.628  -0.181  27.665  0.00  0.00    +0.016 A 
BRANCH  41  44
ATOM     44  O   UNL     1       4.378  -3.677  28.730  0.00  0.00    -0.507 OA
ATOM     45  H   UNL     1       3.568  -4.157  28.483  0.00  0.00    +0.292 HD
ENDBRANCH  41  44
ENDBRANCH  36  38
ENDBRANCH  27  34
ENDBRANCH  25  26
ENDBRANCH  23  25
ENDBRANCH   4  23
BRANCH   6  46
ATOM     46  O   UNL     1       5.846  -2.514  22.378  0.00  0.00    -0.506 OA
ATOM     47  H   UNL     1       5.391  -1.649  22.306  0.00  0.00    +0.292 HD
ENDBRANCH   6  46
TORSDOF 13
ENDMDL
MODEL 7
REMARK VINA RESULT:      -7.5      2.414      7.568
REMARK  Name = 
REMARK  13 active torsions:
REMARK  status: ('A' for Active; 'I' for Inactive)
REMARK    1  A    between atoms: O_1  and  C_2
REMARK    2  A    between atoms: C_2  and  C_4
REMARK    3  A    between atoms: C_8  and  O_9
REMARK    4  A    between atoms: C_10  and  C_11
REMARK    5  A    between atoms: C_11  and  C_13
REMARK    6  A    between atoms: C_14  and  O_15
REMARK    7  A    between atoms: C_17  and  C_21
REMARK    8  A    between atoms: C_19  and  O_20
REMARK    9  A    between atoms: C_21  and  O_23
REMARK   10  A    between atoms: O_23  and  C_24
REMARK   11  A    between atoms: C_31  and  N_33
REMARK   12  A    between atoms: C_34  and  C_36
REMARK   13  A    between atoms: C_39  and  O_40
REMARK                            x       y       z     vdW  Elec       q    Type
REMARK                         _______ _______ _______ _____ _____    ______ ____
ROOT
ATOM      1  C   UNL     1       9.498  -1.007  23.698  0.00  0.00    +0.105 A 
ATOM      2  C   UNL     1       9.341  -0.277  24.885  0.00  0.00    +0.132 A 
ATOM      3  C   UNL     1       9.478   1.132  24.918  0.00  0.00    +0.061 A 
ATOM      4  C   UNL     1       9.792   1.851  23.759  0.00  0.00    +0.066 A 
ATOM      5  C   UNL     1       9.903   1.137  22.555  0.00  0.00    +0.061 A 
ATOM      6  C   UNL     1       9.759  -0.266  22.528  0.00  0.00    +0.132 A 
ENDROOT
BRANCH   1   7
ATOM      7  C   UNL     1       9.530  -2.516  23.664  0.00  0.00    +0.204 C 
ATOM      8  O   UNL     1      10.608  -3.080  23.464  0.00  0.00    -0.286 OA
BRANCH   7  10
ATOM      9  C   UNL     1       8.215  -4.397  24.798  0.00  0.00    +0.073 A 
ATOM     10  C   UNL     1       8.341  -3.407  23.796  0.00  0.00    +0.078 A 
ATOM     11  C   UNL     1       7.363  -3.365  22.786  0.00  0.00    +0.128 A 
ATOM     12  C   UNL     1       6.250  -4.220  22.805  0.00  0.00    +0.046 A 
ATOM     13  C   UNL     1       6.113  -5.168  23.807  0.00  0.00    +0.004 A 
ATOM     14  C   UNL     1       7.095  -5.264  24.788  0.00  0.00    +0.016 A 
BRANCH   9  15
ATOM     15  C   UNL     1       9.133  -4.639  25.944  0.00  0.00    +0.338 C 
ATOM     16  O   UNL     1       8.822  -4.304  27.080  0.00  0.00    -0.245 OA
BRANCH  15  17
ATOM     17  O   UNL     1      10.238  -5.362  25.696  0.00  0.00    -0.477 OA
ATOM     18  H   UNL     1      10.367  -6.162  26.258  0.00  0.00    +0.295 HD
ENDBRANCH  15  17
ENDBRANCH   9  15
BRANCH  11  19
ATOM     19  O   UNL     1       7.516  -2.512  21.725  0.00  0.00    -0.506 OA
ATOM     20  H   UNL     1       8.152  -2.899  21.098  0.00  0.00    +0.292 HD
ENDBRANCH  11  19
ENDBRANCH   7  10
ENDBRANCH   1   7
BRANCH   2  21
ATOM     21  O   UNL     1       9.089  -0.943  26.052  0.00  0.00    -0.506 OA
ATOM     22  H   UNL     1       9.832  -1.535  26.257  0.00  0.00    +0.292 HD
ENDBRANCH   2  21
BRANCH   4  23
ATOM     23  C   UNL     1      10.043   3.339  23.749  0.00  0.00    +0.340 C 
ATOM     24  O   UNL     1      11.102   3.819  23.376  0.00  0.00    -0.245 OA
BRANCH  23  25
ATOM     25  O   UNL     1       8.976   4.062  24.208  0.00  0.00    -0.456 OA
BRANCH  25  26
ATOM     26  C   UNL     1       7.771   4.063  23.370  0.00  0.00    +0.198 C 
ATOM     27  C   UNL     1       6.486   4.104  24.241  0.00  0.00    +0.128 C 
ATOM     28  C   UNL     1       6.446   5.318  25.201  0.00  0.00    +0.106 C 
ATOM     29  N   UNL     1       5.896   6.573  24.695  0.00  0.00    -0.314 NA
ATOM     30  H   UNL     1       4.878   6.555  24.783  0.00  0.00    +0.122 HD
ATOM     31  C   UNL     1       6.241   6.957  23.334  0.00  0.00    +0.081 C 
ATOM     32  C   UNL     1       7.665   6.630  22.881  0.00  0.00    +0.019 C 
ATOM     33  C   UNL     1       7.820   5.205  22.340  0.00  0.00    +0.048 C 
BRANCH  27  34
ATOM     34  N   UNL     1       6.339   2.851  25.002  0.00  0.00    -0.304 N 
ATOM     35  H   UNL     1       6.096   2.938  25.979  0.00  0.00    +0.149 HD
ATOM     36  C   UNL     1       6.105   1.648  24.356  0.00  0.00    +0.244 C 
ATOM     37  O   UNL     1       6.135   1.528  23.136  0.00  0.00    -0.270 OA
BRANCH  36  38
ATOM     38  C   UNL     1       5.721   0.486  25.215  0.00  0.00    +0.037 A 
ATOM     39  C   UNL     1       5.717  -0.833  24.742  0.00  0.00    +0.016 A 
ATOM     40  C   UNL     1       5.483  -1.894  25.627  0.00  0.00    +0.046 A 
ATOM     41  C   UNL     1       5.247  -1.633  26.974  0.00  0.00    +0.117 A 
ATOM     42  C   UNL     1       5.159  -0.328  27.441  0.00  0.00    +0.046 A 
ATOM     43  C   UNL     1       5.392   0.732  26.556  0.00  0.00    +0.016 A 
BRANCH  41  44
ATOM     44  O   UNL     1       5.132  -2.699  27.813  0.00  0.00    -0.507 OA
ATOM     45  H   UNL     1       4.357  -2.553  28.384  0.00  0.00    +0.292 HD
ENDBRANCH  41  44
ENDBRANCH  36  38
ENDBRANCH  27  34
ENDBRANCH  25  26
ENDBRANCH  23  25
ENDBRANCH   4  23
BRANCH   6  46
ATOM     46  O   UNL     1       9.891  -0.844  21.290  0.00  0.00    -0.506 OA
ATOM     47  H   UNL     1      10.033  -0.137  20.627  0.00  0.00    +0.292 HD
ENDBRANCH   6  46
TORSDOF 13
ENDMDL
MODEL 8
REMARK VINA RESULT:      -7.4      2.663      7.622
REMARK  Name = 
REMARK  13 active torsions:
REMARK  status: ('A' for Active; 'I' for Inactive)
REMARK    1  A    between atoms: O_1  and  C_2
REMARK    2  A    between atoms: C_2  and  C_4
REMARK    3  A    between atoms: C_8  and  O_9
REMARK    4  A    between atoms: C_10  and  C_11
REMARK    5  A    between atoms: C_11  and  C_13
REMARK    6  A    between atoms: C_14  and  O_15
REMARK    7  A    between atoms: C_17  and  C_21
REMARK    8  A    between atoms: C_19  and  O_20
REMARK    9  A    between atoms: C_21  and  O_23
REMARK   10  A    between atoms: O_23  and  C_24
REMARK   11  A    between atoms: C_31  and  N_33
REMARK   12  A    between atoms: C_34  and  C_36
REMARK   13  A    between atoms: C_39  and  O_40
REMARK                            x       y       z     vdW  Elec       q    Type
REMARK                         _______ _______ _______ _____ _____    ______ ____
ROOT
ATOM      1  C   UNL     1       9.164  -2.106  24.480  0.00  0.00    +0.105 A 
ATOM      2  C   UNL     1       9.003  -1.243  25.573  0.00  0.00    +0.132 A 
ATOM      3  C   UNL     1       9.195   0.155  25.454  0.00  0.00    +0.061 A 
ATOM      4  C   UNL     1       9.569   0.728  24.233  0.00  0.00    +0.066 A 
ATOM      5  C   UNL     1       9.684  -0.121  23.120  0.00  0.00    +0.061 A 
ATOM      6  C   UNL     1       9.486  -1.511  23.245  0.00  0.00    +0.132 A 
ENDROOT
BRANCH   1   7
ATOM      7  C   UNL     1       9.137  -3.610  24.616  0.00  0.00    +0.204 C 
ATOM      8  O   UNL     1      10.192  -4.234  24.483  0.00  0.00    -0.286 OA
BRANCH   7  10
ATOM      9  C   UNL     1       6.873  -4.562  23.894  0.00  0.00    +0.073 A 
ATOM     10  C   UNL     1       7.914  -4.433  24.843  0.00  0.00    +0.078 A 
ATOM     11  C   UNL     1       7.712  -4.986  26.121  0.00  0.00    +0.128 A 
ATOM     12  C   UNL     1       6.554  -5.715  26.431  0.00  0.00    +0.046 A 
ATOM     13  C   UNL     1       5.549  -5.868  25.487  0.00  0.00    +0.004 A 
ATOM     14  C   UNL     1       5.703  -5.285  24.233  0.00  0.00    +0.016 A 
BRANCH   9  15
ATOM     15  C   UNL     1       6.858  -4.044  22.499  0.00  0.00    +0.338 C 
ATOM     16  O   UNL     1       6.621  -2.865  22.269  0.00  0.00    -0.245 OA
BRANCH  15  17
ATOM     17  O   UNL     1       7.253  -4.889  21.532  0.00  0.00    -0.477 OA
ATOM     18  H   UNL     1       7.120  -5.849  21.715  0.00  0.00    +0.295 HD
ENDBRANCH  15  17
ENDBRANCH   9  15
BRANCH  11  19
ATOM     19  O   UNL     1       8.635  -4.769  27.110  0.00  0.00    -0.506 OA
ATOM     20  H   UNL     1       8.650  -5.541  27.702  0.00  0.00    +0.292 HD
ENDBRANCH  11  19
ENDBRANCH   7  10
ENDBRANCH   1   7
BRANCH   2  21
ATOM     21  O   UNL     1       8.693  -1.763  26.799  0.00  0.00    -0.506 OA
ATOM     22  H   UNL     1       9.168  -1.273  27.491  0.00  0.00    +0.292 HD
ENDBRANCH   2  21
BRANCH   4  23
ATOM     23  C   UNL     1       9.879   2.195  24.065  0.00  0.00    +0.340 C 
ATOM     24  O   UNL     1      10.984   2.595  23.734  0.00  0.00    -0.245 OA
BRANCH  23  25
ATOM     25  O   UNL     1       8.805   3.000  24.335  0.00  0.00    -0.456 OA
BRANCH  25  26
ATOM     26  C   UNL     1       7.624   2.832  23.480  0.00  0.00    +0.198 C 
ATOM     27  C   UNL     1       6.316   3.069  24.283  0.00  0.00    +0.128 C 
ATOM     28  C   UNL     1       6.267   4.459  24.962  0.00  0.00    +0.106 C 
ATOM     29  N   UNL     1       5.750   5.582  24.184  0.00  0.00    -0.314 NA
ATOM     30  H   UNL     1       4.729   5.592  24.243  0.00  0.00    +0.122 HD
ATOM     31  C   UNL     1       6.137   5.665  22.783  0.00  0.00    +0.081 C 
ATOM     32  C   UNL     1       7.568   5.238  22.453  0.00  0.00    +0.019 C 
ATOM     33  C   UNL     1       7.718   3.728  22.232  0.00  0.00    +0.048 C 
BRANCH  27  34
ATOM     34  N   UNL     1       6.130   2.008  25.289  0.00  0.00    -0.304 N 
ATOM     35  H   UNL     1       5.824   2.299  26.207  0.00  0.00    +0.149 HD
ATOM     36  C   UNL     1       5.949   0.688  24.907  0.00  0.00    +0.244 C 
ATOM     37  O   UNL     1       6.058   0.307  23.747  0.00  0.00    -0.270 OA
BRANCH  36  38
ATOM     38  C   UNL     1       5.519  -0.268  25.973  0.00  0.00    +0.037 A 
ATOM     39  C   UNL     1       5.326   0.124  27.305  0.00  0.00    +0.016 A 
ATOM     40  C   UNL     1       4.791  -0.781  28.232  0.00  0.00    +0.046 A 
ATOM     41  C   UNL     1       4.460  -2.071  27.827  0.00  0.00    +0.117 A 
ATOM     42  C   UNL     1       4.728  -2.503  26.535  0.00  0.00    +0.046 A 
ATOM     43  C   UNL     1       5.264  -1.599  25.610  0.00  0.00    +0.016 A 
BRANCH  41  44
ATOM     44  O   UNL     1       3.845  -2.879  28.735  0.00  0.00    -0.507 OA
ATOM     45  H   UNL     1       4.185  -2.656  29.619  0.00  0.00    +0.292 HD
ENDBRANCH  41  44
ENDBRANCH  36  38
ENDBRANCH  27  34
ENDBRANCH  25  26
ENDBRANCH  23  25
ENDBRANCH   4  23
BRANCH   6  46
ATOM     46  O   UNL     1       9.628  -2.229  22.083  0.00  0.00    -0.506 OA
ATOM     47  H   UNL     1      10.544  -2.114  21.753  0.00  0.00    +0.292 HD
ENDBRANCH   6  46
TORSDOF 13
ENDMDL
MODEL 9
REMARK VINA RESULT:      -7.3      3.830      9.329
REMARK  Name = 
REMARK  13 active torsions:
REMARK  status: ('A' for Active; 'I' for Inactive)
REMARK    1  A    between atoms: O_1  and  C_2
REMARK    2  A    between atoms: C_2  and  C_4
REMARK    3  A    between atoms: C_8  and  O_9
REMARK    4  A    between atoms: C_10  and  C_11
REMARK    5  A    between atoms: C_11  and  C_13
REMARK    6  A    between atoms: C_14  and  O_15
REMARK    7  A    between atoms: C_17  and  C_21
REMARK    8  A    between atoms: C_19  and  O_20
REMARK    9  A    between atoms: C_21  and  O_23
REMARK   10  A    between atoms: O_23  and  C_24
REMARK   11  A    between atoms: C_31  and  N_33
REMARK   12  A    between atoms: C_34  and  C_36
REMARK   13  A    between atoms: C_39  and  O_40
REMARK                            x       y       z     vdW  Elec       q    Type
REMARK                         _______ _______ _______ _____ _____    ______ ____
ROOT
ATOM      1  C   UNL     1       6.363  -4.544  26.672  0.00  0.00    +0.105 A 
ATOM      2  C   UNL     1       7.765  -4.563  26.692  0.00  0.00    +0.132 A 
ATOM      3  C   UNL     1       8.528  -3.370  26.650  0.00  0.00    +0.061 A 
ATOM      4  C   UNL     1       7.902  -2.120  26.575  0.00  0.00    +0.066 A 
ATOM      5  C   UNL     1       6.499  -2.087  26.605  0.00  0.00    +0.061 A 
ATOM      6  C   UNL     1       5.746  -3.278  26.652  0.00  0.00    +0.132 A 
ENDROOT
BRANCH   1   7
ATOM      7  C   UNL     1       5.531  -5.797  26.539  0.00  0.00    +0.204 C 
ATOM      8  O   UNL     1       5.598  -6.443  25.491  0.00  0.00    -0.286 OA
BRANCH   7  10
ATOM      9  C   UNL     1       3.165  -6.250  27.407  0.00  0.00    +0.073 A 
ATOM     10  C   UNL     1       4.571  -6.307  27.561  0.00  0.00    +0.078 A 
ATOM     11  C   UNL     1       5.081  -6.725  28.803  0.00  0.00    +0.128 A 
ATOM     12  C   UNL     1       4.234  -7.153  29.838  0.00  0.00    +0.046 A 
ATOM     13  C   UNL     1       2.858  -7.127  29.672  0.00  0.00    +0.004 A 
ATOM     14  C   UNL     1       2.328  -6.666  28.471  0.00  0.00    +0.016 A 
BRANCH   9  15
ATOM     15  C   UNL     1       2.409  -5.822  26.199  0.00  0.00    +0.338 C 
ATOM     16  O   UNL     1       2.038  -4.663  26.068  0.00  0.00    -0.245 OA
BRANCH  15  17
ATOM     17  O   UNL     1       2.282  -6.723  25.211  0.00  0.00    -0.477 OA
ATOM     18  H   UNL     1       1.454  -7.259  25.217  0.00  0.00    +0.295 HD
ENDBRANCH  15  17
ENDBRANCH   9  15
BRANCH  11  19
ATOM     19  O   UNL     1       6.429  -6.668  29.040  0.00  0.00    -0.506 OA
ATOM     20  H   UNL     1       6.594  -6.875  29.976  0.00  0.00    +0.292 HD
ENDBRANCH  11  19
ENDBRANCH   7  10
ENDBRANCH   1   7
BRANCH   2  21
ATOM     21  O   UNL     1       8.420  -5.763  26.709  0.00  0.00    -0.506 OA
ATOM     22  H   UNL     1       9.317  -5.641  27.064  0.00  0.00    +0.292 HD
ENDBRANCH   2  21
BRANCH   4  23
ATOM     23  C   UNL     1       8.659  -0.822  26.434  0.00  0.00    +0.340 C 
ATOM     24  O   UNL     1       9.370  -0.382  27.324  0.00  0.00    -0.245 OA
BRANCH  23  25
ATOM     25  O   UNL     1       8.448  -0.210  25.229  0.00  0.00    -0.456 OA
BRANCH  25  26
ATOM     26  C   UNL     1       9.265  -0.673  24.101  0.00  0.00    +0.198 C 
ATOM     27  C   UNL     1       8.451  -0.661  22.779  0.00  0.00    +0.128 C 
ATOM     28  C   UNL     1       7.858   0.730  22.448  0.00  0.00    +0.106 C 
ATOM     29  N   UNL     1       8.692   1.669  21.702  0.00  0.00    -0.314 NA
ATOM     30  H   UNL     1       8.612   1.471  20.702  0.00  0.00    +0.122 HD
ATOM     31  C   UNL     1      10.103   1.740  22.053  0.00  0.00    +0.081 C 
ATOM     32  C   UNL     1      10.436   1.598  23.539  0.00  0.00    +0.019 C 
ATOM     33  C   UNL     1      10.567   0.141  23.997  0.00  0.00    +0.048 C 
BRANCH  27  34
ATOM     34  N   UNL     1       7.379  -1.671  22.825  0.00  0.00    -0.304 N 
ATOM     35  H   UNL     1       6.478  -1.395  22.458  0.00  0.00    +0.149 HD
ATOM     36  C   UNL     1       7.674  -3.020  22.940  0.00  0.00    +0.244 C 
ATOM     37  O   UNL     1       8.809  -3.440  23.136  0.00  0.00    -0.270 OA
BRANCH  36  38
ATOM     38  C   UNL     1       6.546  -3.976  22.725  0.00  0.00    +0.037 A 
ATOM     39  C   UNL     1       6.726  -5.236  22.137  0.00  0.00    +0.016 A 
ATOM     40  C   UNL     1       5.660  -6.145  22.087  0.00  0.00    +0.046 A 
ATOM     41  C   UNL     1       4.423  -5.789  22.615  0.00  0.00    +0.117 A 
ATOM     42  C   UNL     1       4.203  -4.515  23.120  0.00  0.00    +0.046 A 
ATOM     43  C   UNL     1       5.267  -3.606  23.169  0.00  0.00    +0.016 A 
BRANCH  41  44
ATOM     44  O   UNL     1       3.450  -6.742  22.640  0.00  0.00    -0.507 OA
ATOM     45  H   UNL     1       2.836  -6.531  23.365  0.00  0.00    +0.292 HD
ENDBRANCH  41  44
ENDBRANCH  36  38
ENDBRANCH  27  34
ENDBRANCH  25  26
ENDBRANCH  23  25
ENDBRANCH   4  23
BRANCH   6  46
ATOM     46  O   UNL     1       4.384  -3.109  26.677  0.00  0.00    -0.506 OA
ATOM     47  H   UNL     1       3.972  -3.929  27.021  0.00  0.00    +0.292 HD
ENDBRANCH   6  46
TORSDOF 13
ENDMDL
