MODEL 1
REMARK VINA RESULT:      -6.8      0.000      0.000
REMARK  Name = 
REMARK  4 active torsions:
REMARK  status: ('A' for Active; 'I' for Inactive)
REMARK    1  A    between atoms: C_1  and  C_2
REMARK    2  A    between atoms: C_4  and  C_10
REMARK    3  A    between atoms: C_6  and  C_7
REMARK    4  A    between atoms: C_8  and  O_9
REMARK                            x       y       z     vdW  Elec       q    Type
REMARK                         _______ _______ _______ _____ _____    ______ ____
ROOT
ATOM      1  C   UNL     1       6.070  -6.018  20.928  0.00  0.00    +0.047 C 
ATOM      2  C   UNL     1       6.348  -5.354  22.246  0.00  0.00    -0.008 A 
ATOM      3  C   UNL     1       5.884  -5.900  23.448  0.00  0.00    +0.123 A 
ATOM      4  C   UNL     1       6.145  -5.277  24.679  0.00  0.00    -0.008 A 
ATOM      5  C   UNL     1       5.655  -5.848  25.980  0.00  0.00    +0.047 C 
ATOM      6  C   UNL     1       6.890  -4.081  24.686  0.00  0.00    +0.020 A 
ATOM      7  C   UNL     1       7.367  -3.515  23.496  0.00  0.00    +0.038 A 
ATOM      8  C   UNL     1       7.086  -4.165  22.285  0.00  0.00    +0.020 A 
ENDROOT
BRANCH   7   9
ATOM      9  C   UNL     1       8.146  -2.279  23.454  0.00  0.00    +0.228 A 
ATOM     10  O   UNL     1       8.222  -1.609  22.256  0.00  0.00    -0.435 OA
ATOM     11  C   UNL     1       8.999  -0.520  22.539  0.00  0.00    +0.156 A 
ATOM     12  C   UNL     1       9.350  -0.586  23.876  0.00  0.00    +0.110 A 
ATOM     13  C   UNL     1      10.152   0.422  24.424  0.00  0.00    +0.031 A 
ATOM     14  C   UNL     1      10.568   1.464  23.585  0.00  0.00    +0.002 A 
ATOM     15  C   UNL     1      10.193   1.497  22.235  0.00  0.00    +0.004 A 
ATOM     16  C   UNL     1       9.391   0.494  21.673  0.00  0.00    +0.048 A 
ATOM     17  N   UNL     1       8.805  -1.704  24.445  0.00  0.00    -0.209 NA
ENDBRANCH   7   9
BRANCH   3  18
ATOM     18  O   UNL     1       5.168  -7.064  23.361  0.00  0.00    -0.506 OA
ATOM     19  H   UNL     1       4.438  -7.048  23.997  0.00  0.00    +0.292 HD
ENDBRANCH   3  18
TORSDOF 2
ENDMDL
MODEL 2
REMARK VINA RESULT:      -6.8      0.296      2.062
REMARK  Name = 
REMARK  4 active torsions:
REMARK  status: ('A' for Active; 'I' for Inactive)
REMARK    1  A    between atoms: C_1  and  C_2
REMARK    2  A    between atoms: C_4  and  C_10
REMARK    3  A    between atoms: C_6  and  C_7
REMARK    4  A    between atoms: C_8  and  O_9
REMARK                            x       y       z     vdW  Elec       q    Type
REMARK                         _______ _______ _______ _____ _____    ______ ____
ROOT
ATOM      1  C   UNL     1       5.702  -5.805  25.825  0.00  0.00    +0.047 C 
ATOM      2  C   UNL     1       6.210  -5.213  24.542  0.00  0.00    -0.008 A 
ATOM      3  C   UNL     1       5.936  -5.809  23.306  0.00  0.00    +0.123 A 
ATOM      4  C   UNL     1       6.412  -5.254  22.108  0.00  0.00    -0.008 A 
ATOM      5  C   UNL     1       6.128  -5.879  20.772  0.00  0.00    +0.047 C 
ATOM      6  C   UNL     1       7.179  -4.073  22.170  0.00  0.00    +0.020 A 
ATOM      7  C   UNL     1       7.466  -3.456  23.395  0.00  0.00    +0.038 A 
ATOM      8  C   UNL     1       6.974  -4.040  24.571  0.00  0.00    +0.020 A 
ENDROOT
BRANCH   7   9
ATOM      9  C   UNL     1       8.254  -2.230  23.507  0.00  0.00    +0.228 A 
ATOM     10  O   UNL     1       8.348  -1.424  22.397  0.00  0.00    -0.435 OA
ATOM     11  C   UNL     1       9.129  -0.382  22.813  0.00  0.00    +0.156 A 
ATOM     12  C   UNL     1       9.464  -0.608  24.138  0.00  0.00    +0.110 A 
ATOM     13  C   UNL     1      10.266   0.323  24.809  0.00  0.00    +0.031 A 
ATOM     14  C   UNL     1      10.699   1.453  24.102  0.00  0.00    +0.002 A 
ATOM     15  C   UNL     1      10.340   1.647  22.761  0.00  0.00    +0.004 A 
ATOM     16  C   UNL     1       9.538   0.723  22.076  0.00  0.00    +0.048 A 
ATOM     17  N   UNL     1       8.905  -1.779  24.566  0.00  0.00    -0.209 NA
ENDBRANCH   7   9
BRANCH   3  18
ATOM     18  O   UNL     1       5.184  -6.953  23.326  0.00  0.00    -0.506 OA
ATOM     19  H   UNL     1       5.752  -7.721  23.169  0.00  0.00    +0.292 HD
ENDBRANCH   3  18
TORSDOF 2
ENDMDL
MODEL 3
REMARK VINA RESULT:      -6.7      0.807      1.404
REMARK  Name = 
REMARK  4 active torsions:
REMARK  status: ('A' for Active; 'I' for Inactive)
REMARK    1  A    between atoms: C_1  and  C_2
REMARK    2  A    between atoms: C_4  and  C_10
REMARK    3  A    between atoms: C_6  and  C_7
REMARK    4  A    between atoms: C_8  and  O_9
REMARK                            x       y       z     vdW  Elec       q    Type
REMARK                         _______ _______ _______ _____ _____    ______ ____
ROOT
ATOM      1  C   UNL     1       6.067  -6.018  20.879  0.00  0.00    +0.047 C 
ATOM      2  C   UNL     1       6.376  -5.337  22.181  0.00  0.00    -0.008 A 
ATOM      3  C   UNL     1       5.955  -5.875  23.402  0.00  0.00    +0.123 A 
ATOM      4  C   UNL     1       6.245  -5.236  24.618  0.00  0.00    -0.008 A 
ATOM      5  C   UNL     1       5.802  -5.799  25.939  0.00  0.00    +0.047 C 
ATOM      6  C   UNL     1       6.975  -4.031  24.590  0.00  0.00    +0.020 A 
ATOM      7  C   UNL     1       7.408  -3.471  23.380  0.00  0.00    +0.038 A 
ATOM      8  C   UNL     1       7.099  -4.138  22.185  0.00  0.00    +0.020 A 
ENDROOT
BRANCH   7   9
ATOM      9  C   UNL     1       8.169  -2.226  23.302  0.00  0.00    +0.228 A 
ATOM     10  O   UNL     1       8.743  -1.753  24.458  0.00  0.00    -0.435 OA
ATOM     11  C   UNL     1       9.372  -0.604  24.065  0.00  0.00    +0.156 A 
ATOM     12  C   UNL     1       9.148  -0.443  22.708  0.00  0.00    +0.110 A 
ATOM     13  C   UNL     1       9.692   0.669  22.052  0.00  0.00    +0.031 A 
ATOM     14  C   UNL     1      10.446   1.577  22.807  0.00  0.00    +0.002 A 
ATOM     15  C   UNL     1      10.650   1.381  24.180  0.00  0.00    +0.004 A 
ATOM     16  C   UNL     1      10.111   0.274  24.849  0.00  0.00    +0.048 A 
ATOM     17  N   UNL     1       8.386  -1.475  22.236  0.00  0.00    -0.209 NA
ENDBRANCH   7   9
BRANCH   3  18
ATOM     18  O   UNL     1       5.253  -7.049  23.349  0.00  0.00    -0.506 OA
ATOM     19  H   UNL     1       4.689  -7.129  24.132  0.00  0.00    +0.292 HD
ENDBRANCH   3  18
TORSDOF 2
ENDMDL
MODEL 4
REMARK VINA RESULT:      -6.1      2.041      6.847
REMARK  Name = 
REMARK  4 active torsions:
REMARK  status: ('A' for Active; 'I' for Inactive)
REMARK    1  A    between atoms: C_1  and  C_2
REMARK    2  A    between atoms: C_4  and  C_10
REMARK    3  A    between atoms: C_6  and  C_7
REMARK    4  A    between atoms: C_8  and  O_9
REMARK                            x       y       z     vdW  Elec       q    Type
REMARK                         _______ _______ _______ _____ _____    ______ ____
ROOT
ATOM      1  C   UNL     1      11.100   0.691  24.508  0.00  0.00    +0.047 C 
ATOM      2  C   UNL     1       9.775   0.683  23.802  0.00  0.00    -0.008 A 
ATOM      3  C   UNL     1       9.223   1.857  23.275  0.00  0.00    +0.123 A 
ATOM      4  C   UNL     1       7.984   1.846  22.616  0.00  0.00    -0.008 A 
ATOM      5  C   UNL     1       7.376   3.096  22.044  0.00  0.00    +0.047 C 
ATOM      6  C   UNL     1       7.296   0.623  22.490  0.00  0.00    +0.020 A 
ATOM      7  C   UNL     1       7.827  -0.567  23.008  0.00  0.00    +0.038 A 
ATOM      8  C   UNL     1       9.068  -0.518  23.662  0.00  0.00    +0.020 A 
ENDROOT
BRANCH   7   9
ATOM      9  C   UNL     1       7.152  -1.858  22.899  0.00  0.00    +0.228 A 
ATOM     10  O   UNL     1       7.850  -2.901  22.336  0.00  0.00    -0.435 OA
ATOM     11  C   UNL     1       6.969  -3.945  22.379  0.00  0.00    +0.156 A 
ATOM     12  C   UNL     1       5.797  -3.487  22.958  0.00  0.00    +0.110 A 
ATOM     13  C   UNL     1       4.723  -4.371  23.122  0.00  0.00    +0.031 A 
ATOM     14  C   UNL     1       4.885  -5.693  22.688  0.00  0.00    +0.002 A 
ATOM     15  C   UNL     1       6.085  -6.121  22.105  0.00  0.00    +0.004 A 
ATOM     16  C   UNL     1       7.168  -5.247  21.934  0.00  0.00    +0.048 A 
ATOM     17  N   UNL     1       5.925  -2.166  23.283  0.00  0.00    -0.209 NA
ENDBRANCH   7   9
BRANCH   3  18
ATOM     18  O   UNL     1       9.950   3.005  23.435  0.00  0.00    -0.506 OA
ATOM     19  H   UNL     1      10.582   3.097  22.707  0.00  0.00    +0.292 HD
ENDBRANCH   3  18
TORSDOF 2
ENDMDL
MODEL 5
REMARK VINA RESULT:      -6.1      1.910      3.289
REMARK  Name = 
REMARK  4 active torsions:
REMARK  status: ('A' for Active; 'I' for Inactive)
REMARK    1  A    between atoms: C_1  and  C_2
REMARK    2  A    between atoms: C_4  and  C_10
REMARK    3  A    between atoms: C_6  and  C_7
REMARK    4  A    between atoms: C_8  and  O_9
REMARK                            x       y       z     vdW  Elec       q    Type
REMARK                         _______ _______ _______ _____ _____    ______ ____
ROOT
ATOM      1  C   UNL     1       6.429  -5.897  28.485  0.00  0.00    +0.047 C 
ATOM      2  C   UNL     1       6.184  -5.684  27.019  0.00  0.00    -0.008 A 
ATOM      3  C   UNL     1       5.207  -6.412  26.331  0.00  0.00    +0.123 A 
ATOM      4  C   UNL     1       4.980  -6.210  24.961  0.00  0.00    -0.008 A 
ATOM      5  C   UNL     1       3.935  -6.982  24.205  0.00  0.00    +0.047 C 
ATOM      6  C   UNL     1       5.758  -5.252  24.281  0.00  0.00    +0.020 A 
ATOM      7  C   UNL     1       6.742  -4.509  24.948  0.00  0.00    +0.038 A 
ATOM      8  C   UNL     1       6.942  -4.739  26.317  0.00  0.00    +0.020 A 
ENDROOT
BRANCH   7   9
ATOM      9  C   UNL     1       7.571  -3.505  24.285  0.00  0.00    +0.228 A 
ATOM     10  O   UNL     1       8.317  -2.665  25.079  0.00  0.00    -0.435 OA
ATOM     11  C   UNL     1       8.969  -1.862  24.184  0.00  0.00    +0.156 A 
ATOM     12  C   UNL     1       8.588  -2.252  22.911  0.00  0.00    +0.110 A 
ATOM     13  C   UNL     1       9.120  -1.582  21.802  0.00  0.00    +0.031 A 
ATOM     14  C   UNL     1      10.023  -0.536  22.034  0.00  0.00    +0.002 A 
ATOM     15  C   UNL     1      10.384  -0.169  23.338  0.00  0.00    +0.004 A 
ATOM     16  C   UNL     1       9.859  -0.830  24.457  0.00  0.00    +0.048 A 
ATOM     17  N   UNL     1       7.704  -3.291  22.988  0.00  0.00    -0.209 NA
ENDBRANCH   7   9
BRANCH   3  18
ATOM     18  O   UNL     1       4.489  -7.323  27.059  0.00  0.00    -0.506 OA
ATOM     19  H   UNL     1       4.856  -7.389  27.952  0.00  0.00    +0.292 HD
ENDBRANCH   3  18
TORSDOF 2
ENDMDL
MODEL 6
REMARK VINA RESULT:      -6.0      2.384      6.838
REMARK  Name = 
REMARK  4 active torsions:
REMARK  status: ('A' for Active; 'I' for Inactive)
REMARK    1  A    between atoms: C_1  and  C_2
REMARK    2  A    between atoms: C_4  and  C_10
REMARK    3  A    between atoms: C_6  and  C_7
REMARK    4  A    between atoms: C_8  and  O_9
REMARK                            x       y       z     vdW  Elec       q    Type
REMARK                         _______ _______ _______ _____ _____    ______ ____
ROOT
ATOM      1  C   UNL     1       6.019   3.252  22.257  0.00  0.00    +0.047 C 
ATOM      2  C   UNL     1       7.290   2.556  22.650  0.00  0.00    -0.008 A 
ATOM      3  C   UNL     1       8.481   3.267  22.840  0.00  0.00    +0.123 A 
ATOM      4  C   UNL     1       9.668   2.614  23.208  0.00  0.00    -0.008 A 
ATOM      5  C   UNL     1      10.955   3.360  23.417  0.00  0.00    +0.047 C 
ATOM      6  C   UNL     1       9.642   1.216  23.385  0.00  0.00    +0.020 A 
ATOM      7  C   UNL     1       8.463   0.482  23.202  0.00  0.00    +0.038 A 
ATOM      8  C   UNL     1       7.296   1.168  22.834  0.00  0.00    +0.020 A 
ENDROOT
BRANCH   7   9
ATOM      9  C   UNL     1       8.388  -0.967  23.377  0.00  0.00    +0.228 A 
ATOM     10  O   UNL     1       7.647  -1.686  22.468  0.00  0.00    -0.435 OA
ATOM     11  C   UNL     1       7.773  -2.979  22.893  0.00  0.00    +0.156 A 
ATOM     12  C   UNL     1       8.574  -2.978  24.023  0.00  0.00    +0.110 A 
ATOM     13  C   UNL     1       8.862  -4.191  24.659  0.00  0.00    +0.031 A 
ATOM     14  C   UNL     1       8.322  -5.365  24.117  0.00  0.00    +0.002 A 
ATOM     15  C   UNL     1       7.515  -5.328  22.972  0.00  0.00    +0.004 A 
ATOM     16  C   UNL     1       7.217  -4.120  22.326  0.00  0.00    +0.048 A 
ATOM     17  N   UNL     1       8.956  -1.700  24.320  0.00  0.00    -0.209 NA
ENDBRANCH   7   9
BRANCH   3  18
ATOM     18  O   UNL     1       8.427   4.622  22.652  0.00  0.00    -0.506 OA
ATOM     19  H   UNL     1       7.773   5.010  23.250  0.00  0.00    +0.292 HD
ENDBRANCH   3  18
TORSDOF 2
ENDMDL
MODEL 7
REMARK VINA RESULT:      -5.9      2.009      6.712
REMARK  Name = 
REMARK  4 active torsions:
REMARK  status: ('A' for Active; 'I' for Inactive)
REMARK    1  A    between atoms: C_1  and  C_2
REMARK    2  A    between atoms: C_4  and  C_10
REMARK    3  A    between atoms: C_6  and  C_7
REMARK    4  A    between atoms: C_8  and  O_9
REMARK                            x       y       z     vdW  Elec       q    Type
REMARK                         _______ _______ _______ _____ _____    ______ ____
ROOT
ATOM      1  C   UNL     1       7.308   2.793  22.151  0.00  0.00    +0.047 C 
ATOM      2  C   UNL     1       8.063   1.618  22.701  0.00  0.00    -0.008 A 
ATOM      3  C   UNL     1       9.295   1.780  23.346  0.00  0.00    +0.123 A 
ATOM      4  C   UNL     1       9.998   0.680  23.860  0.00  0.00    -0.008 A 
ATOM      5  C   UNL     1      11.321   0.835  24.555  0.00  0.00    +0.047 C 
ATOM      6  C   UNL     1       9.439  -0.606  23.716  0.00  0.00    +0.020 A 
ATOM      7  C   UNL     1       8.207  -0.795  23.075  0.00  0.00    +0.038 A 
ATOM      8  C   UNL     1       7.533   0.328  22.574  0.00  0.00    +0.020 A 
ENDROOT
BRANCH   7   9
ATOM      9  C   UNL     1       7.587  -2.108  22.905  0.00  0.00    +0.228 A 
ATOM     10  O   UNL     1       6.243  -2.222  23.173  0.00  0.00    -0.435 OA
ATOM     11  C   UNL     1       5.970  -3.538  22.924  0.00  0.00    +0.156 A 
ATOM     12  C   UNL     1       7.148  -4.146  22.524  0.00  0.00    +0.110 A 
ATOM     13  C   UNL     1       7.141  -5.509  22.204  0.00  0.00    +0.031 A 
ATOM     14  C   UNL     1       5.928  -6.204  22.304  0.00  0.00    +0.002 A 
ATOM     15  C   UNL     1       4.756  -5.555  22.714  0.00  0.00    +0.004 A 
ATOM     16  C   UNL     1       4.749  -4.191  23.038  0.00  0.00    +0.048 A 
ATOM     17  N   UNL     1       8.164  -3.231  22.516  0.00  0.00    -0.209 NA
ENDBRANCH   7   9
BRANCH   3  18
ATOM     18  O   UNL     1       9.772   3.059  23.449  0.00  0.00    -0.506 OA
ATOM     19  H   UNL     1      10.126   3.206  24.338  0.00  0.00    +0.292 HD
ENDBRANCH   3  18
TORSDOF 2
ENDMDL
MODEL 8
REMARK VINA RESULT:      -5.9      2.444      6.888
REMARK  Name = 
REMARK  4 active torsions:
REMARK  status: ('A' for Active; 'I' for Inactive)
REMARK    1  A    between atoms: C_1  and  C_2
REMARK    2  A    between atoms: C_4  and  C_10
REMARK    3  A    between atoms: C_6  and  C_7
REMARK    4  A    between atoms: C_8  and  O_9
REMARK                            x       y       z     vdW  Elec       q    Type
REMARK                         _______ _______ _______ _____ _____    ______ ____
ROOT
ATOM      1  C   UNL     1      10.906   3.290  23.382  0.00  0.00    +0.047 C 
ATOM      2  C   UNL     1       9.587   2.596  23.196  0.00  0.00    -0.008 A 
ATOM      3  C   UNL     1       8.431   3.308  22.854  0.00  0.00    +0.123 A 
ATOM      4  C   UNL     1       7.200   2.657  22.682  0.00  0.00    -0.008 A 
ATOM      5  C   UNL     1       5.949   3.404  22.315  0.00  0.00    +0.047 C 
ATOM      6  C   UNL     1       7.144   1.260  22.859  0.00  0.00    +0.020 A 
ATOM      7  C   UNL     1       8.287   0.524  23.201  0.00  0.00    +0.038 A 
ATOM      8  C   UNL     1       9.500   1.209  23.366  0.00  0.00    +0.020 A 
ENDROOT
BRANCH   7   9
ATOM      9  C   UNL     1       8.278  -0.925  23.392  0.00  0.00    +0.228 A 
ATOM     10  O   UNL     1       7.543  -1.683  22.512  0.00  0.00    -0.435 OA
ATOM     11  C   UNL     1       7.734  -2.966  22.945  0.00  0.00    +0.156 A 
ATOM     12  C   UNL     1       8.564  -2.919  24.052  0.00  0.00    +0.110 A 
ATOM     13  C   UNL     1       8.920  -4.112  24.692  0.00  0.00    +0.031 A 
ATOM     14  C   UNL     1       8.415  -5.313  24.177  0.00  0.00    +0.002 A 
ATOM     15  C   UNL     1       7.576  -5.322  23.054  0.00  0.00    +0.004 A 
ATOM     16  C   UNL     1       7.210  -4.134  22.404  0.00  0.00    +0.048 A 
ATOM     17  N   UNL     1       8.902  -1.623  24.326  0.00  0.00    -0.209 NA
ENDBRANCH   7   9
BRANCH   3  18
ATOM     18  O   UNL     1       8.565   4.661  22.697  0.00  0.00    -0.506 OA
ATOM     19  H   UNL     1       8.387   4.903  21.777  0.00  0.00    +0.292 HD
ENDBRANCH   3  18
TORSDOF 2
ENDMDL
MODEL 9
REMARK VINA RESULT:      -5.9      2.110      2.915
REMARK  Name = 
REMARK  4 active torsions:
REMARK  status: ('A' for Active; 'I' for Inactive)
REMARK    1  A    between atoms: C_1  and  C_2
REMARK    2  A    between atoms: C_4  and  C_10
REMARK    3  A    between atoms: C_6  and  C_7
REMARK    4  A    between atoms: C_8  and  O_9
REMARK                            x       y       z     vdW  Elec       q    Type
REMARK                         _______ _______ _______ _____ _____    ______ ____
ROOT
ATOM      1  C   UNL     1       6.196  -3.673  21.727  0.00  0.00    +0.047 C 
ATOM      2  C   UNL     1       7.240  -3.252  22.720  0.00  0.00    -0.008 A 
ATOM      3  C   UNL     1       7.943  -4.194  23.481  0.00  0.00    +0.123 A 
ATOM      4  C   UNL     1       8.918  -3.797  24.409  0.00  0.00    -0.008 A 
ATOM      5  C   UNL     1       9.683  -4.793  25.235  0.00  0.00    +0.047 C 
ATOM      6  C   UNL     1       9.183  -2.422  24.564  0.00  0.00    +0.020 A 
ATOM      7  C   UNL     1       8.494  -1.459  23.813  0.00  0.00    +0.038 A 
ATOM      8  C   UNL     1       7.526  -1.893  22.896  0.00  0.00    +0.020 A 
ENDROOT
BRANCH   7   9
ATOM      9  C   UNL     1       8.737  -0.024  23.938  0.00  0.00    +0.228 A 
ATOM     10  O   UNL     1       9.892   0.481  23.388  0.00  0.00    -0.435 OA
ATOM     11  C   UNL     1       9.828   1.819  23.662  0.00  0.00    +0.156 A 
ATOM     12  C   UNL     1       8.653   2.052  24.356  0.00  0.00    +0.110 A 
ATOM     13  C   UNL     1       8.344   3.357  24.760  0.00  0.00    +0.031 A 
ATOM     14  C   UNL     1       9.247   4.379  24.439  0.00  0.00    +0.002 A 
ATOM     15  C   UNL     1      10.428   4.104  23.735  0.00  0.00    +0.004 A 
ATOM     16  C   UNL     1      10.751   2.803  23.326  0.00  0.00    +0.048 A 
ATOM     17  N   UNL     1       7.971   0.880  24.525  0.00  0.00    -0.209 NA
ENDBRANCH   7   9
BRANCH   3  18
ATOM     18  O   UNL     1       7.631  -5.510  23.274  0.00  0.00    -0.506 OA
ATOM     19  H   UNL     1       6.756  -5.702  23.641  0.00  0.00    +0.292 HD
ENDBRANCH   3  18
TORSDOF 2
ENDMDL
