MODEL 1
REMARK VINA RESULT:      -7.2      0.000      0.000
REMARK  Name = 
REMARK  5 active torsions:
REMARK  status: ('A' for Active; 'I' for Inactive)
REMARK    1  A    between atoms: C_2  and  C_4
REMARK    2  A    between atoms: C_7  and  N_8
REMARK    3  A    between atoms: C_11  and  O_12
REMARK    4  A    between atoms: O_12  and  C_13
REMARK    5  A    between atoms: C_13  and  C_14
REMARK                            x       y       z     vdW  Elec       q    Type
REMARK                         _______ _______ _______ _____ _____    ______ ____
ROOT
ATOM      1  N   UNL     1       9.244  -3.389  24.479  0.00  0.00    -0.283 N 
ATOM      2  H   UNL     1       9.833  -3.752  25.215  0.00  0.00    +0.155 HD
ATOM      3  C   UNL     1       7.975  -3.974  24.560  0.00  0.00    +0.225 A 
ATOM      4  N   UNL     1       7.083  -3.645  23.605  0.00  0.00    -0.195 NA
ATOM      5  C   UNL     1       5.901  -4.234  23.772  0.00  0.00    +0.167 A 
ATOM      6  C   UNL     1       5.524  -5.100  24.774  0.00  0.00    +0.169 A 
ATOM      7  N   UNL     1       4.204  -5.469  24.610  0.00  0.00    -0.229 NA
ATOM      8  C   UNL     1       3.801  -4.830  23.531  0.00  0.00    +0.199 A 
ATOM      9  C   UNL     1       6.518  -5.402  25.707  0.00  0.00    +0.248 A 
ATOM     10  N   UNL     1       4.805  -4.084  22.983  0.00  0.00    -0.329 N 
ATOM     11  H   UNL     1       4.762  -3.516  22.147  0.00  0.00    +0.168 HD
ATOM     12  N   UNL     1       7.752  -4.837  25.583  0.00  0.00    -0.177 NA
ENDROOT
BRANCH   1  16
ATOM     13  C   UNL     1      10.104   0.584  23.290  0.00  0.00    +0.037 A 
ATOM     14  C   UNL     1       9.750   0.292  24.612  0.00  0.00    +0.015 A 
ATOM     15  C   UNL     1       9.476  -1.029  24.993  0.00  0.00    +0.024 A 
ATOM     16  C   UNL     1       9.561  -2.078  24.068  0.00  0.00    +0.034 A 
ATOM     17  C   UNL     1       9.986  -1.773  22.765  0.00  0.00    +0.024 A 
ATOM     18  C   UNL     1      10.252  -0.457  22.375  0.00  0.00    +0.015 A 
BRANCH  13  22
ATOM     19  N   UNL     1       9.849   2.272  21.563  0.00  0.00    -0.325 N 
ATOM     20  H   UNL     1       9.603   1.549  20.902  0.00  0.00    +0.145 HD
ATOM     21  H   UNL     1      10.117   3.174  21.190  0.00  0.00    +0.145 HD
ATOM     22  C   UNL     1      10.303   1.978  22.819  0.00  0.00    +0.242 C 
ATOM     23  O   UNL     1      10.903   2.810  23.488  0.00  0.00    -0.270 OA
ENDBRANCH  13  22
ENDBRANCH   1  16
BRANCH   9  24
ATOM     24  O   UNL     1       6.269  -6.338  26.693  0.00  0.00    -0.475 OA
BRANCH  24  25
ATOM     25  C   UNL     1       6.412  -5.825  28.019  0.00  0.00    +0.234 C 
BRANCH  25  26
ATOM     26  C   UNL     1       5.368  -6.514  28.932  0.00  0.00    +0.027 C 
ATOM     27  C   UNL     1       3.985  -6.692  28.275  0.00  0.00    +0.007 C 
ATOM     28  C   UNL     1       3.160  -5.407  28.203  0.00  0.00    +0.000 C 
ATOM     29  C   UNL     1       3.076  -4.694  29.549  0.00  0.00    +0.000 C 
ATOM     30  C   UNL     1       4.454  -4.475  30.164  0.00  0.00    +0.000 C 
ATOM     31  C   UNL     1       5.224  -5.788  30.278  0.00  0.00    +0.007 C 
ENDBRANCH  25  26
ENDBRANCH  24  25
ENDBRANCH   9  24
TORSDOF 5
ENDMDL
MODEL 2
REMARK VINA RESULT:      -7.1      2.948      4.161
REMARK  Name = 
REMARK  5 active torsions:
REMARK  status: ('A' for Active; 'I' for Inactive)
REMARK    1  A    between atoms: C_2  and  C_4
REMARK    2  A    between atoms: C_7  and  N_8
REMARK    3  A    between atoms: C_11  and  O_12
REMARK    4  A    between atoms: O_12  and  C_13
REMARK    5  A    between atoms: C_13  and  C_14
REMARK                            x       y       z     vdW  Elec       q    Type
REMARK                         _______ _______ _______ _____ _____    ______ ____
ROOT
ATOM      1  N   UNL     1       7.462  -0.407  22.949  0.00  0.00    -0.283 N 
ATOM      2  H   UNL     1       6.812  -0.333  22.180  0.00  0.00    +0.155 HD
ATOM      3  C   UNL     1       7.720  -1.756  23.219  0.00  0.00    +0.225 A 
ATOM      4  N   UNL     1       8.522  -2.032  24.267  0.00  0.00    -0.195 NA
ATOM      5  C   UNL     1       8.725  -3.336  24.437  0.00  0.00    +0.167 A 
ATOM      6  C   UNL     1       8.220  -4.374  23.685  0.00  0.00    +0.169 A 
ATOM      7  N   UNL     1       8.687  -5.580  24.167  0.00  0.00    -0.229 NA
ATOM      8  C   UNL     1       9.460  -5.265  25.186  0.00  0.00    +0.199 A 
ATOM      9  C   UNL     1       7.381  -3.997  22.634  0.00  0.00    +0.248 A 
ATOM     10  N   UNL     1       9.496  -3.916  25.394  0.00  0.00    -0.329 N 
ATOM     11  H   UNL     1       9.999  -3.419  26.118  0.00  0.00    +0.168 HD
ATOM     12  N   UNL     1       7.128  -2.675  22.416  0.00  0.00    -0.177 NA
ENDROOT
BRANCH   1  16
ATOM     13  C   UNL     1      10.055   2.919  23.333  0.00  0.00    +0.037 A 
ATOM     14  C   UNL     1       9.120   2.622  24.331  0.00  0.00    +0.015 A 
ATOM     15  C   UNL     1       8.273   1.513  24.193  0.00  0.00    +0.024 A 
ATOM     16  C   UNL     1       8.354   0.679  23.069  0.00  0.00    +0.034 A 
ATOM     17  C   UNL     1       9.346   0.955  22.115  0.00  0.00    +0.024 A 
ATOM     18  C   UNL     1      10.188   2.064  22.240  0.00  0.00    +0.015 A 
BRANCH  13  22
ATOM     19  N   UNL     1      10.246   5.340  23.395  0.00  0.00    -0.325 N 
ATOM     20  H   UNL     1       9.270   5.417  23.149  0.00  0.00    +0.145 HD
ATOM     21  H   UNL     1      10.822   6.165  23.283  0.00  0.00    +0.145 HD
ATOM     22  C   UNL     1      10.901   4.139  23.387  0.00  0.00    +0.242 C 
ATOM     23  O   UNL     1      12.124   4.083  23.359  0.00  0.00    -0.270 OA
ENDBRANCH  13  22
ENDBRANCH   1  16
BRANCH   9  24
ATOM     24  O   UNL     1       6.746  -4.968  21.884  0.00  0.00    -0.475 OA
BRANCH  24  25
ATOM     25  C   UNL     1       6.041  -5.931  22.670  0.00  0.00    +0.234 C 
BRANCH  25  26
ATOM     26  C   UNL     1       5.143  -5.181  23.684  0.00  0.00    +0.027 C 
ATOM     27  C   UNL     1       5.103  -5.828  25.082  0.00  0.00    +0.007 C 
ATOM     28  C   UNL     1       4.239  -7.086  25.160  0.00  0.00    +0.000 C 
ATOM     29  C   UNL     1       2.844  -6.870  24.580  0.00  0.00    +0.000 C 
ATOM     30  C   UNL     1       2.898  -6.280  23.175  0.00  0.00    +0.000 C 
ATOM     31  C   UNL     1       3.716  -4.991  23.147  0.00  0.00    +0.007 C 
ENDBRANCH  25  26
ENDBRANCH  24  25
ENDBRANCH   9  24
TORSDOF 5
ENDMDL
MODEL 3
REMARK VINA RESULT:      -7.1      1.737      2.529
REMARK  Name = 
REMARK  5 active torsions:
REMARK  status: ('A' for Active; 'I' for Inactive)
REMARK    1  A    between atoms: C_2  and  C_4
REMARK    2  A    between atoms: C_7  and  N_8
REMARK    3  A    between atoms: C_11  and  O_12
REMARK    4  A    between atoms: O_12  and  C_13
REMARK    5  A    between atoms: C_13  and  C_14
REMARK                            x       y       z     vdW  Elec       q    Type
REMARK                         _______ _______ _______ _____ _____    ______ ____
ROOT
ATOM      1  N   UNL     1       9.982  -1.334  24.225  0.00  0.00    -0.283 N 
ATOM      2  H   UNL     1      10.528  -1.533  25.052  0.00  0.00    +0.155 HD
ATOM      3  C   UNL     1       9.110  -2.399  23.969  0.00  0.00    +0.225 A 
ATOM      4  N   UNL     1       8.354  -2.321  22.857  0.00  0.00    -0.195 NA
ATOM      5  C   UNL     1       7.545  -3.367  22.704  0.00  0.00    +0.167 A 
ATOM      6  C   UNL     1       7.415  -4.461  23.530  0.00  0.00    +0.169 A 
ATOM      7  N   UNL     1       6.448  -5.315  23.039  0.00  0.00    -0.229 NA
ATOM      8  C   UNL     1       6.006  -4.736  21.941  0.00  0.00    +0.199 A 
ATOM      9  C   UNL     1       8.254  -4.469  24.646  0.00  0.00    +0.248 A 
ATOM     10  N   UNL     1       6.658  -3.562  21.693  0.00  0.00    -0.329 N 
ATOM     11  H   UNL     1       6.519  -2.936  20.910  0.00  0.00    +0.168 HD
ATOM     12  N   UNL     1       9.111  -3.430  24.851  0.00  0.00    -0.177 NA
ENDROOT
BRANCH   1  16
ATOM     13  C   UNL     1       9.197   2.771  23.542  0.00  0.00    +0.037 A 
ATOM     14  C   UNL     1       8.803   2.156  24.735  0.00  0.00    +0.015 A 
ATOM     15  C   UNL     1       9.076   0.797  24.950  0.00  0.00    +0.024 A 
ATOM     16  C   UNL     1       9.756   0.038  23.988  0.00  0.00    +0.034 A 
ATOM     17  C   UNL     1      10.204   0.691  22.830  0.00  0.00    +0.024 A 
ATOM     18  C   UNL     1       9.928   2.044  22.604  0.00  0.00    +0.015 A 
BRANCH  13  22
ATOM     19  N   UNL     1       7.893   4.370  22.260  0.00  0.00    -0.325 N 
ATOM     20  H   UNL     1       7.615   3.629  21.633  0.00  0.00    +0.145 HD
ATOM     21  H   UNL     1       7.760   5.322  21.946  0.00  0.00    +0.145 HD
ATOM     22  C   UNL     1       8.840   4.178  23.228  0.00  0.00    +0.242 C 
ATOM     23  O   UNL     1       9.409   5.126  23.757  0.00  0.00    -0.270 OA
ENDBRANCH  13  22
ENDBRANCH   1  16
BRANCH   9  24
ATOM     24  O   UNL     1       8.271  -5.570  25.482  0.00  0.00    -0.475 OA
BRANCH  24  25
ATOM     25  C   UNL     1       7.688  -5.326  26.764  0.00  0.00    +0.234 C 
BRANCH  25  26
ATOM     26  C   UNL     1       6.192  -4.979  26.569  0.00  0.00    +0.027 C 
ATOM     27  C   UNL     1       5.614  -4.065  27.668  0.00  0.00    +0.007 C 
ATOM     28  C   UNL     1       5.335  -4.781  28.989  0.00  0.00    +0.000 C 
ATOM     29  C   UNL     1       4.513  -6.053  28.799  0.00  0.00    +0.000 C 
ATOM     30  C   UNL     1       5.125  -6.974  27.749  0.00  0.00    +0.000 C 
ATOM     31  C   UNL     1       5.330  -6.242  26.424  0.00  0.00    +0.007 C 
ENDBRANCH  25  26
ENDBRANCH  24  25
ENDBRANCH   9  24
TORSDOF 5
ENDMDL
MODEL 4
REMARK VINA RESULT:      -7.0      2.782      8.425
REMARK  Name = 
REMARK  5 active torsions:
REMARK  status: ('A' for Active; 'I' for Inactive)
REMARK    1  A    between atoms: C_2  and  C_4
REMARK    2  A    between atoms: C_7  and  N_8
REMARK    3  A    between atoms: C_11  and  O_12
REMARK    4  A    between atoms: O_12  and  C_13
REMARK    5  A    between atoms: C_13  and  C_14
REMARK                            x       y       z     vdW  Elec       q    Type
REMARK                         _______ _______ _______ _____ _____    ______ ____
ROOT
ATOM      1  N   UNL     1       7.804  -4.249  25.583  0.00  0.00    -0.283 N 
ATOM      2  H   UNL     1       8.664  -4.448  25.091  0.00  0.00    +0.155 HD
ATOM      3  C   UNL     1       7.752  -2.887  25.906  0.00  0.00    +0.225 A 
ATOM      4  N   UNL     1       6.693  -2.466  26.627  0.00  0.00    -0.195 NA
ATOM      5  C   UNL     1       6.719  -1.158  26.872  0.00  0.00    +0.167 A 
ATOM      6  C   UNL     1       7.673  -0.245  26.481  0.00  0.00    +0.169 A 
ATOM      7  N   UNL     1       7.323   1.020  26.910  0.00  0.00    -0.229 NA
ATOM      8  C   UNL     1       6.177   0.862  27.541  0.00  0.00    +0.199 A 
ATOM      9  C   UNL     1       8.745  -0.773  25.759  0.00  0.00    +0.248 A 
ATOM     10  N   UNL     1       5.786  -0.446  27.557  0.00  0.00    -0.329 N 
ATOM     11  H   UNL     1       4.957  -0.834  27.988  0.00  0.00    +0.168 HD
ATOM     12  N   UNL     1       8.779  -2.108  25.485  0.00  0.00    -0.177 NA
ENDROOT
BRANCH   1  16
ATOM     13  C   UNL     1       4.526  -6.704  24.508  0.00  0.00    +0.037 A 
ATOM     14  C   UNL     1       5.262  -6.025  23.531  0.00  0.00    +0.015 A 
ATOM     15  C   UNL     1       6.349  -5.221  23.901  0.00  0.00    +0.024 A 
ATOM     16  C   UNL     1       6.726  -5.093  25.245  0.00  0.00    +0.034 A 
ATOM     17  C   UNL     1       6.019  -5.838  26.201  0.00  0.00    +0.024 A 
ATOM     18  C   UNL     1       4.927  -6.635  25.841  0.00  0.00    +0.015 A 
BRANCH  13  22
ATOM     19  N   UNL     1       2.614  -7.090  23.061  0.00  0.00    -0.325 N 
ATOM     20  H   UNL     1       2.774  -6.195  22.621  0.00  0.00    +0.145 HD
ATOM     21  H   UNL     1       1.710  -7.524  22.919  0.00  0.00    +0.145 HD
ATOM     22  C   UNL     1       3.307  -7.483  24.172  0.00  0.00    +0.242 C 
ATOM     23  O   UNL     1       2.899  -8.391  24.887  0.00  0.00    -0.270 OA
ENDBRANCH  13  22
ENDBRANCH   1  16
BRANCH   9  24
ATOM     24  O   UNL     1       9.803   0.044  25.408  0.00  0.00    -0.475 OA
BRANCH  24  25
ATOM     25  C   UNL     1      10.090   0.040  24.008  0.00  0.00    +0.234 C 
BRANCH  25  26
ATOM     26  C   UNL     1      10.281   1.503  23.537  0.00  0.00    +0.027 C 
ATOM     27  C   UNL     1       9.349   2.511  24.238  0.00  0.00    +0.007 C 
ATOM     28  C   UNL     1       7.906   2.477  23.735  0.00  0.00    +0.000 C 
ATOM     29  C   UNL     1       7.818   2.565  22.214  0.00  0.00    +0.000 C 
ATOM     30  C   UNL     1       8.702   1.526  21.533  0.00  0.00    +0.000 C 
ATOM     31  C   UNL     1      10.148   1.631  22.012  0.00  0.00    +0.007 C 
ENDBRANCH  25  26
ENDBRANCH  24  25
ENDBRANCH   9  24
TORSDOF 5
ENDMDL
MODEL 5
REMARK VINA RESULT:      -6.9      3.547      5.722
REMARK  Name = 
REMARK  5 active torsions:
REMARK  status: ('A' for Active; 'I' for Inactive)
REMARK    1  A    between atoms: C_2  and  C_4
REMARK    2  A    between atoms: C_7  and  N_8
REMARK    3  A    between atoms: C_11  and  O_12
REMARK    4  A    between atoms: O_12  and  C_13
REMARK    5  A    between atoms: C_13  and  C_14
REMARK                            x       y       z     vdW  Elec       q    Type
REMARK                         _______ _______ _______ _____ _____    ______ ____
ROOT
ATOM      1  N   UNL     1       7.922   2.563  23.385  0.00  0.00    -0.283 N 
ATOM      2  H   UNL     1       7.401   2.636  22.522  0.00  0.00    +0.155 HD
ATOM      3  C   UNL     1       7.795   1.268  23.901  0.00  0.00    +0.225 A 
ATOM      4  N   UNL     1       8.379   1.020  25.091  0.00  0.00    -0.195 NA
ATOM      5  C   UNL     1       8.221  -0.239  25.495  0.00  0.00    +0.167 A 
ATOM      6  C   UNL     1       7.555  -1.256  24.848  0.00  0.00    +0.169 A 
ATOM      7  N   UNL     1       7.642  -2.422  25.581  0.00  0.00    -0.229 NA
ATOM      8  C   UNL     1       8.352  -2.105  26.645  0.00  0.00    +0.199 A 
ATOM      9  C   UNL     1       6.963  -0.904  23.634  0.00  0.00    +0.248 A 
ATOM     10  N   UNL     1       8.707  -0.786  26.639  0.00  0.00    -0.329 N 
ATOM     11  H   UNL     1       9.237  -0.290  27.345  0.00  0.00    +0.168 HD
ATOM     12  N   UNL     1       7.081   0.374  23.172  0.00  0.00    -0.177 NA
ENDROOT
BRANCH   1  16
ATOM     13  C   UNL     1      11.336   5.048  23.696  0.00  0.00    +0.037 A 
ATOM     14  C   UNL     1      11.457   3.711  23.301  0.00  0.00    +0.015 A 
ATOM     15  C   UNL     1      10.317   2.902  23.196  0.00  0.00    +0.024 A 
ATOM     16  C   UNL     1       9.042   3.415  23.468  0.00  0.00    +0.034 A 
ATOM     17  C   UNL     1       8.936   4.776  23.794  0.00  0.00    +0.024 A 
ATOM     18  C   UNL     1      10.069   5.588  23.910  0.00  0.00    +0.015 A 
BRANCH  13  22
ATOM     19  N   UNL     1      13.483   5.901  22.944  0.00  0.00    -0.325 N 
ATOM     20  H   UNL     1      13.508   5.188  22.229  0.00  0.00    +0.145 HD
ATOM     21  H   UNL     1      14.351   6.371  23.165  0.00  0.00    +0.145 HD
ATOM     22  C   UNL     1      12.524   5.912  23.919  0.00  0.00    +0.242 C 
ATOM     23  O   UNL     1      12.676   6.553  24.952  0.00  0.00    -0.270 OA
ENDBRANCH  13  22
ENDBRANCH   1  16
BRANCH   9  24
ATOM     24  O   UNL     1       6.188  -1.826  22.957  0.00  0.00    -0.475 OA
BRANCH  24  25
ATOM     25  C   UNL     1       6.941  -2.697  22.111  0.00  0.00    +0.234 C 
BRANCH  25  26
ATOM     26  C   UNL     1       6.152  -4.016  21.929  0.00  0.00    +0.027 C 
ATOM     27  C   UNL     1       4.878  -4.106  22.792  0.00  0.00    +0.007 C 
ATOM     28  C   UNL     1       5.145  -4.402  24.267  0.00  0.00    +0.000 C 
ATOM     29  C   UNL     1       6.064  -5.605  24.462  0.00  0.00    +0.000 C 
ATOM     30  C   UNL     1       7.346  -5.479  23.645  0.00  0.00    +0.000 C 
ATOM     31  C   UNL     1       7.040  -5.247  22.167  0.00  0.00    +0.007 C 
ENDBRANCH  25  26
ENDBRANCH  24  25
ENDBRANCH   9  24
TORSDOF 5
ENDMDL
MODEL 6
REMARK VINA RESULT:      -6.8      1.289      1.812
REMARK  Name = 
REMARK  5 active torsions:
REMARK  status: ('A' for Active; 'I' for Inactive)
REMARK    1  A    between atoms: C_2  and  C_4
REMARK    2  A    between atoms: C_7  and  N_8
REMARK    3  A    between atoms: C_11  and  O_12
REMARK    4  A    between atoms: O_12  and  C_13
REMARK    5  A    between atoms: C_13  and  C_14
REMARK                            x       y       z     vdW  Elec       q    Type
REMARK                         _______ _______ _______ _____ _____    ______ ____
ROOT
ATOM      1  N   UNL     1       8.520  -2.440  25.514  0.00  0.00    -0.283 N 
ATOM      2  H   UNL     1       8.267  -2.375  26.490  0.00  0.00    +0.155 HD
ATOM      3  C   UNL     1       7.759  -3.439  24.896  0.00  0.00    +0.225 A 
ATOM      4  N   UNL     1       8.021  -3.700  23.600  0.00  0.00    -0.195 NA
ATOM      5  C   UNL     1       7.240  -4.651  23.093  0.00  0.00    +0.167 A 
ATOM      6  C   UNL     1       6.243  -5.354  23.732  0.00  0.00    +0.169 A 
ATOM      7  N   UNL     1       5.645  -6.235  22.853  0.00  0.00    -0.229 NA
ATOM      8  C   UNL     1       6.272  -6.054  21.708  0.00  0.00    +0.199 A 
ATOM      9  C   UNL     1       6.056  -5.035  25.078  0.00  0.00    +0.248 A 
ATOM     10  N   UNL     1       7.258  -5.115  21.816  0.00  0.00    -0.329 N 
ATOM     11  H   UNL     1       7.893  -4.806  21.092  0.00  0.00    +0.168 HD
ATOM     12  N   UNL     1       6.833  -4.076  25.657  0.00  0.00    -0.177 NA
ENDROOT
BRANCH   1  16
ATOM     13  C   UNL     1       9.785   1.212  23.782  0.00  0.00    +0.037 A 
ATOM     14  C   UNL     1       8.750   1.186  24.724  0.00  0.00    +0.015 A 
ATOM     15  C   UNL     1       8.347  -0.029  25.294  0.00  0.00    +0.024 A 
ATOM     16  C   UNL     1       8.975  -1.232  24.946  0.00  0.00    +0.034 A 
ATOM     17  C   UNL     1      10.057  -1.176  24.053  0.00  0.00    +0.024 A 
ATOM     18  C   UNL     1      10.460   0.032  23.472  0.00  0.00    +0.015 A 
BRANCH  13  22
ATOM     19  N   UNL     1      10.294   2.385  21.717  0.00  0.00    -0.325 N 
ATOM     20  H   UNL     1      10.341   1.499  21.234  0.00  0.00    +0.145 HD
ATOM     21  H   UNL     1      10.701   3.189  21.258  0.00  0.00    +0.145 HD
ATOM     22  C   UNL     1      10.177   2.459  23.078  0.00  0.00    +0.242 C 
ATOM     23  O   UNL     1      10.448   3.489  23.682  0.00  0.00    -0.270 OA
ENDBRANCH  13  22
ENDBRANCH   1  16
BRANCH   9  24
ATOM     24  O   UNL     1       5.149  -5.754  25.833  0.00  0.00    -0.475 OA
BRANCH  24  25
ATOM     25  C   UNL     1       4.505  -4.980  26.847  0.00  0.00    +0.234 C 
BRANCH  25  26
ATOM     26  C   UNL     1       3.976  -5.939  27.941  0.00  0.00    +0.027 C 
ATOM     27  C   UNL     1       3.453  -5.222  29.201  0.00  0.00    +0.007 C 
ATOM     28  C   UNL     1       4.556  -4.693  30.117  0.00  0.00    +0.000 C 
ATOM     29  C   UNL     1       5.600  -5.756  30.445  0.00  0.00    +0.000 C 
ATOM     30  C   UNL     1       6.150  -6.420  29.187  0.00  0.00    +0.000 C 
ATOM     31  C   UNL     1       5.025  -6.993  28.328  0.00  0.00    +0.007 C 
ENDBRANCH  25  26
ENDBRANCH  24  25
ENDBRANCH   9  24
TORSDOF 5
ENDMDL
MODEL 7
REMARK VINA RESULT:      -6.5      2.680      3.571
REMARK  Name = 
REMARK  5 active torsions:
REMARK  status: ('A' for Active; 'I' for Inactive)
REMARK    1  A    between atoms: C_2  and  C_4
REMARK    2  A    between atoms: C_7  and  N_8
REMARK    3  A    between atoms: C_11  and  O_12
REMARK    4  A    between atoms: O_12  and  C_13
REMARK    5  A    between atoms: C_13  and  C_14
REMARK                            x       y       z     vdW  Elec       q    Type
REMARK                         _______ _______ _______ _____ _____    ______ ____
ROOT
ATOM      1  N   UNL     1       7.750  -2.117  25.422  0.00  0.00    -0.283 N 
ATOM      2  H   UNL     1       7.286  -1.939  26.302  0.00  0.00    +0.155 HD
ATOM      3  C   UNL     1       7.070  -3.124  24.727  0.00  0.00    +0.225 A 
ATOM      4  N   UNL     1       7.601  -3.530  23.557  0.00  0.00    -0.195 NA
ATOM      5  C   UNL     1       6.879  -4.476  22.959  0.00  0.00    +0.167 A 
ATOM      6  C   UNL     1       5.707  -5.048  23.400  0.00  0.00    +0.169 A 
ATOM      7  N   UNL     1       5.255  -5.974  22.481  0.00  0.00    -0.229 NA
ATOM      8  C   UNL     1       6.141  -5.948  21.507  0.00  0.00    +0.199 A 
ATOM      9  C   UNL     1       5.243  -4.584  24.633  0.00  0.00    +0.248 A 
ATOM     10  N   UNL     1       7.151  -5.067  21.766  0.00  0.00    -0.329 N 
ATOM     11  H   UNL     1       7.960  -4.872  21.190  0.00  0.00    +0.168 HD
ATOM     12  N   UNL     1       5.944  -3.622  25.297  0.00  0.00    -0.177 NA
ENDROOT
BRANCH   1  16
ATOM     13  C   UNL     1       9.706   1.225  23.708  0.00  0.00    +0.037 A 
ATOM     14  C   UNL     1       8.316   1.213  23.869  0.00  0.00    +0.015 A 
ATOM     15  C   UNL     1       7.683   0.103  24.445  0.00  0.00    +0.024 A 
ATOM     16  C   UNL     1       8.425  -1.004  24.880  0.00  0.00    +0.034 A 
ATOM     17  C   UNL     1       9.823  -0.943  24.773  0.00  0.00    +0.024 A 
ATOM     18  C   UNL     1      10.461   0.157  24.192  0.00  0.00    +0.015 A 
BRANCH  13  22
ATOM     19  N   UNL     1      10.320   2.354  21.647  0.00  0.00    -0.325 N 
ATOM     20  H   UNL     1      10.000   1.554  21.121  0.00  0.00    +0.145 HD
ATOM     21  H   UNL     1      10.916   3.019  21.170  0.00  0.00    +0.145 HD
ATOM     22  C   UNL     1      10.408   2.333  23.012  0.00  0.00    +0.242 C 
ATOM     23  O   UNL     1      11.088   3.153  23.617  0.00  0.00    -0.270 OA
ENDBRANCH  13  22
ENDBRANCH   1  16
BRANCH   9  24
ATOM     24  O   UNL     1       4.129  -5.166  25.208  0.00  0.00    -0.475 OA
BRANCH  24  25
ATOM     25  C   UNL     1       2.906  -4.497  24.895  0.00  0.00    +0.234 C 
BRANCH  25  26
ATOM     26  C   UNL     1       1.731  -5.477  25.131  0.00  0.00    +0.027 C 
ATOM     27  C   UNL     1       2.164  -6.949  25.277  0.00  0.00    +0.007 C 
ATOM     28  C   UNL     1       2.535  -7.622  23.955  0.00  0.00    +0.000 C 
ATOM     29  C   UNL     1       1.462  -7.436  22.887  0.00  0.00    +0.000 C 
ATOM     30  C   UNL     1       1.081  -5.969  22.714  0.00  0.00    +0.000 C 
ATOM     31  C   UNL     1       0.655  -5.347  24.042  0.00  0.00    +0.007 C 
ENDBRANCH  25  26
ENDBRANCH  24  25
ENDBRANCH   9  24
TORSDOF 5
ENDMDL
MODEL 8
REMARK VINA RESULT:      -6.5      1.141      1.606
REMARK  Name = 
REMARK  5 active torsions:
REMARK  status: ('A' for Active; 'I' for Inactive)
REMARK    1  A    between atoms: C_2  and  C_4
REMARK    2  A    between atoms: C_7  and  N_8
REMARK    3  A    between atoms: C_11  and  O_12
REMARK    4  A    between atoms: O_12  and  C_13
REMARK    5  A    between atoms: C_13  and  C_14
REMARK                            x       y       z     vdW  Elec       q    Type
REMARK                         _______ _______ _______ _____ _____    ______ ____
ROOT
ATOM      1  N   UNL     1       9.218  -3.080  25.066  0.00  0.00    -0.283 N 
ATOM      2  H   UNL     1       9.443  -3.157  26.048  0.00  0.00    +0.155 HD
ATOM      3  C   UNL     1       8.146  -3.927  24.761  0.00  0.00    +0.225 A 
ATOM      4  N   UNL     1       7.762  -3.994  23.471  0.00  0.00    -0.195 NA
ATOM      5  C   UNL     1       6.727  -4.809  23.278  0.00  0.00    +0.167 A 
ATOM      6  C   UNL     1       6.049  -5.550  24.221  0.00  0.00    +0.169 A 
ATOM      7  N   UNL     1       5.018  -6.247  23.625  0.00  0.00    -0.229 NA
ATOM      8  C   UNL     1       5.078  -5.922  22.349  0.00  0.00    +0.199 A 
ATOM      9  C   UNL     1       6.530  -5.437  25.527  0.00  0.00    +0.248 A 
ATOM     10  N   UNL     1       6.111  -5.067  22.095  0.00  0.00    -0.329 N 
ATOM     11  H   UNL     1       6.383  -4.682  21.199  0.00  0.00    +0.168 HD
ATOM     12  N   UNL     1       7.593  -4.625  25.785  0.00  0.00    -0.177 NA
ENDROOT
BRANCH   1  16
ATOM     13  C   UNL     1       9.995   0.725  23.377  0.00  0.00    +0.037 A 
ATOM     14  C   UNL     1       9.495   0.608  24.679  0.00  0.00    +0.015 A 
ATOM     15  C   UNL     1       9.249  -0.659  25.227  0.00  0.00    +0.024 A 
ATOM     16  C   UNL     1       9.510  -1.824  24.494  0.00  0.00    +0.034 A 
ATOM     17  C   UNL     1      10.078  -1.686  23.218  0.00  0.00    +0.024 A 
ATOM     18  C   UNL     1      10.317  -0.426  22.660  0.00  0.00    +0.015 A 
BRANCH  13  22
ATOM     19  N   UNL     1       9.716   2.158  21.436  0.00  0.00    -0.325 N 
ATOM     20  H   UNL     1       9.480   1.348  20.881  0.00  0.00    +0.145 HD
ATOM     21  H   UNL     1       9.970   3.004  20.943  0.00  0.00    +0.145 HD
ATOM     22  C   UNL     1      10.174   2.045  22.720  0.00  0.00    +0.242 C 
ATOM     23  O   UNL     1      10.762   2.969  23.268  0.00  0.00    -0.270 OA
ENDBRANCH  13  22
ENDBRANCH   1  16
BRANCH   9  24
ATOM     24  O   UNL     1       5.981  -6.217  26.528  0.00  0.00    -0.475 OA
BRANCH  24  25
ATOM     25  C   UNL     1       4.646  -5.846  26.876  0.00  0.00    +0.234 C 
BRANCH  25  26
ATOM     26  C   UNL     1       4.667  -4.414  27.463  0.00  0.00    +0.027 C 
ATOM     27  C   UNL     1       4.599  -4.367  29.002  0.00  0.00    +0.007 C 
ATOM     28  C   UNL     1       3.207  -4.642  29.571  0.00  0.00    +0.000 C 
ATOM     29  C   UNL     1       2.131  -3.781  28.916  0.00  0.00    +0.000 C 
ATOM     30  C   UNL     1       2.174  -3.878  27.395  0.00  0.00    +0.000 C 
ATOM     31  C   UNL     1       3.562  -3.536  26.857  0.00  0.00    +0.007 C 
ENDBRANCH  25  26
ENDBRANCH  24  25
ENDBRANCH   9  24
TORSDOF 5
ENDMDL
MODEL 9
REMARK VINA RESULT:      -6.4      3.917      5.752
REMARK  Name = 
REMARK  5 active torsions:
REMARK  status: ('A' for Active; 'I' for Inactive)
REMARK    1  A    between atoms: C_2  and  C_4
REMARK    2  A    between atoms: C_7  and  N_8
REMARK    3  A    between atoms: C_11  and  O_12
REMARK    4  A    between atoms: O_12  and  C_13
REMARK    5  A    between atoms: C_13  and  C_14
REMARK                            x       y       z     vdW  Elec       q    Type
REMARK                         _______ _______ _______ _____ _____    ______ ____
ROOT
ATOM      1  N   UNL     1       7.924   2.333  23.088  0.00  0.00    -0.283 N 
ATOM      2  H   UNL     1       7.893   1.935  22.160  0.00  0.00    +0.155 HD
ATOM      3  C   UNL     1       7.301   1.465  23.992  0.00  0.00    +0.225 A 
ATOM      4  N   UNL     1       7.197   1.879  25.271  0.00  0.00    -0.195 NA
ATOM      5  C   UNL     1       6.608   0.984  26.060  0.00  0.00    +0.167 A 
ATOM      6  C   UNL     1       6.122  -0.257  25.714  0.00  0.00    +0.169 A 
ATOM      7  N   UNL     1       5.609  -0.894  26.826  0.00  0.00    -0.229 NA
ATOM      8  C   UNL     1       5.792  -0.047  27.819  0.00  0.00    +0.199 A 
ATOM      9  C   UNL     1       6.252  -0.594  24.365  0.00  0.00    +0.248 A 
ATOM     10  N   UNL     1       6.378   1.111  27.394  0.00  0.00    -0.329 N 
ATOM     11  H   UNL     1       6.610   1.923  27.951  0.00  0.00    +0.168 HD
ATOM     12  N   UNL     1       6.838   0.287  23.505  0.00  0.00    -0.177 NA
ENDROOT
BRANCH   1  16
ATOM     13  C   UNL     1      11.193   4.943  23.745  0.00  0.00    +0.037 A 
ATOM     14  C   UNL     1       9.877   5.387  23.917  0.00  0.00    +0.015 A 
ATOM     15  C   UNL     1       8.805   4.509  23.702  0.00  0.00    +0.024 A 
ATOM     16  C   UNL     1       9.028   3.177  23.328  0.00  0.00    +0.034 A 
ATOM     17  C   UNL     1      10.356   2.734  23.230  0.00  0.00    +0.024 A 
ATOM     18  C   UNL     1      11.431   3.605  23.432  0.00  0.00    +0.015 A 
BRANCH  13  22
ATOM     19  N   UNL     1      13.421   5.610  23.043  0.00  0.00    -0.325 N 
ATOM     20  H   UNL     1      13.523   4.731  22.556  0.00  0.00    +0.145 HD
ATOM     21  H   UNL     1      14.262   6.142  23.227  0.00  0.00    +0.145 HD
ATOM     22  C   UNL     1      12.354   5.862  23.861  0.00  0.00    +0.242 C 
ATOM     23  O   UNL     1      12.390   6.762  24.691  0.00  0.00    -0.270 OA
ENDBRANCH  13  22
ENDBRANCH   1  16
BRANCH   9  24
ATOM     24  O   UNL     1       5.706  -1.775  23.899  0.00  0.00    -0.475 OA
BRANCH  24  25
ATOM     25  C   UNL     1       6.649  -2.620  23.238  0.00  0.00    +0.234 C 
BRANCH  25  26
ATOM     26  C   UNL     1       6.751  -3.954  24.018  0.00  0.00    +0.027 C 
ATOM     27  C   UNL     1       7.762  -4.952  23.420  0.00  0.00    +0.007 C 
ATOM     28  C   UNL     1       7.265  -5.661  22.161  0.00  0.00    +0.000 C 
ATOM     29  C   UNL     1       5.882  -6.277  22.347  0.00  0.00    +0.000 C 
ATOM     30  C   UNL     1       4.877  -5.265  22.887  0.00  0.00    +0.000 C 
ATOM     31  C   UNL     1       5.377  -4.624  24.179  0.00  0.00    +0.007 C 
ENDBRANCH  25  26
ENDBRANCH  24  25
ENDBRANCH   9  24
TORSDOF 5
ENDMDL
