MODEL 1
REMARK VINA RESULT:      -5.3      0.000      0.000
REMARK  Name = 
REMARK  2 active torsions:
REMARK  status: ('A' for Active; 'I' for Inactive)
REMARK    1  A    between atoms: C_1  and  C_2
REMARK    2  A    between atoms: C_9  and  O_10
REMARK                            x       y       z     vdW  Elec       q    Type
REMARK                         _______ _______ _______ _____ _____    ______ ____
ROOT
ATOM      1  C   UNL     1       8.898  -4.906  24.972  0.00  0.00    +0.086 C 
ATOM      2  C   UNL     1       9.020  -3.413  24.872  0.00  0.00    +0.107 A 
ATOM      3  N   UNL     1       8.696  -2.721  26.006  0.00  0.00    -0.311 N 
ATOM      4  H   UNL     1       8.366  -3.199  26.832  0.00  0.00    +0.170 HD
ATOM      5  C   UNL     1       8.769  -1.356  26.092  0.00  0.00    +0.259 A 
ATOM      6  O   UNL     1       8.447  -0.750  27.109  0.00  0.00    -0.267 OA
ATOM      7  C   UNL     1       9.260  -0.664  24.888  0.00  0.00    +0.068 A 
ATOM      8  C   UNL     1       9.434   0.725  24.884  0.00  0.00    +0.015 A 
ATOM      9  C   UNL     1       9.912   1.354  23.736  0.00  0.00    +0.004 A 
ATOM     10  C   UNL     1      10.193   0.599  22.596  0.00  0.00    +0.047 A 
ATOM     11  C   UNL     1      10.005  -0.787  22.613  0.00  0.00    +0.143 A 
ATOM     12  C   UNL     1       9.550  -1.446  23.766  0.00  0.00    +0.119 A 
ATOM     13  N   UNL     1       9.416  -2.850  23.781  0.00  0.00    -0.230 NA
ENDROOT
BRANCH  11  14
ATOM     14  O   UNL     1      10.272  -1.519  21.485  0.00  0.00    -0.505 OA
ATOM     15  H   UNL     1       9.458  -1.949  21.182  0.00  0.00    +0.292 HD
ENDBRANCH  11  14
TORSDOF 1
ENDMDL
MODEL 2
REMARK VINA RESULT:      -5.2      2.602      3.390
REMARK  Name = 
REMARK  2 active torsions:
REMARK  status: ('A' for Active; 'I' for Inactive)
REMARK    1  A    between atoms: C_1  and  C_2
REMARK    2  A    between atoms: C_9  and  O_10
REMARK                            x       y       z     vdW  Elec       q    Type
REMARK                         _______ _______ _______ _____ _____    ______ ____
ROOT
ATOM      1  C   UNL     1       6.338  -3.472  23.480  0.00  0.00    +0.086 C 
ATOM      2  C   UNL     1       7.254  -2.330  23.153  0.00  0.00    +0.107 A 
ATOM      3  N   UNL     1       8.574  -2.657  23.014  0.00  0.00    -0.311 N 
ATOM      4  H   UNL     1       8.895  -3.603  23.160  0.00  0.00    +0.170 HD
ATOM      5  C   UNL     1       9.540  -1.739  22.699  0.00  0.00    +0.259 A 
ATOM      6  O   UNL     1      10.725  -2.046  22.606  0.00  0.00    -0.267 OA
ATOM      7  C   UNL     1       9.068  -0.362  22.476  0.00  0.00    +0.068 A 
ATOM      8  C   UNL     1       9.958   0.645  22.089  0.00  0.00    +0.015 A 
ATOM      9  C   UNL     1       9.483   1.937  21.873  0.00  0.00    +0.004 A 
ATOM     10  C   UNL     1       8.130   2.222  22.066  0.00  0.00    +0.047 A 
ATOM     11  C   UNL     1       7.254   1.206  22.462  0.00  0.00    +0.143 A 
ATOM     12  C   UNL     1       7.704  -0.109  22.659  0.00  0.00    +0.119 A 
ATOM     13  N   UNL     1       6.797  -1.132  23.009  0.00  0.00    -0.230 NA
ENDROOT
BRANCH  11  14
ATOM     14  O   UNL     1       5.929   1.496  22.660  0.00  0.00    -0.505 OA
ATOM     15  H   UNL     1       5.843   2.411  22.969  0.00  0.00    +0.292 HD
ENDBRANCH  11  14
TORSDOF 1
ENDMDL
MODEL 3
REMARK VINA RESULT:      -5.1      1.285      1.361
REMARK  Name = 
REMARK  2 active torsions:
REMARK  status: ('A' for Active; 'I' for Inactive)
REMARK    1  A    between atoms: C_1  and  C_2
REMARK    2  A    between atoms: C_9  and  O_10
REMARK                            x       y       z     vdW  Elec       q    Type
REMARK                         _______ _______ _______ _____ _____    ______ ____
ROOT
ATOM      1  C   UNL     1       7.457  -5.278  23.249  0.00  0.00    +0.086 C 
ATOM      2  C   UNL     1       7.961  -3.963  23.768  0.00  0.00    +0.107 A 
ATOM      3  N   UNL     1       7.553  -3.634  25.030  0.00  0.00    -0.311 N 
ATOM      4  H   UNL     1       6.927  -4.234  25.548  0.00  0.00    +0.170 HD
ATOM      5  C   UNL     1       7.935  -2.480  25.661  0.00  0.00    +0.259 A 
ATOM      6  O   UNL     1       7.536  -2.189  26.784  0.00  0.00    -0.267 OA
ATOM      7  C   UNL     1       8.856  -1.613  24.906  0.00  0.00    +0.068 A 
ATOM      8  C   UNL     1       9.360  -0.439  25.476  0.00  0.00    +0.015 A 
ATOM      9  C   UNL     1      10.239   0.357  24.745  0.00  0.00    +0.004 A 
ATOM     10  C   UNL     1      10.593  -0.009  23.445  0.00  0.00    +0.047 A 
ATOM     11  C   UNL     1      10.073  -1.181  22.886  0.00  0.00    +0.143 A 
ATOM     12  C   UNL     1       9.207  -2.013  23.613  0.00  0.00    +0.119 A 
ATOM     13  N   UNL     1       8.733  -3.218  23.051  0.00  0.00    -0.230 NA
ENDROOT
BRANCH  11  14
ATOM     14  O   UNL     1      10.417  -1.529  21.605  0.00  0.00    -0.505 OA
ATOM     15  H   UNL     1      11.368  -1.708  21.566  0.00  0.00    +0.292 HD
ENDBRANCH  11  14
TORSDOF 1
ENDMDL
MODEL 4
REMARK VINA RESULT:      -5.1      4.257      5.963
REMARK  Name = 
REMARK  2 active torsions:
REMARK  status: ('A' for Active; 'I' for Inactive)
REMARK    1  A    between atoms: C_1  and  C_2
REMARK    2  A    between atoms: C_9  and  O_10
REMARK                            x       y       z     vdW  Elec       q    Type
REMARK                         _______ _______ _______ _____ _____    ______ ____
ROOT
ATOM      1  C   UNL     1       3.584  -7.369  25.129  0.00  0.00    +0.086 C 
ATOM      2  C   UNL     1       4.840  -6.580  24.908  0.00  0.00    +0.107 A 
ATOM      3  N   UNL     1       5.008  -6.086  23.644  0.00  0.00    -0.311 N 
ATOM      4  H   UNL     1       4.337  -6.281  22.915  0.00  0.00    +0.170 HD
ATOM      5  C   UNL     1       6.089  -5.330  23.277  0.00  0.00    +0.259 A 
ATOM      6  O   UNL     1       6.237  -4.919  22.130  0.00  0.00    -0.267 OA
ATOM      7  C   UNL     1       7.060  -5.039  24.345  0.00  0.00    +0.068 A 
ATOM      8  C   UNL     1       8.171  -4.224  24.099  0.00  0.00    +0.015 A 
ATOM      9  C   UNL     1       9.068  -3.955  25.131  0.00  0.00    +0.004 A 
ATOM     10  C   UNL     1       8.865  -4.516  26.393  0.00  0.00    +0.047 A 
ATOM     11  C   UNL     1       7.755  -5.337  26.621  0.00  0.00    +0.143 A 
ATOM     12  C   UNL     1       6.823  -5.600  25.605  0.00  0.00    +0.119 A 
ATOM     13  N   UNL     1       5.682  -6.387  25.866  0.00  0.00    -0.230 NA
ENDROOT
BRANCH  11  14
ATOM     14  O   UNL     1       7.569  -5.893  27.860  0.00  0.00    -0.505 OA
ATOM     15  H   UNL     1       8.350  -5.722  28.408  0.00  0.00    +0.292 HD
ENDBRANCH  11  14
TORSDOF 1
ENDMDL
MODEL 5
REMARK VINA RESULT:      -5.1      2.450      3.828
REMARK  Name = 
REMARK  2 active torsions:
REMARK  status: ('A' for Active; 'I' for Inactive)
REMARK    1  A    between atoms: C_1  and  C_2
REMARK    2  A    between atoms: C_9  and  O_10
REMARK                            x       y       z     vdW  Elec       q    Type
REMARK                         _______ _______ _______ _____ _____    ______ ____
ROOT
ATOM      1  C   UNL     1       7.579   3.505  25.771  0.00  0.00    +0.086 C 
ATOM      2  C   UNL     1       8.176   2.252  25.201  0.00  0.00    +0.107 A 
ATOM      3  N   UNL     1       8.275   1.201  26.069  0.00  0.00    -0.311 N 
ATOM      4  H   UNL     1       7.993   1.294  27.034  0.00  0.00    +0.170 HD
ATOM      5  C   UNL     1       8.779  -0.019  25.707  0.00  0.00    +0.259 A 
ATOM      6  O   UNL     1       8.887  -0.943  26.508  0.00  0.00    -0.267 OA
ATOM      7  C   UNL     1       9.181  -0.154  24.296  0.00  0.00    +0.068 A 
ATOM      8  C   UNL     1       9.652  -1.375  23.801  0.00  0.00    +0.015 A 
ATOM      9  C   UNL     1      10.014  -1.478  22.459  0.00  0.00    +0.004 A 
ATOM     10  C   UNL     1       9.925  -0.361  21.627  0.00  0.00    +0.047 A 
ATOM     11  C   UNL     1       9.462   0.855  22.140  0.00  0.00    +0.143 A 
ATOM     12  C   UNL     1       9.066   0.977  23.481  0.00  0.00    +0.119 A 
ATOM     13  N   UNL     1       8.551   2.197  23.968  0.00  0.00    -0.230 NA
ENDROOT
BRANCH  11  14
ATOM     14  O   UNL     1       9.388   1.950  21.319  0.00  0.00    -0.505 OA
ATOM     15  H   UNL     1       9.346   2.754  21.859  0.00  0.00    +0.292 HD
ENDBRANCH  11  14
TORSDOF 1
ENDMDL
MODEL 6
REMARK VINA RESULT:      -5.1      2.532      4.562
REMARK  Name = 
REMARK  2 active torsions:
REMARK  status: ('A' for Active; 'I' for Inactive)
REMARK    1  A    between atoms: C_1  and  C_2
REMARK    2  A    between atoms: C_9  and  O_10
REMARK                            x       y       z     vdW  Elec       q    Type
REMARK                         _______ _______ _______ _____ _____    ______ ____
ROOT
ATOM      1  C   UNL     1      10.370  -1.199  22.231  0.00  0.00    +0.086 C 
ATOM      2  C   UNL     1       9.408  -1.938  23.114  0.00  0.00    +0.107 A 
ATOM      3  N   UNL     1       8.139  -1.433  23.153  0.00  0.00    -0.311 N 
ATOM      4  H   UNL     1       7.894  -0.597  22.642  0.00  0.00    +0.170 HD
ATOM      5  C   UNL     1       7.134  -1.996  23.894  0.00  0.00    +0.259 A 
ATOM      6  O   UNL     1       6.008  -1.511  23.939  0.00  0.00    -0.267 OA
ATOM      7  C   UNL     1       7.491  -3.221  24.631  0.00  0.00    +0.068 A 
ATOM      8  C   UNL     1       6.528  -3.916  25.370  0.00  0.00    +0.015 A 
ATOM      9  C   UNL     1       6.889  -5.078  26.048  0.00  0.00    +0.004 A 
ATOM     10  C   UNL     1       8.210  -5.528  26.002  0.00  0.00    +0.047 A 
ATOM     11  C   UNL     1       9.163  -4.817  25.265  0.00  0.00    +0.143 A 
ATOM     12  C   UNL     1       8.817  -3.659  24.552  0.00  0.00    +0.119 A 
ATOM     13  N   UNL     1       9.780  -2.983  23.773  0.00  0.00    -0.230 NA
ENDROOT
BRANCH  11  14
ATOM     14  O   UNL     1      10.460  -5.260  25.234  0.00  0.00    -0.505 OA
ATOM     15  H   UNL     1      10.512  -6.129  25.660  0.00  0.00    +0.292 HD
ENDBRANCH  11  14
TORSDOF 1
ENDMDL
MODEL 7
REMARK VINA RESULT:      -5.1      1.614      3.259
REMARK  Name = 
REMARK  2 active torsions:
REMARK  status: ('A' for Active; 'I' for Inactive)
REMARK    1  A    between atoms: C_1  and  C_2
REMARK    2  A    between atoms: C_9  and  O_10
REMARK                            x       y       z     vdW  Elec       q    Type
REMARK                         _______ _______ _______ _____ _____    ______ ____
ROOT
ATOM      1  C   UNL     1       8.361  -2.594  26.300  0.00  0.00    +0.086 C 
ATOM      2  C   UNL     1       8.854  -1.607  25.283  0.00  0.00    +0.107 A 
ATOM      3  N   UNL     1       9.491  -2.146  24.201  0.00  0.00    -0.311 N 
ATOM      4  H   UNL     1       9.641  -3.142  24.127  0.00  0.00    +0.170 HD
ATOM      5  C   UNL     1       9.986  -1.389  23.173  0.00  0.00    +0.259 A 
ATOM      6  O   UNL     1      10.580  -1.888  22.223  0.00  0.00    -0.267 OA
ATOM      7  C   UNL     1       9.756   0.063  23.279  0.00  0.00    +0.068 A 
ATOM      8  C   UNL     1      10.163   0.927  22.256  0.00  0.00    +0.015 A 
ATOM      9  C   UNL     1       9.923   2.294  22.376  0.00  0.00    +0.004 A 
ATOM     10  C   UNL     1       9.300   2.793  23.521  0.00  0.00    +0.047 A 
ATOM     11  C   UNL     1       8.907   1.917  24.539  0.00  0.00    +0.143 A 
ATOM     12  C   UNL     1       9.114   0.534  24.429  0.00  0.00    +0.119 A 
ATOM     13  N   UNL     1       8.664  -0.340  25.441  0.00  0.00    -0.230 NA
ENDROOT
BRANCH  11  14
ATOM     14  O   UNL     1       8.305   2.417  25.665  0.00  0.00    -0.505 OA
ATOM     15  H   UNL     1       8.918   3.017  26.116  0.00  0.00    +0.292 HD
ENDBRANCH  11  14
TORSDOF 1
ENDMDL
MODEL 8
REMARK VINA RESULT:      -5.0      2.852      4.837
REMARK  Name = 
REMARK  2 active torsions:
REMARK  status: ('A' for Active; 'I' for Inactive)
REMARK    1  A    between atoms: C_1  and  C_2
REMARK    2  A    between atoms: C_9  and  O_10
REMARK                            x       y       z     vdW  Elec       q    Type
REMARK                         _______ _______ _______ _____ _____    ______ ____
ROOT
ATOM      1  C   UNL     1       9.974  -1.100  22.264  0.00  0.00    +0.086 C 
ATOM      2  C   UNL     1       9.150  -2.225  22.821  0.00  0.00    +0.107 A 
ATOM      3  N   UNL     1       9.629  -2.790  23.969  0.00  0.00    -0.311 N 
ATOM      4  H   UNL     1      10.497  -2.481  24.380  0.00  0.00    +0.170 HD
ATOM      5  C   UNL     1       8.991  -3.814  24.618  0.00  0.00    +0.259 A 
ATOM      6  O   UNL     1       9.450  -4.328  25.633  0.00  0.00    -0.267 OA
ATOM      7  C   UNL     1       7.718  -4.256  24.022  0.00  0.00    +0.068 A 
ATOM      8  C   UNL     1       6.950  -5.252  24.634  0.00  0.00    +0.015 A 
ATOM      9  C   UNL     1       5.744  -5.643  24.055  0.00  0.00    +0.004 A 
ATOM     10  C   UNL     1       5.323  -5.055  22.861  0.00  0.00    +0.047 A 
ATOM     11  C   UNL     1       6.107  -4.067  22.256  0.00  0.00    +0.143 A 
ATOM     12  C   UNL     1       7.311  -3.637  22.835  0.00  0.00    +0.119 A 
ATOM     13  N   UNL     1       8.063  -2.603  22.238  0.00  0.00    -0.230 NA
ENDROOT
BRANCH  11  14
ATOM     14  O   UNL     1       5.691  -3.503  21.079  0.00  0.00    -0.505 OA
ATOM     15  H   UNL     1       6.144  -2.655  20.952  0.00  0.00    +0.292 HD
ENDBRANCH  11  14
TORSDOF 1
ENDMDL
MODEL 9
REMARK VINA RESULT:      -5.0      2.105      2.153
REMARK  Name = 
REMARK  2 active torsions:
REMARK  status: ('A' for Active; 'I' for Inactive)
REMARK    1  A    between atoms: C_1  and  C_2
REMARK    2  A    between atoms: C_9  and  O_10
REMARK                            x       y       z     vdW  Elec       q    Type
REMARK                         _______ _______ _______ _____ _____    ______ ____
ROOT
ATOM      1  C   UNL     1       8.021  -4.472  24.713  0.00  0.00    +0.086 C 
ATOM      2  C   UNL     1       7.844  -3.094  24.147  0.00  0.00    +0.107 A 
ATOM      3  N   UNL     1       6.753  -2.408  24.600  0.00  0.00    -0.311 N 
ATOM      4  H   UNL     1       6.102  -2.831  25.246  0.00  0.00    +0.170 HD
ATOM      5  C   UNL     1       6.454  -1.133  24.199  0.00  0.00    +0.259 A 
ATOM      6  O   UNL     1       5.454  -0.543  24.596  0.00  0.00    -0.267 OA
ATOM      7  C   UNL     1       7.411  -0.515  23.265  0.00  0.00    +0.068 A 
ATOM      8  C   UNL     1       7.239   0.807  22.837  0.00  0.00    +0.015 A 
ATOM      9  C   UNL     1       8.165   1.371  21.963  0.00  0.00    +0.004 A 
ATOM     10  C   UNL     1       9.242   0.611  21.504  0.00  0.00    +0.047 A 
ATOM     11  C   UNL     1       9.394  -0.712  21.933  0.00  0.00    +0.143 A 
ATOM     12  C   UNL     1       8.490  -1.294  22.835  0.00  0.00    +0.119 A 
ATOM     13  N   UNL     1       8.688  -2.612  23.298  0.00  0.00    -0.230 NA
ENDROOT
BRANCH  11  14
ATOM     14  O   UNL     1      10.448  -1.455  21.469  0.00  0.00    -0.505 OA
ATOM     15  H   UNL     1      10.290  -1.693  20.543  0.00  0.00    +0.292 HD
ENDBRANCH  11  14
TORSDOF 1
ENDMDL
