MODEL 1
REMARK VINA RESULT:      -5.4      0.000      0.000
REMARK  Name = 
REMARK  22 active torsions:
REMARK  status: ('A' for Active; 'I' for Inactive)
REMARK    1  A    between atoms: O_1  and  C_2
REMARK    2  A    between atoms: C_2  and  O_3
REMARK    3  A    between atoms: C_2  and  C_4
REMARK    4  A    between atoms: C_4  and  N_5
REMARK    5  A    between atoms: N_5  and  C_6
REMARK    6  A    between atoms: N_5  and  C_25
REMARK    7  A    between atoms: C_6  and  C_7
REMARK    8  A    between atoms: C_7  and  O_9
REMARK    9  A    between atoms: C_7  and  C_10
REMARK   10  A    between atoms: C_10  and  O_12
REMARK   11  A    between atoms: C_10  and  C_13
REMARK   12  A    between atoms: C_13  and  O_15
REMARK   13  A    between atoms: C_13  and  C_16
REMARK   14  A    between atoms: C_16  and  O_18
REMARK   15  A    between atoms: C_16  and  C_19
REMARK   16  A    between atoms: C_19  and  O_20
REMARK   17  A    between atoms: O_20  and  P_21
REMARK   18  A    between atoms: P_21  and  O_22
REMARK   19  A    between atoms: P_21  and  O_23
REMARK   20  A    between atoms: C_25  and  P_26
REMARK   21  A    between atoms: P_26  and  O_27
REMARK   22  A    between atoms: P_26  and  O_28
REMARK                            x       y       z     vdW  Elec       q    Type
REMARK                         _______ _______ _______ _____ _____    ______ ____
ROOT
ATOM      1  C   UNL     1       8.743  -2.677  23.031  0.00  0.00    +0.159 C 
ENDROOT
BRANCH   1   2
ATOM      2  O   UNL     1       7.659  -2.195  22.223  0.00  0.00    -0.388 OA
ATOM      3  H   UNL     1       8.035  -2.048  21.327  0.00  0.00    +0.210 HD
ENDBRANCH   1   2
BRANCH   1   4
ATOM      4  C   UNL     1       9.221  -1.525  23.937  0.00  0.00    +0.175 C 
BRANCH   4   5
ATOM      5  O   UNL     1       8.109  -0.666  24.269  0.00  0.00    -0.387 OA
ATOM      6  H   UNL     1       7.309  -1.210  24.116  0.00  0.00    +0.210 HD
ENDBRANCH   4   5
BRANCH   4   7
ATOM      7  C   UNL     1      10.279  -0.641  23.241  0.00  0.00    +0.176 C 
BRANCH   7   8
ATOM      8  O   UNL     1       9.740  -0.128  22.009  0.00  0.00    -0.386 OA
ATOM      9  H   UNL     1       8.770  -0.248  22.074  0.00  0.00    +0.210 HD
ENDBRANCH   7   8
BRANCH   7  10
ATOM     10  C   UNL     1      10.765   0.513  24.128  0.00  0.00    +0.172 C 
BRANCH  10  11
ATOM     11  O   UNL     1      10.309   0.352  25.478  0.00  0.00    -0.387 OA
ATOM     12  H   UNL     1      10.956   0.829  26.037  0.00  0.00    +0.210 HD
ENDBRANCH  10  11
BRANCH  10  13
ATOM     13  C   UNL     1      10.311   1.858  23.597  0.00  0.00    +0.206 C 
BRANCH  13  14
ATOM     14  O   UNL     1       8.971   2.049  24.045  0.00  0.00    -0.284 OA
BRANCH  14  15
ATOM     15  P   UNL     1       8.050   2.929  22.875  0.00  0.00    +0.472 P 
ATOM     16  O   UNL     1       7.226   3.717  21.827  0.00  0.00    -0.228 OA
BRANCH  15  17
ATOM     17  O   UNL     1       9.324   2.688  21.877  0.00  0.00    -0.303 OA
ATOM     18  H   UNL     1      10.128   2.495  22.387  0.00  0.00    +0.222 HD
ENDBRANCH  15  17
BRANCH  15  19
ATOM     19  O   UNL     1       7.298   1.508  22.567  0.00  0.00    -0.303 OA
ATOM     20  H   UNL     1       6.618   1.583  21.879  0.00  0.00    +0.222 HD
ENDBRANCH  15  19
ENDBRANCH  14  15
ENDBRANCH  13  14
ENDBRANCH  10  13
ENDBRANCH   7  10
ENDBRANCH   4   7
ENDBRANCH   1   4
BRANCH   1  21
ATOM     21  C   UNL     1       8.291  -3.924  23.822  0.00  0.00    +0.119 C 
BRANCH  21  22
ATOM     22  N   UNL     1       7.067  -3.703  24.673  0.00  0.00    -0.282 NA
BRANCH  22  23
ATOM     23  C   UNL     1       6.000  -4.659  24.255  0.00  0.00    +0.212 C 
BRANCH  23  24
ATOM     24  P   UNL     1       6.321  -5.401  22.614  0.00  0.00    +0.342 P 
ATOM     25  O   UNL     1       6.593  -6.030  21.225  0.00  0.00    -0.257 OA
BRANCH  24  26
ATOM     26  O   UNL     1       5.321  -4.239  22.023  0.00  0.00    -0.323 OA
ATOM     27  H   UNL     1       4.517  -4.238  22.584  0.00  0.00    +0.220 HD
ENDBRANCH  24  26
BRANCH  24  28
ATOM     28  O   UNL     1       5.174  -6.533  22.999  0.00  0.00    -0.323 OA
ATOM     29  H   UNL     1       4.413  -6.158  23.484  0.00  0.00    +0.220 HD
ENDBRANCH  24  28
ENDBRANCH  23  24
ENDBRANCH  22  23
BRANCH  22  30
ATOM     30  C   UNL     1       7.442  -3.900  26.112  0.00  0.00    +0.173 C 
BRANCH  30  31
ATOM     31  C   UNL     1       8.259  -5.149  26.580  0.00  0.00    +0.360 C 
BRANCH  31  32
ATOM     32  O   UNL     1       7.625  -5.846  27.629  0.00  0.00    -0.506 OA
ATOM     33  H   UNL     1       6.946  -5.259  28.005  0.00  0.00    +0.287 HD
ENDBRANCH  31  32
BRANCH  31  34
ATOM     34  O   UNL     1       9.551  -4.794  27.013  0.00  0.00    -0.506 OA
ATOM     35  H   UNL     1       9.388  -4.185  27.763  0.00  0.00    +0.287 HD
ENDBRANCH  31  34
ENDBRANCH  30  31
ENDBRANCH  22  30
ENDBRANCH  21  22
ENDBRANCH   1  21
TORSDOF 22
ENDMDL
MODEL 2
REMARK VINA RESULT:      -5.4      1.826      6.932
REMARK  Name = 
REMARK  22 active torsions:
REMARK  status: ('A' for Active; 'I' for Inactive)
REMARK    1  A    between atoms: O_1  and  C_2
REMARK    2  A    between atoms: C_2  and  O_3
REMARK    3  A    between atoms: C_2  and  C_4
REMARK    4  A    between atoms: C_4  and  N_5
REMARK    5  A    between atoms: N_5  and  C_6
REMARK    6  A    between atoms: N_5  and  C_25
REMARK    7  A    between atoms: C_6  and  C_7
REMARK    8  A    between atoms: C_7  and  O_9
REMARK    9  A    between atoms: C_7  and  C_10
REMARK   10  A    between atoms: C_10  and  O_12
REMARK   11  A    between atoms: C_10  and  C_13
REMARK   12  A    between atoms: C_13  and  O_15
REMARK   13  A    between atoms: C_13  and  C_16
REMARK   14  A    between atoms: C_16  and  O_18
REMARK   15  A    between atoms: C_16  and  C_19
REMARK   16  A    between atoms: C_19  and  O_20
REMARK   17  A    between atoms: O_20  and  P_21
REMARK   18  A    between atoms: P_21  and  O_22
REMARK   19  A    between atoms: P_21  and  O_23
REMARK   20  A    between atoms: C_25  and  P_26
REMARK   21  A    between atoms: P_26  and  O_27
REMARK   22  A    between atoms: P_26  and  O_28
REMARK                            x       y       z     vdW  Elec       q    Type
REMARK                         _______ _______ _______ _____ _____    ______ ____
ROOT
ATOM      1  C   UNL     1       8.060  -2.904  23.420  0.00  0.00    +0.159 C 
ENDROOT
BRANCH   1   2
ATOM      2  O   UNL     1       7.566  -3.953  22.574  0.00  0.00    -0.388 OA
ATOM      3  H   UNL     1       8.346  -4.296  22.084  0.00  0.00    +0.210 HD
ENDBRANCH   1   2
BRANCH   1   4
ATOM      4  C   UNL     1       8.889  -3.544  24.550  0.00  0.00    +0.175 C 
BRANCH   4   5
ATOM      5  O   UNL     1      10.282  -3.592  24.173  0.00  0.00    -0.387 OA
ATOM      6  H   UNL     1      10.318  -4.181  23.392  0.00  0.00    +0.210 HD
ENDBRANCH   4   5
BRANCH   4   7
ATOM      7  C   UNL     1       8.453  -4.997  24.839  0.00  0.00    +0.176 C 
BRANCH   7   8
ATOM      8  O   UNL     1       9.617  -5.808  25.082  0.00  0.00    -0.386 OA
ATOM      9  H   UNL     1      10.045  -5.426  25.876  0.00  0.00    +0.210 HD
ENDBRANCH   7   8
BRANCH   7  10
ATOM     10  C   UNL     1       7.477  -5.102  26.019  0.00  0.00    +0.172 C 
BRANCH  10  11
ATOM     11  O   UNL     1       7.977  -5.998  27.021  0.00  0.00    -0.387 OA
ATOM     12  H   UNL     1       8.047  -6.873  26.586  0.00  0.00    +0.210 HD
ENDBRANCH  10  11
BRANCH  10  13
ATOM     13  C   UNL     1       6.103  -5.559  25.572  0.00  0.00    +0.206 C 
BRANCH  13  14
ATOM     14  O   UNL     1       6.198  -5.859  24.181  0.00  0.00    -0.284 OA
BRANCH  14  15
ATOM     15  P   UNL     1       4.635  -5.839  23.440  0.00  0.00    +0.472 P 
ATOM     16  O   UNL     1       3.236  -5.821  22.776  0.00  0.00    -0.228 OA
BRANCH  15  17
ATOM     17  O   UNL     1       5.434  -6.130  22.042  0.00  0.00    -0.303 OA
ATOM     18  H   UNL     1       5.655  -7.073  21.962  0.00  0.00    +0.222 HD
ENDBRANCH  15  17
BRANCH  15  19
ATOM     19  O   UNL     1       4.516  -7.400  23.917  0.00  0.00    -0.303 OA
ATOM     20  H   UNL     1       5.117  -7.989  23.434  0.00  0.00    +0.222 HD
ENDBRANCH  15  19
ENDBRANCH  14  15
ENDBRANCH  13  14
ENDBRANCH  10  13
ENDBRANCH   7  10
ENDBRANCH   4   7
ENDBRANCH   1   4
BRANCH   1  21
ATOM     21  C   UNL     1       8.864  -1.889  22.577  0.00  0.00    +0.119 C 
BRANCH  21  22
ATOM     22  N   UNL     1       9.381  -0.710  23.363  0.00  0.00    -0.282 NA
BRANCH  22  23
ATOM     23  C   UNL     1      10.018   0.262  22.426  0.00  0.00    +0.212 C 
BRANCH  23  24
ATOM     24  P   UNL     1       9.019   1.777  22.196  0.00  0.00    +0.342 P 
ATOM     25  O   UNL     1       8.174   3.060  22.002  0.00  0.00    -0.257 OA
BRANCH  24  26
ATOM     26  O   UNL     1       8.625   1.154  20.728  0.00  0.00    -0.323 OA
ATOM     27  H   UNL     1       7.876   0.538  20.868  0.00  0.00    +0.220 HD
ENDBRANCH  24  26
BRANCH  24  28
ATOM     28  O   UNL     1      10.428   2.535  21.766  0.00  0.00    -0.323 OA
ATOM     29  H   UNL     1      10.865   2.124  20.994  0.00  0.00    +0.220 HD
ENDBRANCH  24  28
ENDBRANCH  23  24
ENDBRANCH  22  23
BRANCH  22  30
ATOM     30  C   UNL     1       8.233  -0.085  24.098  0.00  0.00    +0.173 C 
BRANCH  30  31
ATOM     31  C   UNL     1       8.326   0.253  25.623  0.00  0.00    +0.360 C 
BRANCH  31  32
ATOM     32  O   UNL     1       8.276   1.640  25.871  0.00  0.00    -0.506 OA
ATOM     33  H   UNL     1       8.633   2.093  25.088  0.00  0.00    +0.287 HD
ENDBRANCH  31  32
BRANCH  31  34
ATOM     34  O   UNL     1       9.509  -0.249  26.197  0.00  0.00    -0.506 OA
ATOM     35  H   UNL     1      10.222   0.233  25.727  0.00  0.00    +0.287 HD
ENDBRANCH  31  34
ENDBRANCH  30  31
ENDBRANCH  22  30
ENDBRANCH  21  22
ENDBRANCH   1  21
TORSDOF 22
ENDMDL
MODEL 3
REMARK VINA RESULT:      -5.4      1.743      2.273
REMARK  Name = 
REMARK  22 active torsions:
REMARK  status: ('A' for Active; 'I' for Inactive)
REMARK    1  A    between atoms: O_1  and  C_2
REMARK    2  A    between atoms: C_2  and  O_3
REMARK    3  A    between atoms: C_2  and  C_4
REMARK    4  A    between atoms: C_4  and  N_5
REMARK    5  A    between atoms: N_5  and  C_6
REMARK    6  A    between atoms: N_5  and  C_25
REMARK    7  A    between atoms: C_6  and  C_7
REMARK    8  A    between atoms: C_7  and  O_9
REMARK    9  A    between atoms: C_7  and  C_10
REMARK   10  A    between atoms: C_10  and  O_12
REMARK   11  A    between atoms: C_10  and  C_13
REMARK   12  A    between atoms: C_13  and  O_15
REMARK   13  A    between atoms: C_13  and  C_16
REMARK   14  A    between atoms: C_16  and  O_18
REMARK   15  A    between atoms: C_16  and  C_19
REMARK   16  A    between atoms: C_19  and  O_20
REMARK   17  A    between atoms: O_20  and  P_21
REMARK   18  A    between atoms: P_21  and  O_22
REMARK   19  A    between atoms: P_21  and  O_23
REMARK   20  A    between atoms: C_25  and  P_26
REMARK   21  A    between atoms: P_26  and  O_27
REMARK   22  A    between atoms: P_26  and  O_28
REMARK                            x       y       z     vdW  Elec       q    Type
REMARK                         _______ _______ _______ _____ _____    ______ ____
ROOT
ATOM      1  C   UNL     1       8.991  -2.068  23.011  0.00  0.00    +0.159 C 
ENDROOT
BRANCH   1   2
ATOM      2  O   UNL     1      10.387  -2.382  22.904  0.00  0.00    -0.388 OA
ATOM      3  H   UNL     1      10.811  -2.010  23.709  0.00  0.00    +0.210 HD
ENDBRANCH   1   2
BRANCH   1   4
ATOM      4  C   UNL     1       8.675  -0.924  22.029  0.00  0.00    +0.175 C 
BRANCH   4   5
ATOM      5  O   UNL     1       9.687  -0.864  21.001  0.00  0.00    -0.387 OA
ATOM      6  H   UNL     1       9.478  -0.061  20.480  0.00  0.00    +0.210 HD
ENDBRANCH   4   5
BRANCH   4   7
ATOM      7  C   UNL     1       8.662   0.454  22.727  0.00  0.00    +0.176 C 
BRANCH   7   8
ATOM      8  O   UNL     1       9.840   0.588  23.543  0.00  0.00    -0.386 OA
ATOM      9  H   UNL     1      10.592   0.349  22.964  0.00  0.00    +0.210 HD
ENDBRANCH   7   8
BRANCH   7  10
ATOM     10  C   UNL     1       8.567   1.622  21.736  0.00  0.00    +0.172 C 
BRANCH  10  11
ATOM     11  O   UNL     1       9.870   2.106  21.385  0.00  0.00    -0.387 OA
ATOM     12  H   UNL     1      10.431   1.960  22.175  0.00  0.00    +0.210 HD
ENDBRANCH  10  11
BRANCH  10  13
ATOM     13  C   UNL     1       7.737   2.762  22.292  0.00  0.00    +0.206 C 
BRANCH  13  14
ATOM     14  O   UNL     1       7.963   2.792  23.699  0.00  0.00    -0.284 OA
BRANCH  14  15
ATOM     15  P   UNL     1       8.675   4.295  24.176  0.00  0.00    +0.472 P 
ATOM     16  O   UNL     1       9.312   5.640  24.603  0.00  0.00    -0.228 OA
BRANCH  15  17
ATOM     17  O   UNL     1      10.109   3.536  23.969  0.00  0.00    -0.303 OA
ATOM     18  H   UNL     1      10.394   3.109  24.794  0.00  0.00    +0.222 HD
ENDBRANCH  15  17
BRANCH  15  19
ATOM     19  O   UNL     1       8.476   4.752  22.617  0.00  0.00    -0.303 OA
ATOM     20  H   UNL     1       7.580   5.071  22.429  0.00  0.00    +0.222 HD
ENDBRANCH  15  19
ENDBRANCH  14  15
ENDBRANCH  13  14
ENDBRANCH  10  13
ENDBRANCH   7  10
ENDBRANCH   4   7
ENDBRANCH   1   4
BRANCH   1  21
ATOM     21  C   UNL     1       8.149  -3.338  22.757  0.00  0.00    +0.119 C 
BRANCH  21  22
ATOM     22  N   UNL     1       7.311  -3.766  23.935  0.00  0.00    -0.282 NA
BRANCH  22  23
ATOM     23  C   UNL     1       6.695  -5.093  23.641  0.00  0.00    +0.212 C 
BRANCH  23  24
ATOM     24  P   UNL     1       6.293  -5.308  21.869  0.00  0.00    +0.342 P 
ATOM     25  O   UNL     1       5.954  -5.489  20.369  0.00  0.00    -0.257 OA
BRANCH  24  26
ATOM     26  O   UNL     1       4.795  -4.762  22.263  0.00  0.00    -0.323 OA
ATOM     27  H   UNL     1       4.614  -5.053  23.181  0.00  0.00    +0.220 HD
ENDBRANCH  24  26
BRANCH  24  28
ATOM     28  O   UNL     1       6.062  -6.913  22.206  0.00  0.00    -0.323 OA
ATOM     29  H   UNL     1       5.928  -7.090  23.158  0.00  0.00    +0.220 HD
ENDBRANCH  24  28
ENDBRANCH  23  24
ENDBRANCH  22  23
BRANCH  22  30
ATOM     30  C   UNL     1       8.189  -3.831  25.149  0.00  0.00    +0.173 C 
BRANCH  30  31
ATOM     31  C   UNL     1       8.845  -5.173  25.614  0.00  0.00    +0.360 C 
BRANCH  31  32
ATOM     32  O   UNL     1       8.857  -5.309  27.018  0.00  0.00    -0.506 OA
ATOM     33  H   UNL     1       8.294  -6.069  27.245  0.00  0.00    +0.287 HD
ENDBRANCH  31  32
BRANCH  31  34
ATOM     34  O   UNL     1      10.171  -5.290  25.155  0.00  0.00    -0.506 OA
ATOM     35  H   UNL     1      10.463  -6.161  25.500  0.00  0.00    +0.287 HD
ENDBRANCH  31  34
ENDBRANCH  30  31
ENDBRANCH  22  30
ENDBRANCH  21  22
ENDBRANCH   1  21
TORSDOF 22
ENDMDL
MODEL 4
REMARK VINA RESULT:      -5.3      2.585      7.160
REMARK  Name = 
REMARK  22 active torsions:
REMARK  status: ('A' for Active; 'I' for Inactive)
REMARK    1  A    between atoms: O_1  and  C_2
REMARK    2  A    between atoms: C_2  and  O_3
REMARK    3  A    between atoms: C_2  and  C_4
REMARK    4  A    between atoms: C_4  and  N_5
REMARK    5  A    between atoms: N_5  and  C_6
REMARK    6  A    between atoms: N_5  and  C_25
REMARK    7  A    between atoms: C_6  and  C_7
REMARK    8  A    between atoms: C_7  and  O_9
REMARK    9  A    between atoms: C_7  and  C_10
REMARK   10  A    between atoms: C_10  and  O_12
REMARK   11  A    between atoms: C_10  and  C_13
REMARK   12  A    between atoms: C_13  and  O_15
REMARK   13  A    between atoms: C_13  and  C_16
REMARK   14  A    between atoms: C_16  and  O_18
REMARK   15  A    between atoms: C_16  and  C_19
REMARK   16  A    between atoms: C_19  and  O_20
REMARK   17  A    between atoms: O_20  and  P_21
REMARK   18  A    between atoms: P_21  and  O_22
REMARK   19  A    between atoms: P_21  and  O_23
REMARK   20  A    between atoms: C_25  and  P_26
REMARK   21  A    between atoms: P_26  and  O_27
REMARK   22  A    between atoms: P_26  and  O_28
REMARK                            x       y       z     vdW  Elec       q    Type
REMARK                         _______ _______ _______ _____ _____    ______ ____
ROOT
ATOM      1  C   UNL     1       8.603  -5.201  25.132  0.00  0.00    +0.159 C 
ENDROOT
BRANCH   1   2
ATOM      2  O   UNL     1       9.882  -5.666  25.586  0.00  0.00    -0.388 OA
ATOM      3  H   UNL     1       9.793  -5.798  26.557  0.00  0.00    +0.210 HD
ENDBRANCH   1   2
BRANCH   1   4
ATOM      4  C   UNL     1       7.684  -5.038  26.357  0.00  0.00    +0.175 C 
BRANCH   4   5
ATOM      5  O   UNL     1       8.136  -5.892  27.430  0.00  0.00    -0.387 OA
ATOM      6  H   UNL     1       8.221  -5.305  28.209  0.00  0.00    +0.210 HD
ENDBRANCH   4   5
BRANCH   4   7
ATOM      7  C   UNL     1       6.226  -5.442  26.046  0.00  0.00    +0.176 C 
BRANCH   7   8
ATOM      8  O   UNL     1       5.873  -6.600  26.825  0.00  0.00    -0.386 OA
ATOM      9  H   UNL     1       6.622  -6.745  27.439  0.00  0.00    +0.210 HD
ENDBRANCH   7   8
BRANCH   7  10
ATOM     10  C   UNL     1       5.226  -4.307  26.302  0.00  0.00    +0.172 C 
BRANCH  10  11
ATOM     11  O   UNL     1       4.682  -4.389  27.627  0.00  0.00    -0.387 OA
ATOM     12  H   UNL     1       3.753  -4.679  27.516  0.00  0.00    +0.210 HD
ENDBRANCH  10  11
BRANCH  10  13
ATOM     13  C   UNL     1       4.097  -4.314  25.290  0.00  0.00    +0.206 C 
BRANCH  13  14
ATOM     14  O   UNL     1       4.344  -5.403  24.403  0.00  0.00    -0.284 OA
BRANCH  14  15
ATOM     15  P   UNL     1       2.944  -6.408  24.259  0.00  0.00    +0.472 P 
ATOM     16  O   UNL     1       1.690  -7.308  24.130  0.00  0.00    -0.228 OA
BRANCH  15  17
ATOM     17  O   UNL     1       2.862  -5.857  22.720  0.00  0.00    -0.303 OA
ATOM     18  H   UNL     1       2.281  -6.421  22.184  0.00  0.00    +0.222 HD
ENDBRANCH  15  17
BRANCH  15  19
ATOM     19  O   UNL     1       3.992  -7.630  23.967  0.00  0.00    -0.303 OA
ATOM     20  H   UNL     1       3.573  -8.392  23.536  0.00  0.00    +0.222 HD
ENDBRANCH  15  19
ENDBRANCH  14  15
ENDBRANCH  13  14
ENDBRANCH  10  13
ENDBRANCH   7  10
ENDBRANCH   4   7
ENDBRANCH   1   4
BRANCH   1  21
ATOM     21  C   UNL     1       8.778  -3.896  24.325  0.00  0.00    +0.119 C 
BRANCH  21  22
ATOM     22  N   UNL     1       7.695  -3.653  23.305  0.00  0.00    -0.282 NA
BRANCH  22  23
ATOM     23  C   UNL     1       8.162  -2.626  22.329  0.00  0.00    +0.212 C 
BRANCH  23  24
ATOM     24  P   UNL     1       9.420  -1.501  23.036  0.00  0.00    +0.342 P 
ATOM     25  O   UNL     1      10.485  -0.550  23.635  0.00  0.00    -0.257 OA
BRANCH  24  26
ATOM     26  O   UNL     1       8.370  -0.290  22.677  0.00  0.00    -0.323 OA
ATOM     27  H   UNL     1       8.889   0.540  22.637  0.00  0.00    +0.220 HD
ENDBRANCH  24  26
BRANCH  24  28
ATOM     28  O   UNL     1      10.194  -1.590  21.575  0.00  0.00    -0.323 OA
ATOM     29  H   UNL     1      10.355  -0.714  21.171  0.00  0.00    +0.220 HD
ENDBRANCH  24  28
ENDBRANCH  23  24
ENDBRANCH  22  23
BRANCH  22  30
ATOM     30  C   UNL     1       7.382  -4.951  22.621  0.00  0.00    +0.173 C 
BRANCH  30  31
ATOM     31  C   UNL     1       6.175  -5.086  21.636  0.00  0.00    +0.360 C 
BRANCH  31  32
ATOM     32  O   UNL     1       5.157  -4.146  21.898  0.00  0.00    -0.506 OA
ATOM     33  H   UNL     1       4.365  -4.423  21.407  0.00  0.00    +0.287 HD
ENDBRANCH  31  32
BRANCH  31  34
ATOM     34  O   UNL     1       5.602  -6.371  21.687  0.00  0.00    -0.506 OA
ATOM     35  H   UNL     1       6.176  -6.860  22.315  0.00  0.00    +0.287 HD
ENDBRANCH  31  34
ENDBRANCH  30  31
ENDBRANCH  22  30
ENDBRANCH  21  22
ENDBRANCH   1  21
TORSDOF 22
ENDMDL
MODEL 5
REMARK VINA RESULT:      -5.3      1.601      2.479
REMARK  Name = 
REMARK  22 active torsions:
REMARK  status: ('A' for Active; 'I' for Inactive)
REMARK    1  A    between atoms: O_1  and  C_2
REMARK    2  A    between atoms: C_2  and  O_3
REMARK    3  A    between atoms: C_2  and  C_4
REMARK    4  A    between atoms: C_4  and  N_5
REMARK    5  A    between atoms: N_5  and  C_6
REMARK    6  A    between atoms: N_5  and  C_25
REMARK    7  A    between atoms: C_6  and  C_7
REMARK    8  A    between atoms: C_7  and  O_9
REMARK    9  A    between atoms: C_7  and  C_10
REMARK   10  A    between atoms: C_10  and  O_12
REMARK   11  A    between atoms: C_10  and  C_13
REMARK   12  A    between atoms: C_13  and  O_15
REMARK   13  A    between atoms: C_13  and  C_16
REMARK   14  A    between atoms: C_16  and  O_18
REMARK   15  A    between atoms: C_16  and  C_19
REMARK   16  A    between atoms: C_19  and  O_20
REMARK   17  A    between atoms: O_20  and  P_21
REMARK   18  A    between atoms: P_21  and  O_22
REMARK   19  A    between atoms: P_21  and  O_23
REMARK   20  A    between atoms: C_25  and  P_26
REMARK   21  A    between atoms: P_26  and  O_27
REMARK   22  A    between atoms: P_26  and  O_28
REMARK                            x       y       z     vdW  Elec       q    Type
REMARK                         _______ _______ _______ _____ _____    ______ ____
ROOT
ATOM      1  C   UNL     1       8.909  -3.620  24.514  0.00  0.00    +0.159 C 
ENDROOT
BRANCH   1   2
ATOM      2  O   UNL     1       9.936  -4.582  24.793  0.00  0.00    -0.388 OA
ATOM      3  H   UNL     1      10.727  -4.062  25.061  0.00  0.00    +0.210 HD
ENDBRANCH   1   2
BRANCH   1   4
ATOM      4  C   UNL     1       9.546  -2.432  23.769  0.00  0.00    +0.175 C 
BRANCH   4   5
ATOM      5  O   UNL     1      10.023  -1.454  24.719  0.00  0.00    -0.387 OA
ATOM      6  H   UNL     1       9.268  -1.290  25.321  0.00  0.00    +0.210 HD
ENDBRANCH   4   5
BRANCH   4   7
ATOM      7  C   UNL     1       8.533  -1.710  22.853  0.00  0.00    +0.176 C 
BRANCH   7   8
ATOM      8  O   UNL     1       7.772  -0.767  23.630  0.00  0.00    -0.386 OA
ATOM      9  H   UNL     1       7.004  -0.524  23.073  0.00  0.00    +0.210 HD
ENDBRANCH   7   8
BRANCH   7  10
ATOM     10  C   UNL     1       9.202  -1.002  21.668  0.00  0.00    +0.172 C 
BRANCH  10  11
ATOM     11  O   UNL     1      10.559  -1.439  21.507  0.00  0.00    -0.387 OA
ATOM     12  H   UNL     1      10.511  -2.404  21.343  0.00  0.00    +0.210 HD
ENDBRANCH  10  11
BRANCH  10  13
ATOM     13  C   UNL     1       9.172   0.505  21.825  0.00  0.00    +0.206 C 
BRANCH  13  14
ATOM     14  O   UNL     1      10.175   0.843  22.780  0.00  0.00    -0.284 OA
BRANCH  14  15
ATOM     15  P   UNL     1       9.768   2.305  23.609  0.00  0.00    +0.472 P 
ATOM     16  O   UNL     1       9.404   3.614  24.352  0.00  0.00    -0.228 OA
BRANCH  15  17
ATOM     17  O   UNL     1       8.259   2.067  23.025  0.00  0.00    -0.303 OA
ATOM     18  H   UNL     1       7.612   2.028  23.749  0.00  0.00    +0.222 HD
ENDBRANCH  15  17
BRANCH  15  19
ATOM     19  O   UNL     1       9.604   1.368  24.942  0.00  0.00    -0.303 OA
ATOM     20  H   UNL     1       8.713   0.995  25.033  0.00  0.00    +0.222 HD
ENDBRANCH  15  19
ENDBRANCH  14  15
ENDBRANCH  13  14
ENDBRANCH  10  13
ENDBRANCH   7  10
ENDBRANCH   4   7
ENDBRANCH   1   4
BRANCH   1  21
ATOM     21  C   UNL     1       7.766  -4.292  23.720  0.00  0.00    +0.119 C 
BRANCH  21  22
ATOM     22  N   UNL     1       6.490  -4.463  24.505  0.00  0.00    -0.282 NA
BRANCH  22  23
ATOM     23  C   UNL     1       5.963  -5.843  24.289  0.00  0.00    +0.212 C 
BRANCH  23  24
ATOM     24  P   UNL     1       4.340  -5.854  23.445  0.00  0.00    +0.342 P 
ATOM     25  O   UNL     1       2.966  -5.862  22.731  0.00  0.00    -0.257 OA
BRANCH  24  26
ATOM     26  O   UNL     1       4.220  -7.412  23.948  0.00  0.00    -0.323 OA
ATOM     27  H   UNL     1       3.904  -7.939  23.185  0.00  0.00    +0.220 HD
ENDBRANCH  24  26
BRANCH  24  28
ATOM     28  O   UNL     1       5.172  -6.118  22.037  0.00  0.00    -0.323 OA
ATOM     29  H   UNL     1       5.794  -6.870  22.095  0.00  0.00    +0.220 HD
ENDBRANCH  24  28
ENDBRANCH  23  24
ENDBRANCH  22  23
BRANCH  22  30
ATOM     30  C   UNL     1       6.782  -4.213  25.954  0.00  0.00    +0.173 C 
BRANCH  30  31
ATOM     31  C   UNL     1       6.915  -5.389  26.977  0.00  0.00    +0.360 C 
BRANCH  31  32
ATOM     32  O   UNL     1       6.544  -5.011  28.284  0.00  0.00    -0.506 OA
ATOM     33  H   UNL     1       5.754  -5.523  28.526  0.00  0.00    +0.287 HD
ENDBRANCH  31  32
BRANCH  31  34
ATOM     34  O   UNL     1       8.230  -5.890  27.027  0.00  0.00    -0.506 OA
ATOM     35  H   UNL     1       8.193  -6.702  26.479  0.00  0.00    +0.287 HD
ENDBRANCH  31  34
ENDBRANCH  30  31
ENDBRANCH  22  30
ENDBRANCH  21  22
ENDBRANCH   1  21
TORSDOF 22
ENDMDL
MODEL 6
REMARK VINA RESULT:      -5.3      1.545      2.167
REMARK  Name = 
REMARK  22 active torsions:
REMARK  status: ('A' for Active; 'I' for Inactive)
REMARK    1  A    between atoms: O_1  and  C_2
REMARK    2  A    between atoms: C_2  and  O_3
REMARK    3  A    between atoms: C_2  and  C_4
REMARK    4  A    between atoms: C_4  and  N_5
REMARK    5  A    between atoms: N_5  and  C_6
REMARK    6  A    between atoms: N_5  and  C_25
REMARK    7  A    between atoms: C_6  and  C_7
REMARK    8  A    between atoms: C_7  and  O_9
REMARK    9  A    between atoms: C_7  and  C_10
REMARK   10  A    between atoms: C_10  and  O_12
REMARK   11  A    between atoms: C_10  and  C_13
REMARK   12  A    between atoms: C_13  and  O_15
REMARK   13  A    between atoms: C_13  and  C_16
REMARK   14  A    between atoms: C_16  and  O_18
REMARK   15  A    between atoms: C_16  and  C_19
REMARK   16  A    between atoms: C_19  and  O_20
REMARK   17  A    between atoms: O_20  and  P_21
REMARK   18  A    between atoms: P_21  and  O_22
REMARK   19  A    between atoms: P_21  and  O_23
REMARK   20  A    between atoms: C_25  and  P_26
REMARK   21  A    between atoms: P_26  and  O_27
REMARK   22  A    between atoms: P_26  and  O_28
REMARK                            x       y       z     vdW  Elec       q    Type
REMARK                         _______ _______ _______ _____ _____    ______ ____
ROOT
ATOM      1  C   UNL     1       9.979  -1.316  22.584  0.00  0.00    +0.159 C 
ENDROOT
BRANCH   1   2
ATOM      2  O   UNL     1       9.192  -1.543  21.405  0.00  0.00    -0.388 OA
ATOM      3  H   UNL     1       9.487  -0.872  20.750  0.00  0.00    +0.210 HD
ENDBRANCH   1   2
BRANCH   1   4
ATOM      4  C   UNL     1       9.418  -0.078  23.309  0.00  0.00    +0.175 C 
BRANCH   4   5
ATOM      5  O   UNL     1       7.979  -0.165  23.391  0.00  0.00    -0.387 OA
ATOM      6  H   UNL     1       7.771  -0.099  24.346  0.00  0.00    +0.210 HD
ENDBRANCH   4   5
BRANCH   4   7
ATOM      7  C   UNL     1       9.745   1.232  22.559  0.00  0.00    +0.176 C 
BRANCH   7   8
ATOM      8  O   UNL     1       8.869   1.367  21.425  0.00  0.00    -0.386 OA
ATOM      9  H   UNL     1       8.017   0.972  21.700  0.00  0.00    +0.210 HD
ENDBRANCH   7   8
BRANCH   7  10
ATOM     10  C   UNL     1       9.644   2.473  23.457  0.00  0.00    +0.172 C 
BRANCH  10  11
ATOM     11  O   UNL     1       9.575   2.102  24.841  0.00  0.00    -0.387 OA
ATOM     12  H   UNL     1      10.468   1.776  25.074  0.00  0.00    +0.210 HD
ENDBRANCH  10  11
BRANCH  10  13
ATOM     13  C   UNL     1       8.443   3.326  23.101  0.00  0.00    +0.206 C 
BRANCH  13  14
ATOM     14  O   UNL     1       7.328   2.788  23.809  0.00  0.00    -0.284 OA
BRANCH  14  15
ATOM     15  P   UNL     1       5.858   3.055  22.937  0.00  0.00    +0.472 P 
ATOM     16  O   UNL     1       4.542   3.295  22.157  0.00  0.00    -0.228 OA
BRANCH  15  17
ATOM     17  O   UNL     1       6.814   3.686  21.769  0.00  0.00    -0.303 OA
ATOM     18  H   UNL     1       7.655   3.997  22.143  0.00  0.00    +0.222 HD
ENDBRANCH  15  17
BRANCH  15  19
ATOM     19  O   UNL     1       5.989   1.494  22.465  0.00  0.00    -0.303 OA
ATOM     20  H   UNL     1       5.411   0.898  22.967  0.00  0.00    +0.222 HD
ENDBRANCH  15  19
ENDBRANCH  14  15
ENDBRANCH  13  14
ENDBRANCH  10  13
ENDBRANCH   7  10
ENDBRANCH   4   7
ENDBRANCH   1   4
BRANCH   1  21
ATOM     21  C   UNL     1       9.982  -2.586  23.463  0.00  0.00    +0.119 C 
BRANCH  21  22
ATOM     22  N   UNL     1       8.613  -3.023  23.916  0.00  0.00    -0.282 NA
BRANCH  22  23
ATOM     23  C   UNL     1       8.052  -3.986  22.923  0.00  0.00    +0.212 C 
BRANCH  23  24
ATOM     24  P   UNL     1       6.230  -3.886  22.794  0.00  0.00    +0.342 P 
ATOM     25  O   UNL     1       4.688  -3.800  22.685  0.00  0.00    -0.257 OA
BRANCH  24  26
ATOM     26  O   UNL     1       6.419  -4.525  21.293  0.00  0.00    -0.323 OA
ATOM     27  H   UNL     1       7.302  -4.250  20.971  0.00  0.00    +0.220 HD
ENDBRANCH  24  26
BRANCH  24  28
ATOM     28  O   UNL     1       6.434  -2.289  22.403  0.00  0.00    -0.323 OA
ATOM     29  H   UNL     1       6.481  -2.132  21.440  0.00  0.00    +0.220 HD
ENDBRANCH  24  28
ENDBRANCH  23  24
ENDBRANCH  22  23
BRANCH  22  30
ATOM     30  C   UNL     1       8.735  -3.650  25.273  0.00  0.00    +0.173 C 
BRANCH  30  31
ATOM     31  C   UNL     1       8.981  -5.186  25.446  0.00  0.00    +0.360 C 
BRANCH  31  32
ATOM     32  O   UNL     1       8.466  -5.680  26.662  0.00  0.00    -0.506 OA
ATOM     33  H   UNL     1       8.165  -4.919  27.187  0.00  0.00    +0.287 HD
ENDBRANCH  31  32
BRANCH  31  34
ATOM     34  O   UNL     1      10.351  -5.503  25.393  0.00  0.00    -0.506 OA
ATOM     35  H   UNL     1      10.645  -5.434  26.326  0.00  0.00    +0.287 HD
ENDBRANCH  31  34
ENDBRANCH  30  31
ENDBRANCH  22  30
ENDBRANCH  21  22
ENDBRANCH   1  21
TORSDOF 22
ENDMDL
MODEL 7
REMARK VINA RESULT:      -5.2      1.618      3.262
REMARK  Name = 
REMARK  22 active torsions:
REMARK  status: ('A' for Active; 'I' for Inactive)
REMARK    1  A    between atoms: O_1  and  C_2
REMARK    2  A    between atoms: C_2  and  O_3
REMARK    3  A    between atoms: C_2  and  C_4
REMARK    4  A    between atoms: C_4  and  N_5
REMARK    5  A    between atoms: N_5  and  C_6
REMARK    6  A    between atoms: N_5  and  C_25
REMARK    7  A    between atoms: C_6  and  C_7
REMARK    8  A    between atoms: C_7  and  O_9
REMARK    9  A    between atoms: C_7  and  C_10
REMARK   10  A    between atoms: C_10  and  O_12
REMARK   11  A    between atoms: C_10  and  C_13
REMARK   12  A    between atoms: C_13  and  O_15
REMARK   13  A    between atoms: C_13  and  C_16
REMARK   14  A    between atoms: C_16  and  O_18
REMARK   15  A    between atoms: C_16  and  C_19
REMARK   16  A    between atoms: C_19  and  O_20
REMARK   17  A    between atoms: O_20  and  P_21
REMARK   18  A    between atoms: P_21  and  O_22
REMARK   19  A    between atoms: P_21  and  O_23
REMARK   20  A    between atoms: C_25  and  P_26
REMARK   21  A    between atoms: P_26  and  O_27
REMARK   22  A    between atoms: P_26  and  O_28
REMARK                            x       y       z     vdW  Elec       q    Type
REMARK                         _______ _______ _______ _____ _____    ______ ____
ROOT
ATOM      1  C   UNL     1       9.373  -1.777  22.695  0.00  0.00    +0.159 C 
ENDROOT
BRANCH   1   2
ATOM      2  O   UNL     1       9.978  -1.700  21.397  0.00  0.00    -0.388 OA
ATOM      3  H   UNL     1       9.244  -1.519  20.767  0.00  0.00    +0.210 HD
ENDBRANCH   1   2
BRANCH   1   4
ATOM      4  C   UNL     1       9.075  -0.343  23.177  0.00  0.00    +0.175 C 
BRANCH   4   5
ATOM      5  O   UNL     1       7.917   0.176  22.488  0.00  0.00    -0.387 OA
ATOM      6  H   UNL     1       8.119   0.080  21.535  0.00  0.00    +0.210 HD
ENDBRANCH   4   5
BRANCH   4   7
ATOM      7  C   UNL     1      10.243   0.623  22.881  0.00  0.00    +0.176 C 
BRANCH   7   8
ATOM      8  O   UNL     1       9.965   1.356  21.674  0.00  0.00    -0.386 OA
ATOM      9  H   UNL     1      10.425   2.215  21.773  0.00  0.00    +0.210 HD
ENDBRANCH   7   8
BRANCH   7  10
ATOM     10  C   UNL     1      10.521   1.592  24.038  0.00  0.00    +0.172 C 
BRANCH  10  11
ATOM     11  O   UNL     1      10.005   1.078  25.274  0.00  0.00    -0.387 OA
ATOM     12  H   UNL     1       9.422   0.331  25.030  0.00  0.00    +0.210 HD
ENDBRANCH  10  11
BRANCH  10  13
ATOM     13  C   UNL     1       9.931   2.963  23.775  0.00  0.00    +0.206 C 
BRANCH  13  14
ATOM     14  O   UNL     1       8.519   2.844  23.932  0.00  0.00    -0.284 OA
BRANCH  14  15
ATOM     15  P   UNL     1       7.695   4.079  23.043  0.00  0.00    +0.472 P 
ATOM     16  O   UNL     1       6.957   5.184  22.248  0.00  0.00    -0.228 OA
BRANCH  15  17
ATOM     17  O   UNL     1       9.151   4.822  22.972  0.00  0.00    -0.303 OA
ATOM     18  H   UNL     1       9.044   5.788  22.988  0.00  0.00    +0.222 HD
ENDBRANCH  15  17
BRANCH  15  19
ATOM     19  O   UNL     1       7.909   3.119  21.735  0.00  0.00    -0.303 OA
ATOM     20  H   UNL     1       7.455   2.266  21.814  0.00  0.00    +0.222 HD
ENDBRANCH  15  19
ENDBRANCH  14  15
ENDBRANCH  13  14
ENDBRANCH  10  13
ENDBRANCH   7  10
ENDBRANCH   4   7
ENDBRANCH   1   4
BRANCH   1  21
ATOM     21  C   UNL     1       8.115  -2.671  22.634  0.00  0.00    +0.119 C 
BRANCH  21  22
ATOM     22  N   UNL     1       8.314  -4.052  23.204  0.00  0.00    -0.282 NA
BRANCH  22  23
ATOM     23  C   UNL     1       9.026  -3.945  24.511  0.00  0.00    +0.212 C 
BRANCH  23  24
ATOM     24  P   UNL     1       8.301  -5.024  25.800  0.00  0.00    +0.342 P 
ATOM     25  O   UNL     1       7.687  -5.937  26.889  0.00  0.00    -0.257 OA
BRANCH  24  26
ATOM     26  O   UNL     1       8.888  -3.932  26.877  0.00  0.00    -0.323 OA
ATOM     27  H   UNL     1       8.904  -3.062  26.427  0.00  0.00    +0.220 HD
ENDBRANCH  24  26
BRANCH  24  28
ATOM     28  O   UNL     1       9.655  -5.966  25.648  0.00  0.00    -0.323 OA
ATOM     29  H   UNL     1      10.470  -5.446  25.504  0.00  0.00    +0.220 HD
ENDBRANCH  24  28
ENDBRANCH  23  24
ENDBRANCH  22  23
BRANCH  22  30
ATOM     30  C   UNL     1       6.971  -4.700  23.367  0.00  0.00    +0.173 C 
BRANCH  30  31
ATOM     31  C   UNL     1       6.250  -5.402  22.169  0.00  0.00    +0.360 C 
BRANCH  31  32
ATOM     32  O   UNL     1       5.454  -6.491  22.582  0.00  0.00    -0.506 OA
ATOM     33  H   UNL     1       4.743  -6.140  23.145  0.00  0.00    +0.287 HD
ENDBRANCH  31  32
BRANCH  31  34
ATOM     34  O   UNL     1       7.169  -5.874  21.212  0.00  0.00    -0.506 OA
ATOM     35  H   UNL     1       7.425  -5.068  20.716  0.00  0.00    +0.287 HD
ENDBRANCH  31  34
ENDBRANCH  30  31
ENDBRANCH  22  30
ENDBRANCH  21  22
ENDBRANCH   1  21
TORSDOF 22
ENDMDL
MODEL 8
REMARK VINA RESULT:      -5.2      1.547      2.172
REMARK  Name = 
REMARK  22 active torsions:
REMARK  status: ('A' for Active; 'I' for Inactive)
REMARK    1  A    between atoms: O_1  and  C_2
REMARK    2  A    between atoms: C_2  and  O_3
REMARK    3  A    between atoms: C_2  and  C_4
REMARK    4  A    between atoms: C_4  and  N_5
REMARK    5  A    between atoms: N_5  and  C_6
REMARK    6  A    between atoms: N_5  and  C_25
REMARK    7  A    between atoms: C_6  and  C_7
REMARK    8  A    between atoms: C_7  and  O_9
REMARK    9  A    between atoms: C_7  and  C_10
REMARK   10  A    between atoms: C_10  and  O_12
REMARK   11  A    between atoms: C_10  and  C_13
REMARK   12  A    between atoms: C_13  and  O_15
REMARK   13  A    between atoms: C_13  and  C_16
REMARK   14  A    between atoms: C_16  and  O_18
REMARK   15  A    between atoms: C_16  and  C_19
REMARK   16  A    between atoms: C_19  and  O_20
REMARK   17  A    between atoms: O_20  and  P_21
REMARK   18  A    between atoms: P_21  and  O_22
REMARK   19  A    between atoms: P_21  and  O_23
REMARK   20  A    between atoms: C_25  and  P_26
REMARK   21  A    between atoms: P_26  and  O_27
REMARK   22  A    between atoms: P_26  and  O_28
REMARK                            x       y       z     vdW  Elec       q    Type
REMARK                         _______ _______ _______ _____ _____    ______ ____
ROOT
ATOM      1  C   UNL     1       6.497  -2.003  24.343  0.00  0.00    +0.159 C 
ENDROOT
BRANCH   1   2
ATOM      2  O   UNL     1       5.826  -0.824  24.811  0.00  0.00    -0.388 OA
ATOM      3  H   UNL     1       4.865  -1.025  24.765  0.00  0.00    +0.210 HD
ENDBRANCH   1   2
BRANCH   1   4
ATOM      4  C   UNL     1       7.918  -1.606  23.897  0.00  0.00    +0.175 C 
BRANCH   4   5
ATOM      5  O   UNL     1       8.471  -0.640  24.816  0.00  0.00    -0.387 OA
ATOM      6  H   UNL     1       9.398  -0.923  24.961  0.00  0.00    +0.210 HD
ENDBRANCH   4   5
BRANCH   4   7
ATOM      7  C   UNL     1       7.925  -0.950  22.499  0.00  0.00    +0.176 C 
BRANCH   7   8
ATOM      8  O   UNL     1       7.390   0.383  22.592  0.00  0.00    -0.386 OA
ATOM      9  H   UNL     1       7.995   0.870  23.190  0.00  0.00    +0.210 HD
ENDBRANCH   7   8
BRANCH   7  10
ATOM     10  C   UNL     1       9.321  -0.918  21.863  0.00  0.00    +0.172 C 
BRANCH  10  11
ATOM     11  O   UNL     1      10.240  -1.737  22.600  0.00  0.00    -0.387 OA
ATOM     12  H   UNL     1      10.486  -1.216  23.391  0.00  0.00    +0.210 HD
ENDBRANCH  10  11
BRANCH  10  13
ATOM     13  C   UNL     1       9.863   0.494  21.772  0.00  0.00    +0.206 C 
BRANCH  13  14
ATOM     14  O   UNL     1      10.375   0.826  23.061  0.00  0.00    -0.284 OA
BRANCH  14  15
ATOM     15  P   UNL     1      10.259   2.528  23.350  0.00  0.00    +0.472 P 
ATOM     16  O   UNL     1      10.155   4.051  23.608  0.00  0.00    -0.228 OA
BRANCH  15  17
ATOM     17  O   UNL     1       9.461   2.587  21.923  0.00  0.00    -0.303 OA
ATOM     18  H   UNL     1       8.527   2.818  22.060  0.00  0.00    +0.222 HD
ENDBRANCH  15  17
BRANCH  15  19
ATOM     19  O   UNL     1       8.960   2.166  24.277  0.00  0.00    -0.303 OA
ATOM     20  H   UNL     1       8.207   2.757  24.119  0.00  0.00    +0.222 HD
ENDBRANCH  15  19
ENDBRANCH  14  15
ENDBRANCH  13  14
ENDBRANCH  10  13
ENDBRANCH   7  10
ENDBRANCH   4   7
ENDBRANCH   1   4
BRANCH   1  21
ATOM     21  C   UNL     1       6.487  -3.083  25.448  0.00  0.00    +0.119 C 
BRANCH  21  22
ATOM     22  N   UNL     1       6.257  -4.483  24.937  0.00  0.00    -0.282 NA
BRANCH  22  23
ATOM     23  C   UNL     1       5.354  -4.429  23.751  0.00  0.00    +0.212 C 
BRANCH  23  24
ATOM     24  P   UNL     1       6.100  -5.189  22.262  0.00  0.00    +0.342 P 
ATOM     25  O   UNL     1       6.731  -5.833  21.003  0.00  0.00    -0.257 OA
BRANCH  24  26
ATOM     26  O   UNL     1       5.574  -3.855  21.461  0.00  0.00    -0.323 OA
ATOM     27  H   UNL     1       4.603  -3.940  21.365  0.00  0.00    +0.220 HD
ENDBRANCH  24  26
BRANCH  24  28
ATOM     28  O   UNL     1       4.721  -6.100  22.144  0.00  0.00    -0.323 OA
ATOM     29  H   UNL     1       4.022  -5.821  22.768  0.00  0.00    +0.220 HD
ENDBRANCH  24  28
ENDBRANCH  23  24
ENDBRANCH  22  23
BRANCH  22  30
ATOM     30  C   UNL     1       7.584  -5.087  24.585  0.00  0.00    +0.173 C 
BRANCH  30  31
ATOM     31  C   UNL     1       8.724  -5.232  25.645  0.00  0.00    +0.360 C 
BRANCH  31  32
ATOM     32  O   UNL     1       9.830  -5.956  25.152  0.00  0.00    -0.506 OA
ATOM     33  H   UNL     1       9.491  -6.768  24.739  0.00  0.00    +0.287 HD
ENDBRANCH  31  32
BRANCH  31  34
ATOM     34  O   UNL     1       8.271  -5.874  26.814  0.00  0.00    -0.506 OA
ATOM     35  H   UNL     1       7.918  -6.729  26.490  0.00  0.00    +0.287 HD
ENDBRANCH  31  34
ENDBRANCH  30  31
ENDBRANCH  22  30
ENDBRANCH  21  22
ENDBRANCH   1  21
TORSDOF 22
ENDMDL
MODEL 9
REMARK VINA RESULT:      -5.2      2.147      7.005
REMARK  Name = 
REMARK  22 active torsions:
REMARK  status: ('A' for Active; 'I' for Inactive)
REMARK    1  A    between atoms: O_1  and  C_2
REMARK    2  A    between atoms: C_2  and  O_3
REMARK    3  A    between atoms: C_2  and  C_4
REMARK    4  A    between atoms: C_4  and  N_5
REMARK    5  A    between atoms: N_5  and  C_6
REMARK    6  A    between atoms: N_5  and  C_25
REMARK    7  A    between atoms: C_6  and  C_7
REMARK    8  A    between atoms: C_7  and  O_9
REMARK    9  A    between atoms: C_7  and  C_10
REMARK   10  A    between atoms: C_10  and  O_12
REMARK   11  A    between atoms: C_10  and  C_13
REMARK   12  A    between atoms: C_13  and  O_15
REMARK   13  A    between atoms: C_13  and  C_16
REMARK   14  A    between atoms: C_16  and  O_18
REMARK   15  A    between atoms: C_16  and  C_19
REMARK   16  A    between atoms: C_19  and  O_20
REMARK   17  A    between atoms: O_20  and  P_21
REMARK   18  A    between atoms: P_21  and  O_22
REMARK   19  A    between atoms: P_21  and  O_23
REMARK   20  A    between atoms: C_25  and  P_26
REMARK   21  A    between atoms: P_26  and  O_27
REMARK   22  A    between atoms: P_26  and  O_28
REMARK                            x       y       z     vdW  Elec       q    Type
REMARK                         _______ _______ _______ _____ _____    ______ ____
ROOT
ATOM      1  C   UNL     1       9.310  -2.430  23.605  0.00  0.00    +0.159 C 
ENDROOT
BRANCH   1   2
ATOM      2  O   UNL     1       9.534  -3.617  24.379  0.00  0.00    -0.388 OA
ATOM      3  H   UNL     1       9.979  -3.321  25.204  0.00  0.00    +0.210 HD
ENDBRANCH   1   2
BRANCH   1   4
ATOM      4  C   UNL     1       8.235  -2.739  22.544  0.00  0.00    +0.175 C 
BRANCH   4   5
ATOM      5  O   UNL     1       8.138  -1.643  21.609  0.00  0.00    -0.387 OA
ATOM      6  H   UNL     1       9.048  -1.508  21.274  0.00  0.00    +0.210 HD
ENDBRANCH   4   5
BRANCH   4   7
ATOM      7  C   UNL     1       6.836  -2.919  23.172  0.00  0.00    +0.176 C 
BRANCH   7   8
ATOM      8  O   UNL     1       5.936  -1.936  22.628  0.00  0.00    -0.386 OA
ATOM      9  H   UNL     1       6.234  -1.075  22.989  0.00  0.00    +0.210 HD
ENDBRANCH   7   8
BRANCH   7  10
ATOM     10  C   UNL     1       6.268  -4.329  22.964  0.00  0.00    +0.172 C 
BRANCH  10  11
ATOM     11  O   UNL     1       5.070  -4.291  22.176  0.00  0.00    -0.387 OA
ATOM     12  H   UNL     1       4.413  -4.830  22.662  0.00  0.00    +0.210 HD
ENDBRANCH  10  11
BRANCH  10  13
ATOM     13  C   UNL     1       5.983  -5.019  24.284  0.00  0.00    +0.206 C 
BRANCH  13  14
ATOM     14  O   UNL     1       7.244  -5.270  24.901  0.00  0.00    -0.284 OA
BRANCH  14  15
ATOM     15  P   UNL     1       7.092  -5.293  26.623  0.00  0.00    +0.472 P 
ATOM     16  O   UNL     1       6.955  -5.314  28.166  0.00  0.00    -0.228 OA
BRANCH  15  17
ATOM     17  O   UNL     1       8.650  -5.790  26.628  0.00  0.00    -0.303 OA
ATOM     18  H   UNL     1       8.716  -6.719  26.354  0.00  0.00    +0.222 HD
ENDBRANCH  15  17
BRANCH  15  19
ATOM     19  O   UNL     1       7.406  -3.688  26.558  0.00  0.00    -0.303 OA
ATOM     20  H   UNL     1       7.510  -3.361  25.651  0.00  0.00    +0.222 HD
ENDBRANCH  15  19
ENDBRANCH  14  15
ENDBRANCH  13  14
ENDBRANCH  10  13
ENDBRANCH   7  10
ENDBRANCH   4   7
ENDBRANCH   1   4
BRANCH   1  21
ATOM     21  C   UNL     1       8.922  -1.262  24.540  0.00  0.00    +0.119 C 
BRANCH  21  22
ATOM     22  N   UNL     1       8.696   0.047  23.827  0.00  0.00    -0.282 NA
BRANCH  22  23
ATOM     23  C   UNL     1       8.063   1.015  24.770  0.00  0.00    +0.212 C 
BRANCH  23  24
ATOM     24  P   UNL     1       6.517   1.737  24.108  0.00  0.00    +0.342 P 
ATOM     25  O   UNL     1       5.209   2.348  23.550  0.00  0.00    -0.257 OA
BRANCH  24  26
ATOM     26  O   UNL     1       6.672   0.653  22.885  0.00  0.00    -0.323 OA
ATOM     27  H   UNL     1       7.270  -0.056  23.201  0.00  0.00    +0.220 HD
ENDBRANCH  24  26
BRANCH  24  28
ATOM     28  O   UNL     1       7.456   2.948  23.478  0.00  0.00    -0.323 OA
ATOM     29  H   UNL     1       8.227   3.166  24.038  0.00  0.00    +0.220 HD
ENDBRANCH  24  28
ENDBRANCH  23  24
ENDBRANCH  22  23
BRANCH  22  30
ATOM     30  C   UNL     1      10.016   0.555  23.328  0.00  0.00    +0.173 C 
BRANCH  30  31
ATOM     31  C   UNL     1      10.117   1.451  22.049  0.00  0.00    +0.360 C 
BRANCH  31  32
ATOM     32  O   UNL     1      10.259   2.819  22.360  0.00  0.00    -0.506 OA
ATOM     33  H   UNL     1      10.305   3.309  21.521  0.00  0.00    +0.287 HD
ENDBRANCH  31  32
BRANCH  31  34
ATOM     34  O   UNL     1       8.987   1.307  21.222  0.00  0.00    -0.506 OA
ATOM     35  H   UNL     1       8.231   1.389  21.841  0.00  0.00    +0.287 HD
ENDBRANCH  31  34
ENDBRANCH  30  31
ENDBRANCH  22  30
ENDBRANCH  21  22
ENDBRANCH   1  21
TORSDOF 22
ENDMDL
