MODEL 1
REMARK VINA RESULT:      -6.2      0.000      0.000
REMARK  Name = 
REMARK  4 active torsions:
REMARK  status: ('A' for Active; 'I' for Inactive)
REMARK    1  A    between atoms: O_1  and  C_2
REMARK    2  A    between atoms: C_2  and  C_4
REMARK    3  A    between atoms: C_9  and  N_10
REMARK    4  A    between atoms: N_10  and  C_11
REMARK                            x       y       z     vdW  Elec       q    Type
REMARK                         _______ _______ _______ _____ _____    ______ ____
ROOT
ATOM      1  C   UNL     1       8.271  -4.152  24.023  0.00  0.00    +0.080 A 
ATOM      2  C   UNL     1       7.928  -2.859  23.547  0.00  0.00    +0.041 A 
ATOM      3  C   UNL     1       7.054  -2.809  22.446  0.00  0.00    +0.024 A 
ATOM      4  C   UNL     1       6.548  -3.965  21.840  0.00  0.00    +0.002 A 
ATOM      5  C   UNL     1       6.906  -5.217  22.314  0.00  0.00    +0.001 A 
ATOM      6  C   UNL     1       7.756  -5.313  23.411  0.00  0.00    +0.017 A 
ENDROOT
BRANCH   1   7
ATOM      7  C   UNL     1       9.182  -4.392  25.176  0.00  0.00    +0.339 C 
ATOM      8  O   UNL     1       9.015  -3.903  26.279  0.00  0.00    -0.245 OA
BRANCH   7   9
ATOM      9  O   UNL     1      10.193  -5.246  24.896  0.00  0.00    -0.477 OA
ATOM     10  H   UNL     1       9.876  -6.174  24.837  0.00  0.00    +0.295 HD
ENDBRANCH   7   9
ENDBRANCH   1   7
BRANCH   2  11
ATOM     11  N   UNL     1       8.531  -1.697  24.090  0.00  0.00    -0.340 N 
ATOM     12  H   UNL     1       7.906  -0.890  23.989  0.00  0.00    +0.146 HD
BRANCH  11  13
ATOM     13  C   UNL     1       9.927  -1.345  23.744  0.00  0.00    +0.070 C 
ATOM     14  C   UNL     1      10.315   0.006  24.365  0.00  0.00    +0.022 C 
ATOM     15  C   UNL     1       9.738   1.217  23.643  0.00  0.00    +0.002 C 
ATOM     16  C   UNL     1      10.001   1.167  22.143  0.00  0.00    +0.000 C 
ATOM     17  C   UNL     1       9.501  -0.138  21.535  0.00  0.00    +0.002 C 
ATOM     18  C   UNL     1      10.135  -1.346  22.222  0.00  0.00    +0.022 C 
ENDBRANCH  11  13
ENDBRANCH   2  11
TORSDOF 4
ENDMDL
MODEL 2
REMARK VINA RESULT:      -6.1      5.724      8.731
REMARK  Name = 
REMARK  4 active torsions:
REMARK  status: ('A' for Active; 'I' for Inactive)
REMARK    1  A    between atoms: O_1  and  C_2
REMARK    2  A    between atoms: C_2  and  C_4
REMARK    3  A    between atoms: C_9  and  N_10
REMARK    4  A    between atoms: N_10  and  C_11
REMARK                            x       y       z     vdW  Elec       q    Type
REMARK                         _______ _______ _______ _____ _____    ______ ____
ROOT
ATOM      1  C   UNL     1      11.970   5.677  23.782  0.00  0.00    +0.080 A 
ATOM      2  C   UNL     1      10.643   5.171  23.794  0.00  0.00    +0.041 A 
ATOM      3  C   UNL     1       9.789   5.680  24.790  0.00  0.00    +0.024 A 
ATOM      4  C   UNL     1      10.214   6.630  25.726  0.00  0.00    +0.002 A 
ATOM      5  C   UNL     1      11.517   7.101  25.702  0.00  0.00    +0.001 A 
ATOM      6  C   UNL     1      12.392   6.636  24.725  0.00  0.00    +0.017 A 
ENDROOT
BRANCH   1   7
ATOM      7  C   UNL     1      13.006   5.250  22.802  0.00  0.00    +0.339 C 
ATOM      8  O   UNL     1      12.837   5.264  21.595  0.00  0.00    -0.245 OA
BRANCH   7   9
ATOM      9  O   UNL     1      14.176   4.889  23.376  0.00  0.00    -0.477 OA
ATOM     10  H   UNL     1      14.507   4.036  23.017  0.00  0.00    +0.295 HD
ENDBRANCH   7   9
ENDBRANCH   1   7
BRANCH   2  11
ATOM     11  N   UNL     1      10.251   4.128  22.919  0.00  0.00    -0.340 N 
ATOM     12  H   UNL     1       9.317   4.316  22.536  0.00  0.00    +0.146 HD
BRANCH  11  13
ATOM     13  C   UNL     1      10.391   2.713  23.329  0.00  0.00    +0.070 C 
ATOM     14  C   UNL     1      10.234   1.780  22.117  0.00  0.00    +0.022 C 
ATOM     15  C   UNL     1       8.796   1.593  21.650  0.00  0.00    +0.002 C 
ATOM     16  C   UNL     1       7.866   1.220  22.799  0.00  0.00    +0.000 C 
ATOM     17  C   UNL     1       7.958   2.228  23.938  0.00  0.00    +0.002 C 
ATOM     18  C   UNL     1       9.394   2.360  24.444  0.00  0.00    +0.022 C 
ENDBRANCH  11  13
ENDBRANCH   2  11
TORSDOF 4
ENDMDL
MODEL 3
REMARK VINA RESULT:      -5.8      1.785      2.693
REMARK  Name = 
REMARK  4 active torsions:
REMARK  status: ('A' for Active; 'I' for Inactive)
REMARK    1  A    between atoms: O_1  and  C_2
REMARK    2  A    between atoms: C_2  and  C_4
REMARK    3  A    between atoms: C_9  and  N_10
REMARK    4  A    between atoms: N_10  and  C_11
REMARK                            x       y       z     vdW  Elec       q    Type
REMARK                         _______ _______ _______ _____ _____    ______ ____
ROOT
ATOM      1  C   UNL     1       7.797  -4.870  25.324  0.00  0.00    +0.080 A 
ATOM      2  C   UNL     1       7.226  -4.269  24.170  0.00  0.00    +0.041 A 
ATOM      3  C   UNL     1       5.840  -4.436  23.998  0.00  0.00    +0.024 A 
ATOM      4  C   UNL     1       5.055  -5.157  24.906  0.00  0.00    +0.002 A 
ATOM      5  C   UNL     1       5.635  -5.744  26.020  0.00  0.00    +0.001 A 
ATOM      6  C   UNL     1       7.001  -5.592  26.237  0.00  0.00    +0.017 A 
ENDROOT
BRANCH   1   7
ATOM      7  C   UNL     1       9.244  -4.796  25.663  0.00  0.00    +0.339 C 
ATOM      8  O   UNL     1      10.125  -4.680  24.829  0.00  0.00    -0.245 OA
BRANCH   7   9
ATOM      9  O   UNL     1       9.490  -4.822  26.992  0.00  0.00    -0.477 OA
ATOM     10  H   UNL     1       8.814  -4.316  27.495  0.00  0.00    +0.295 HD
ENDBRANCH   7   9
ENDBRANCH   1   7
BRANCH   2  11
ATOM     11  N   UNL     1       8.041  -3.639  23.197  0.00  0.00    -0.340 N 
ATOM     12  H   UNL     1       9.028  -3.870  23.354  0.00  0.00    +0.146 HD
BRANCH  11  13
ATOM     13  C   UNL     1       7.867  -2.201  22.890  0.00  0.00    +0.070 C 
ATOM     14  C   UNL     1       8.966  -1.715  21.933  0.00  0.00    +0.022 C 
ATOM     15  C   UNL     1      10.323  -1.498  22.594  0.00  0.00    +0.002 C 
ATOM     16  C   UNL     1      10.217  -0.639  23.848  0.00  0.00    +0.000 C 
ATOM     17  C   UNL     1       9.202  -1.212  24.829  0.00  0.00    +0.002 C 
ATOM     18  C   UNL     1       7.828  -1.363  24.177  0.00  0.00    +0.022 C 
ENDBRANCH  11  13
ENDBRANCH   2  11
TORSDOF 4
ENDMDL
MODEL 4
REMARK VINA RESULT:      -5.7      2.346      2.816
REMARK  Name = 
REMARK  4 active torsions:
REMARK  status: ('A' for Active; 'I' for Inactive)
REMARK    1  A    between atoms: O_1  and  C_2
REMARK    2  A    between atoms: C_2  and  C_4
REMARK    3  A    between atoms: C_9  and  N_10
REMARK    4  A    between atoms: N_10  and  C_11
REMARK                            x       y       z     vdW  Elec       q    Type
REMARK                         _______ _______ _______ _____ _____    ______ ____
ROOT
ATOM      1  C   UNL     1       7.067  -2.427  24.256  0.00  0.00    +0.080 A 
ATOM      2  C   UNL     1       8.471  -2.248  24.360  0.00  0.00    +0.041 A 
ATOM      3  C   UNL     1       9.243  -3.415  24.504  0.00  0.00    +0.024 A 
ATOM      4  C   UNL     1       8.668  -4.691  24.550  0.00  0.00    +0.002 A 
ATOM      5  C   UNL     1       7.293  -4.842  24.458  0.00  0.00    +0.001 A 
ATOM      6  C   UNL     1       6.492  -3.715  24.299  0.00  0.00    +0.017 A 
ENDROOT
BRANCH   1   7
ATOM      7  C   UNL     1       6.100  -1.306  24.100  0.00  0.00    +0.339 C 
ATOM      8  O   UNL     1       5.242  -1.039  24.922  0.00  0.00    -0.245 OA
BRANCH   7   9
ATOM      9  O   UNL     1       6.294  -0.578  22.978  0.00  0.00    -0.477 OA
ATOM     10  H   UNL     1       5.965   0.342  23.082  0.00  0.00    +0.295 HD
ENDBRANCH   7   9
ENDBRANCH   1   7
BRANCH   2  11
ATOM     11  N   UNL     1       9.038  -0.950  24.428  0.00  0.00    -0.340 N 
ATOM     12  H   UNL     1       8.328  -0.239  24.222  0.00  0.00    +0.146 HD
BRANCH  11  13
ATOM     13  C   UNL     1      10.314  -0.653  23.739  0.00  0.00    +0.070 C 
ATOM     14  C   UNL     1      10.880   0.697  24.207  0.00  0.00    +0.022 C 
ATOM     15  C   UNL     1      10.177   1.912  23.615  0.00  0.00    +0.002 C 
ATOM     16  C   UNL     1      10.060   1.822  22.098  0.00  0.00    +0.000 C 
ATOM     17  C   UNL     1       9.389   0.522  21.669  0.00  0.00    +0.002 C 
ATOM     18  C   UNL     1      10.140  -0.692  22.213  0.00  0.00    +0.022 C 
ENDBRANCH  11  13
ENDBRANCH   2  11
TORSDOF 4
ENDMDL
MODEL 5
REMARK VINA RESULT:      -5.6      2.237      4.966
REMARK  Name = 
REMARK  4 active torsions:
REMARK  status: ('A' for Active; 'I' for Inactive)
REMARK    1  A    between atoms: O_1  and  C_2
REMARK    2  A    between atoms: C_2  and  C_4
REMARK    3  A    between atoms: C_9  and  N_10
REMARK    4  A    between atoms: N_10  and  C_11
REMARK                            x       y       z     vdW  Elec       q    Type
REMARK                         _______ _______ _______ _____ _____    ______ ____
ROOT
ATOM      1  C   UNL     1       8.862  -0.384  22.550  0.00  0.00    +0.080 A 
ATOM      2  C   UNL     1       7.590  -0.366  23.181  0.00  0.00    +0.041 A 
ATOM      3  C   UNL     1       6.797   0.775  22.960  0.00  0.00    +0.024 A 
ATOM      4  C   UNL     1       7.231   1.844  22.167  0.00  0.00    +0.002 A 
ATOM      5  C   UNL     1       8.482   1.811  21.570  0.00  0.00    +0.001 A 
ATOM      6  C   UNL     1       9.293   0.694  21.750  0.00  0.00    +0.017 A 
ENDROOT
BRANCH   1   7
ATOM      7  C   UNL     1       9.830  -1.508  22.675  0.00  0.00    +0.339 C 
ATOM      8  O   UNL     1       9.916  -2.214  23.664  0.00  0.00    -0.245 OA
BRANCH   7   9
ATOM      9  O   UNL     1      10.576  -1.704  21.565  0.00  0.00    -0.477 OA
ATOM     10  H   UNL     1      10.496  -2.625  21.233  0.00  0.00    +0.295 HD
ENDBRANCH   7   9
ENDBRANCH   1   7
BRANCH   2  11
ATOM     11  N   UNL     1       7.203  -1.397  24.073  0.00  0.00    -0.340 N 
ATOM     12  H   UNL     1       8.014  -1.973  24.326  0.00  0.00    +0.146 HD
BRANCH  11  13
ATOM     13  C   UNL     1       6.017  -2.234  23.782  0.00  0.00    +0.070 C 
ATOM     14  C   UNL     1       5.854  -3.331  24.846  0.00  0.00    +0.022 C 
ATOM     15  C   UNL     1       6.823  -4.498  24.697  0.00  0.00    +0.002 C 
ATOM     16  C   UNL     1       6.831  -5.056  23.279  0.00  0.00    +0.000 C 
ATOM     17  C   UNL     1       7.110  -3.963  22.254  0.00  0.00    +0.002 C 
ATOM     18  C   UNL     1       6.094  -2.828  22.367  0.00  0.00    +0.022 C 
ENDBRANCH  11  13
ENDBRANCH   2  11
TORSDOF 4
ENDMDL
MODEL 6
REMARK VINA RESULT:      -5.5      5.232      8.259
REMARK  Name = 
REMARK  4 active torsions:
REMARK  status: ('A' for Active; 'I' for Inactive)
REMARK    1  A    between atoms: O_1  and  C_2
REMARK    2  A    between atoms: C_2  and  C_4
REMARK    3  A    between atoms: C_9  and  N_10
REMARK    4  A    between atoms: N_10  and  C_11
REMARK                            x       y       z     vdW  Elec       q    Type
REMARK                         _______ _______ _______ _____ _____    ______ ____
ROOT
ATOM      1  C   UNL     1      10.753   5.669  24.154  0.00  0.00    +0.080 A 
ATOM      2  C   UNL     1       9.663   4.783  23.950  0.00  0.00    +0.041 A 
ATOM      3  C   UNL     1       8.454   5.119  24.587  0.00  0.00    +0.024 A 
ATOM      4  C   UNL     1       8.323   6.262  25.385  0.00  0.00    +0.002 A 
ATOM      5  C   UNL     1       9.404   7.108  25.579  0.00  0.00    +0.001 A 
ATOM      6  C   UNL     1      10.614   6.821  24.956  0.00  0.00    +0.017 A 
ENDROOT
BRANCH   1   7
ATOM      7  C   UNL     1      12.103   5.469  23.559  0.00  0.00    +0.339 C 
ATOM      8  O   UNL     1      12.290   4.922  22.487  0.00  0.00    -0.245 OA
BRANCH   7   9
ATOM      9  O   UNL     1      13.103   5.994  24.300  0.00  0.00    -0.477 OA
ATOM     10  H   UNL     1      13.949   5.516  24.158  0.00  0.00    +0.295 HD
ENDBRANCH   7   9
ENDBRANCH   1   7
BRANCH   2  11
ATOM     11  N   UNL     1       9.832   3.570  23.237  0.00  0.00    -0.340 N 
ATOM     12  H   UNL     1       9.943   3.758  22.234  0.00  0.00    +0.146 HD
BRANCH  11  13
ATOM     13  C   UNL     1       8.920   2.427  23.473  0.00  0.00    +0.070 C 
ATOM     14  C   UNL     1       9.473   1.512  24.577  0.00  0.00    +0.022 C 
ATOM     15  C   UNL     1      10.622   0.616  24.132  0.00  0.00    +0.002 C 
ATOM     16  C   UNL     1      10.292  -0.145  22.854  0.00  0.00    +0.000 C 
ATOM     17  C   UNL     1       9.857   0.801  21.741  0.00  0.00    +0.002 C 
ATOM     18  C   UNL     1       8.662   1.650  22.173  0.00  0.00    +0.022 C 
ENDBRANCH  11  13
ENDBRANCH   2  11
TORSDOF 4
ENDMDL
MODEL 7
REMARK VINA RESULT:      -5.5      2.408      5.355
REMARK  Name = 
REMARK  4 active torsions:
REMARK  status: ('A' for Active; 'I' for Inactive)
REMARK    1  A    between atoms: O_1  and  C_2
REMARK    2  A    between atoms: C_2  and  C_4
REMARK    3  A    between atoms: C_9  and  N_10
REMARK    4  A    between atoms: N_10  and  C_11
REMARK                            x       y       z     vdW  Elec       q    Type
REMARK                         _______ _______ _______ _____ _____    ______ ____
ROOT
ATOM      1  C   UNL     1       8.951  -3.873  24.386  0.00  0.00    +0.080 A 
ATOM      2  C   UNL     1       7.800  -4.032  23.570  0.00  0.00    +0.041 A 
ATOM      3  C   UNL     1       7.652  -3.118  22.511  0.00  0.00    +0.024 A 
ATOM      4  C   UNL     1       8.581  -2.099  22.267  0.00  0.00    +0.002 A 
ATOM      5  C   UNL     1       9.692  -1.955  23.084  0.00  0.00    +0.001 A 
ATOM      6  C   UNL     1       9.886  -2.847  24.135  0.00  0.00    +0.017 A 
ENDROOT
BRANCH   1   7
ATOM      7  C   UNL     1       9.266  -4.747  25.549  0.00  0.00    +0.339 C 
ATOM      8  O   UNL     1       8.608  -4.766  26.574  0.00  0.00    -0.245 OA
BRANCH   7   9
ATOM      9  O   UNL     1      10.330  -5.556  25.344  0.00  0.00    -0.477 OA
ATOM     10  H   UNL     1      10.619  -5.992  26.176  0.00  0.00    +0.295 HD
ENDBRANCH   7   9
ENDBRANCH   1   7
BRANCH   2  11
ATOM     11  N   UNL     1       6.807  -4.991  23.889  0.00  0.00    -0.340 N 
ATOM     12  H   UNL     1       6.621  -5.594  23.080  0.00  0.00    +0.146 HD
BRANCH  11  13
ATOM     13  C   UNL     1       5.550  -4.576  24.553  0.00  0.00    +0.070 C 
ATOM     14  C   UNL     1       5.205  -5.532  25.706  0.00  0.00    +0.022 C 
ATOM     15  C   UNL     1       4.631  -6.872  25.261  0.00  0.00    +0.002 C 
ATOM     16  C   UNL     1       3.477  -6.701  24.279  0.00  0.00    +0.000 C 
ATOM     17  C   UNL     1       3.885  -5.843  23.087  0.00  0.00    +0.002 C 
ATOM     18  C   UNL     1       4.398  -4.477  23.540  0.00  0.00    +0.022 C 
ENDBRANCH  11  13
ENDBRANCH   2  11
TORSDOF 4
ENDMDL
MODEL 8
REMARK VINA RESULT:      -5.5      2.709      3.667
REMARK  Name = 
REMARK  4 active torsions:
REMARK  status: ('A' for Active; 'I' for Inactive)
REMARK    1  A    between atoms: O_1  and  C_2
REMARK    2  A    between atoms: C_2  and  C_4
REMARK    3  A    between atoms: C_9  and  N_10
REMARK    4  A    between atoms: N_10  and  C_11
REMARK                            x       y       z     vdW  Elec       q    Type
REMARK                         _______ _______ _______ _____ _____    ______ ____
ROOT
ATOM      1  C   UNL     1       6.072  -5.797  26.201  0.00  0.00    +0.080 A 
ATOM      2  C   UNL     1       6.365  -5.325  24.895  0.00  0.00    +0.041 A 
ATOM      3  C   UNL     1       5.516  -5.765  23.864  0.00  0.00    +0.024 A 
ATOM      4  C   UNL     1       4.439  -6.628  24.100  0.00  0.00    +0.002 A 
ATOM      5  C   UNL     1       4.178  -7.086  25.382  0.00  0.00    +0.001 A 
ATOM      6  C   UNL     1       4.984  -6.664  26.434  0.00  0.00    +0.017 A 
ENDROOT
BRANCH   1   7
ATOM      7  C   UNL     1       6.865  -5.435  27.408  0.00  0.00    +0.339 C 
ATOM      8  O   UNL     1       6.373  -4.964  28.418  0.00  0.00    -0.245 OA
BRANCH   7   9
ATOM      9  O   UNL     1       8.181  -5.722  27.296  0.00  0.00    -0.477 OA
ATOM     10  H   UNL     1       8.619  -5.762  28.175  0.00  0.00    +0.295 HD
ENDBRANCH   7   9
ENDBRANCH   1   7
BRANCH   2  11
ATOM     11  N   UNL     1       7.522  -4.545  24.643  0.00  0.00    -0.340 N 
ATOM     12  H   UNL     1       8.319  -4.905  25.180  0.00  0.00    +0.146 HD
BRANCH  11  13
ATOM     13  C   UNL     1       7.458  -3.067  24.701  0.00  0.00    +0.070 C 
ATOM     14  C   UNL     1       6.926  -2.496  23.378  0.00  0.00    +0.022 C 
ATOM     15  C   UNL     1       7.942  -2.494  22.242  0.00  0.00    +0.002 C 
ATOM     16  C   UNL     1       9.266  -1.865  22.660  0.00  0.00    +0.000 C 
ATOM     17  C   UNL     1       9.826  -2.531  23.911  0.00  0.00    +0.002 C 
ATOM     18  C   UNL     1       8.826  -2.469  25.064  0.00  0.00    +0.022 C 
ENDBRANCH  11  13
ENDBRANCH   2  11
TORSDOF 4
ENDMDL
MODEL 9
REMARK VINA RESULT:      -5.4      2.409      3.100
REMARK  Name = 
REMARK  4 active torsions:
REMARK  status: ('A' for Active; 'I' for Inactive)
REMARK    1  A    between atoms: O_1  and  C_2
REMARK    2  A    between atoms: C_2  and  C_4
REMARK    3  A    between atoms: C_9  and  N_10
REMARK    4  A    between atoms: N_10  and  C_11
REMARK                            x       y       z     vdW  Elec       q    Type
REMARK                         _______ _______ _______ _____ _____    ______ ____
ROOT
ATOM      1  C   UNL     1       6.495  -4.074  23.905  0.00  0.00    +0.080 A 
ATOM      2  C   UNL     1       7.894  -3.846  23.965  0.00  0.00    +0.041 A 
ATOM      3  C   UNL     1       8.587  -4.472  25.017  0.00  0.00    +0.024 A 
ATOM      4  C   UNL     1       7.942  -5.277  25.963  0.00  0.00    +0.002 A 
ATOM      5  C   UNL     1       6.572  -5.478  25.892  0.00  0.00    +0.001 A 
ATOM      6  C   UNL     1       5.849  -4.889  24.859  0.00  0.00    +0.017 A 
ENDROOT
BRANCH   1   7
ATOM      7  C   UNL     1       5.606  -3.491  22.863  0.00  0.00    +0.339 C 
ATOM      8  O   UNL     1       4.798  -4.143  22.227  0.00  0.00    -0.245 OA
BRANCH   7   9
ATOM      9  O   UNL     1       5.746  -2.154  22.721  0.00  0.00    -0.477 OA
ATOM     10  H   UNL     1       5.905  -1.712  23.585  0.00  0.00    +0.295 HD
ENDBRANCH   7   9
ENDBRANCH   1   7
BRANCH   2  11
ATOM     11  N   UNL     1       8.525  -2.940  23.075  0.00  0.00    -0.340 N 
ATOM     12  H   UNL     1       8.858  -3.435  22.240  0.00  0.00    +0.146 HD
BRANCH  11  13
ATOM     13  C   UNL     1       9.535  -1.980  23.573  0.00  0.00    +0.070 C 
ATOM     14  C   UNL     1       8.864  -0.853  24.372  0.00  0.00    +0.022 C 
ATOM     15  C   UNL     1       8.165   0.195  23.515  0.00  0.00    +0.002 C 
ATOM     16  C   UNL     1       9.069   0.723  22.407  0.00  0.00    +0.000 C 
ATOM     17  C   UNL     1       9.628  -0.413  21.558  0.00  0.00    +0.002 C 
ATOM     18  C   UNL     1      10.384  -1.424  22.419  0.00  0.00    +0.022 C 
ENDBRANCH  11  13
ENDBRANCH   2  11
TORSDOF 4
ENDMDL
