MODEL 1
REMARK VINA RESULT:      -6.1      0.000      0.000
REMARK  Name = 
REMARK  5 active torsions:
REMARK  status: ('A' for Active; 'I' for Inactive)
REMARK    1  A    between atoms: O_1  and  C_2
REMARK    2  A    between atoms: C_2  and  C_4
REMARK    3  A    between atoms: C_4  and  C_5
REMARK    4  A    between atoms: C_5  and  C_6
REMARK    5  A    between atoms: N_8  and  C_9
REMARK                            x       y       z     vdW  Elec       q    Type
REMARK                         _______ _______ _______ _____ _____    ______ ____
ROOT
ATOM      1  C   UNL     1      10.259   4.383  23.724  0.00  0.00    +0.219 C 
ATOM      2  N   UNL     1      10.943   3.420  23.012  0.00  0.00    -0.270 N 
ATOM      3  H   UNL     1      11.939   3.544  22.877  0.00  0.00    +0.156 HD
ATOM      4  O   UNL     1       9.259   4.190  24.410  0.00  0.00    -0.275 OA
ENDROOT
BRANCH   2   5
ATOM      5  C   UNL     1      10.552   2.082  22.998  0.00  0.00    +0.125 A 
ATOM      6  N   UNL     1      10.861   1.387  24.110  0.00  0.00    -0.239 NA
ATOM      7  C   UNL     1      10.357   0.131  24.198  0.00  0.00    +0.128 A 
ATOM      8  C   UNL     1       9.625  -0.482  23.192  0.00  0.00    +0.036 A 
ATOM      9 BR   UNL     1       8.908  -2.208  23.428  0.00  0.00    -0.049 Br
ATOM     10  C   UNL     1       9.409   0.216  22.014  0.00  0.00    +0.020 A 
ATOM     11  C   UNL     1       9.875   1.524  21.916  0.00  0.00    +0.045 A 
ENDBRANCH   2   5
BRANCH   1  12
ATOM     12  C   UNL     1      10.819   5.771  23.552  0.00  0.00    +0.107 C 
BRANCH  12  13
ATOM     13  C   UNL     1      12.283   5.764  23.981  0.00  0.00    +0.129 C 
BRANCH  13  14
ATOM     14  C   UNL     1      13.188   5.431  22.835  0.00  0.00    +0.305 C 
ATOM     15  O   UNL     1      12.889   5.515  21.652  0.00  0.00    -0.251 OA
BRANCH  14  16
ATOM     16  O   UNL     1      14.415   5.034  23.246  0.00  0.00    -0.481 OA
ATOM     17  H   UNL     1      14.725   4.209  22.826  0.00  0.00    +0.295 HD
ENDBRANCH  14  16
ENDBRANCH  13  14
ENDBRANCH  12  13
ENDBRANCH   1  12
TORSDOF 5
ENDMDL
MODEL 2
REMARK VINA RESULT:      -5.6      3.490      4.917
REMARK  Name = 
REMARK  5 active torsions:
REMARK  status: ('A' for Active; 'I' for Inactive)
REMARK    1  A    between atoms: O_1  and  C_2
REMARK    2  A    between atoms: C_2  and  C_4
REMARK    3  A    between atoms: C_4  and  C_5
REMARK    4  A    between atoms: C_5  and  C_6
REMARK    5  A    between atoms: N_8  and  C_9
REMARK                            x       y       z     vdW  Elec       q    Type
REMARK                         _______ _______ _______ _____ _____    ______ ____
ROOT
ATOM      1  C   UNL     1      10.020  -0.545  23.727  0.00  0.00    +0.219 C 
ATOM      2  N   UNL     1       8.985  -1.180  24.379  0.00  0.00    -0.270 N 
ATOM      3  H   UNL     1       8.385  -0.624  24.976  0.00  0.00    +0.156 HD
ATOM      4  O   UNL     1      10.490  -0.874  22.641  0.00  0.00    -0.275 OA
ENDROOT
BRANCH   2   5
ATOM      5  C   UNL     1       8.344  -2.301  23.852  0.00  0.00    +0.125 A 
ATOM      6  N   UNL     1       7.450  -2.040  22.879  0.00  0.00    -0.239 NA
ATOM      7  C   UNL     1       6.927  -3.113  22.235  0.00  0.00    +0.128 A 
ATOM      8  C   UNL     1       7.203  -4.429  22.573  0.00  0.00    +0.036 A 
ATOM      9 BR   UNL     1       6.481  -5.858  21.580  0.00  0.00    -0.049 Br
ATOM     10  C   UNL     1       8.045  -4.672  23.647  0.00  0.00    +0.020 A 
ATOM     11  C   UNL     1       8.632  -3.589  24.295  0.00  0.00    +0.045 A 
ENDBRANCH   2   5
BRANCH   1  12
ATOM     12  C   UNL     1      10.604   0.608  24.501  0.00  0.00    +0.107 C 
BRANCH  12  13
ATOM     13  C   UNL     1       9.838   1.877  24.141  0.00  0.00    +0.129 C 
BRANCH  13  14
ATOM     14  C   UNL     1      10.557   2.672  23.094  0.00  0.00    +0.305 C 
ATOM     15  O   UNL     1      11.333   3.591  23.314  0.00  0.00    -0.251 OA
BRANCH  14  16
ATOM     16  O   UNL     1      10.272   2.248  21.841  0.00  0.00    -0.481 OA
ATOM     17  H   UNL     1      10.105   1.288  21.776  0.00  0.00    +0.295 HD
ENDBRANCH  14  16
ENDBRANCH  13  14
ENDBRANCH  12  13
ENDBRANCH   1  12
TORSDOF 5
ENDMDL
MODEL 3
REMARK VINA RESULT:      -5.6      5.080      7.648
REMARK  Name = 
REMARK  5 active torsions:
REMARK  status: ('A' for Active; 'I' for Inactive)
REMARK    1  A    between atoms: O_1  and  C_2
REMARK    2  A    between atoms: C_2  and  C_4
REMARK    3  A    between atoms: C_4  and  C_5
REMARK    4  A    between atoms: C_5  and  C_6
REMARK    5  A    between atoms: N_8  and  C_9
REMARK                            x       y       z     vdW  Elec       q    Type
REMARK                         _______ _______ _______ _____ _____    ______ ____
ROOT
ATOM      1  C   UNL     1       7.855  -2.858  23.196  0.00  0.00    +0.219 C 
ATOM      2  N   UNL     1       9.137  -2.373  23.045  0.00  0.00    -0.270 N 
ATOM      3  H   UNL     1       9.785  -2.907  22.480  0.00  0.00    +0.156 HD
ATOM      4  O   UNL     1       6.848  -2.176  23.366  0.00  0.00    -0.275 OA
ENDROOT
BRANCH   2   5
ATOM      5  C   UNL     1       9.428  -1.009  23.070  0.00  0.00    +0.125 A 
ATOM      6  N   UNL     1       9.651  -0.498  24.296  0.00  0.00    -0.239 NA
ATOM      7  C   UNL     1      10.093   0.784  24.346  0.00  0.00    +0.128 A 
ATOM      8  C   UNL     1      10.247   1.593  23.230  0.00  0.00    +0.036 A 
ATOM      9 BR   UNL     1      10.928   3.343  23.388  0.00  0.00    -0.049 Br
ATOM     10  C   UNL     1       9.910   1.077  21.988  0.00  0.00    +0.020 A 
ATOM     11  C   UNL     1       9.500  -0.251  21.904  0.00  0.00    +0.045 A 
ENDBRANCH   2   5
BRANCH   1  12
ATOM     12  C   UNL     1       7.775  -4.362  23.195  0.00  0.00    +0.107 C 
BRANCH  12  13
ATOM     13  C   UNL     1       7.568  -4.842  24.628  0.00  0.00    +0.129 C 
BRANCH  13  14
ATOM     14  C   UNL     1       8.868  -5.202  25.279  0.00  0.00    +0.305 C 
ATOM     15  O   UNL     1       9.976  -4.914  24.849  0.00  0.00    -0.251 OA
BRANCH  14  16
ATOM     16  O   UNL     1       8.694  -5.881  26.437  0.00  0.00    -0.481 OA
ATOM     17  H   UNL     1       9.337  -6.601  26.574  0.00  0.00    +0.295 HD
ENDBRANCH  14  16
ENDBRANCH  13  14
ENDBRANCH  12  13
ENDBRANCH   1  12
TORSDOF 5
ENDMDL
MODEL 4
REMARK VINA RESULT:      -5.6      5.688      8.465
REMARK  Name = 
REMARK  5 active torsions:
REMARK  status: ('A' for Active; 'I' for Inactive)
REMARK    1  A    between atoms: O_1  and  C_2
REMARK    2  A    between atoms: C_2  and  C_4
REMARK    3  A    between atoms: C_4  and  C_5
REMARK    4  A    between atoms: C_5  and  C_6
REMARK    5  A    between atoms: N_8  and  C_9
REMARK                            x       y       z     vdW  Elec       q    Type
REMARK                         _______ _______ _______ _____ _____    ______ ____
ROOT
ATOM      1  C   UNL     1       8.222  -3.850  23.541  0.00  0.00    +0.219 C 
ATOM      2  N   UNL     1       7.628  -2.796  22.879  0.00  0.00    -0.270 N 
ATOM      3  H   UNL     1       6.617  -2.761  22.849  0.00  0.00    +0.156 HD
ATOM      4  O   UNL     1       9.307  -3.814  24.116  0.00  0.00    -0.275 OA
ENDROOT
BRANCH   2   5
ATOM      5  C   UNL     1       8.222  -1.537  22.794  0.00  0.00    +0.125 A 
ATOM      6  N   UNL     1       7.866  -0.673  23.764  0.00  0.00    -0.239 NA
ATOM      7  C   UNL     1       8.541   0.502  23.805  0.00  0.00    +0.128 A 
ATOM      8  C   UNL     1       9.499   0.877  22.876  0.00  0.00    +0.036 A 
ATOM      9 BR   UNL     1      10.435   2.504  23.049  0.00  0.00    -0.049 Br
ATOM     10  C   UNL     1       9.773   0.015  21.825  0.00  0.00    +0.020 A 
ATOM     11  C   UNL     1       9.128  -1.218  21.786  0.00  0.00    +0.045 A 
ENDBRANCH   2   5
BRANCH   1  12
ATOM     12  C   UNL     1       7.437  -5.132  23.460  0.00  0.00    +0.107 C 
BRANCH  12  13
ATOM     13  C   UNL     1       7.415  -5.602  22.008  0.00  0.00    +0.129 C 
BRANCH  13  14
ATOM     14  C   UNL     1       6.099  -5.307  21.356  0.00  0.00    +0.305 C 
ATOM     15  O   UNL     1       5.758  -4.218  20.917  0.00  0.00    -0.251 OA
BRANCH  14  16
ATOM     16  O   UNL     1       5.307  -6.401  21.278  0.00  0.00    -0.481 OA
ATOM     17  H   UNL     1       5.483  -6.963  20.500  0.00  0.00    +0.295 HD
ENDBRANCH  14  16
ENDBRANCH  13  14
ENDBRANCH  12  13
ENDBRANCH   1  12
TORSDOF 5
ENDMDL
MODEL 5
REMARK VINA RESULT:      -5.5      5.861      8.719
REMARK  Name = 
REMARK  5 active torsions:
REMARK  status: ('A' for Active; 'I' for Inactive)
REMARK    1  A    between atoms: O_1  and  C_2
REMARK    2  A    between atoms: C_2  and  C_4
REMARK    3  A    between atoms: C_4  and  C_5
REMARK    4  A    between atoms: C_5  and  C_6
REMARK    5  A    between atoms: N_8  and  C_9
REMARK                            x       y       z     vdW  Elec       q    Type
REMARK                         _______ _______ _______ _____ _____    ______ ____
ROOT
ATOM      1  C   UNL     1       7.270  -3.717  23.487  0.00  0.00    +0.219 C 
ATOM      2  N   UNL     1       8.592  -3.464  23.186  0.00  0.00    -0.270 N 
ATOM      3  H   UNL     1       9.075  -4.113  22.579  0.00  0.00    +0.156 HD
ATOM      4  O   UNL     1       6.417  -2.869  23.733  0.00  0.00    -0.275 OA
ENDROOT
BRANCH   2   5
ATOM      5  C   UNL     1       9.111  -2.170  23.128  0.00  0.00    +0.125 A 
ATOM      6  N   UNL     1       9.041  -1.583  21.918  0.00  0.00    -0.239 NA
ATOM      7  C   UNL     1       9.388  -0.273  21.861  0.00  0.00    +0.128 A 
ATOM      8  C   UNL     1       9.872   0.447  22.943  0.00  0.00    +0.036 A 
ATOM      9 BR   UNL     1      10.269   2.283  22.786  0.00  0.00    -0.049 Br
ATOM     10  C   UNL     1      10.034  -0.208  24.154  0.00  0.00    +0.020 A 
ATOM     11  C   UNL     1       9.641  -1.540  24.251  0.00  0.00    +0.045 A 
ENDBRANCH   2   5
BRANCH   1  12
ATOM     12  C   UNL     1       6.937  -5.184  23.553  0.00  0.00    +0.107 C 
BRANCH  12  13
ATOM     13  C   UNL     1       7.228  -5.813  22.194  0.00  0.00    +0.129 C 
BRANCH  13  14
ATOM     14  C   UNL     1       6.015  -5.807  21.316  0.00  0.00    +0.305 C 
ATOM     15  O   UNL     1       6.014  -5.578  20.114  0.00  0.00    -0.251 OA
BRANCH  14  16
ATOM     16  O   UNL     1       4.885  -6.111  21.997  0.00  0.00    -0.481 OA
ATOM     17  H   UNL     1       4.999  -6.123  22.966  0.00  0.00    +0.295 HD
ENDBRANCH  14  16
ENDBRANCH  13  14
ENDBRANCH  12  13
ENDBRANCH   1  12
TORSDOF 5
ENDMDL
MODEL 6
REMARK VINA RESULT:      -5.3      4.607      6.267
REMARK  Name = 
REMARK  5 active torsions:
REMARK  status: ('A' for Active; 'I' for Inactive)
REMARK    1  A    between atoms: O_1  and  C_2
REMARK    2  A    between atoms: C_2  and  C_4
REMARK    3  A    between atoms: C_4  and  C_5
REMARK    4  A    between atoms: C_5  and  C_6
REMARK    5  A    between atoms: N_8  and  C_9
REMARK                            x       y       z     vdW  Elec       q    Type
REMARK                         _______ _______ _______ _____ _____    ______ ____
ROOT
ATOM      1  C   UNL     1       9.413  -1.947  23.502  0.00  0.00    +0.219 C 
ATOM      2  N   UNL     1       8.609  -2.495  22.525  0.00  0.00    -0.270 N 
ATOM      3  H   UNL     1       9.034  -2.738  21.638  0.00  0.00    +0.156 HD
ATOM      4  O   UNL     1       9.251  -2.068  24.713  0.00  0.00    -0.275 OA
ENDROOT
BRANCH   2   5
ATOM      5  C   UNL     1       7.489  -3.269  22.825  0.00  0.00    +0.125 A 
ATOM      6  N   UNL     1       6.312  -2.618  22.756  0.00  0.00    -0.239 NA
ATOM      7  C   UNL     1       5.194  -3.374  22.885  0.00  0.00    +0.128 A 
ATOM      8  C   UNL     1       5.206  -4.735  23.154  0.00  0.00    +0.036 A 
ATOM      9 BR   UNL     1       3.603  -5.719  23.252  0.00  0.00    -0.049 Br
ATOM     10  C   UNL     1       6.431  -5.363  23.325  0.00  0.00    +0.020 A 
ATOM     11  C   UNL     1       7.594  -4.619  23.151  0.00  0.00    +0.045 A 
ENDBRANCH   2   5
BRANCH   1  12
ATOM     12  C   UNL     1      10.533  -1.100  22.957  0.00  0.00    +0.107 C 
BRANCH  12  13
ATOM     13  C   UNL     1      10.148   0.370  23.099  0.00  0.00    +0.129 C 
BRANCH  13  14
ATOM     14  C   UNL     1       9.691   0.946  21.794  0.00  0.00    +0.305 C 
ATOM     15  O   UNL     1       9.009   0.361  20.965  0.00  0.00    -0.251 OA
BRANCH  14  16
ATOM     16  O   UNL     1      10.101   2.224  21.624  0.00  0.00    -0.481 OA
ATOM     17  H   UNL     1      10.679   2.354  20.848  0.00  0.00    +0.295 HD
ENDBRANCH  14  16
ENDBRANCH  13  14
ENDBRANCH  12  13
ENDBRANCH   1  12
TORSDOF 5
ENDMDL
MODEL 7
REMARK VINA RESULT:      -5.1      4.205      5.911
REMARK  Name = 
REMARK  5 active torsions:
REMARK  status: ('A' for Active; 'I' for Inactive)
REMARK    1  A    between atoms: O_1  and  C_2
REMARK    2  A    between atoms: C_2  and  C_4
REMARK    3  A    between atoms: C_4  and  C_5
REMARK    4  A    between atoms: C_5  and  C_6
REMARK    5  A    between atoms: N_8  and  C_9
REMARK                            x       y       z     vdW  Elec       q    Type
REMARK                         _______ _______ _______ _____ _____    ______ ____
ROOT
ATOM      1  C   UNL     1       9.328  -1.123  24.199  0.00  0.00    +0.219 C 
ATOM      2  N   UNL     1       9.359  -2.438  23.785  0.00  0.00    -0.270 N 
ATOM      3  H   UNL     1      10.249  -2.828  23.502  0.00  0.00    +0.156 HD
ATOM      4  O   UNL     1       8.546  -0.649  25.018  0.00  0.00    -0.275 OA
ENDROOT
BRANCH   2   5
ATOM      5  C   UNL     1       8.471  -3.397  24.273  0.00  0.00    +0.125 A 
ATOM      6  N   UNL     1       8.823  -3.952  25.448  0.00  0.00    -0.239 NA
ATOM      7  C   UNL     1       7.909  -4.767  26.030  0.00  0.00    +0.128 A 
ATOM      8  C   UNL     1       6.696  -5.108  25.450  0.00  0.00    +0.036 A 
ATOM      9 BR   UNL     1       5.458  -6.199  26.361  0.00  0.00    -0.049 Br
ATOM     10  C   UNL     1       6.402  -4.607  24.191  0.00  0.00    +0.020 A 
ATOM     11  C   UNL     1       7.302  -3.730  23.593  0.00  0.00    +0.045 A 
ENDBRANCH   2   5
BRANCH   1  12
ATOM     12  C   UNL     1      10.336  -0.247  23.502  0.00  0.00    +0.107 C 
BRANCH  12  13
ATOM     13  C   UNL     1       9.943  -0.125  22.032  0.00  0.00    +0.129 C 
BRANCH  13  14
ATOM     14  C   UNL     1       9.334   1.212  21.738  0.00  0.00    +0.305 C 
ATOM     15  O   UNL     1       8.135   1.436  21.646  0.00  0.00    -0.251 OA
BRANCH  14  16
ATOM     16  O   UNL     1      10.265   2.183  21.601  0.00  0.00    -0.481 OA
ATOM     17  H   UNL     1      10.625   2.510  22.448  0.00  0.00    +0.295 HD
ENDBRANCH  14  16
ENDBRANCH  13  14
ENDBRANCH  12  13
ENDBRANCH   1  12
TORSDOF 5
ENDMDL
MODEL 8
REMARK VINA RESULT:      -5.1      4.649      7.113
REMARK  Name = 
REMARK  5 active torsions:
REMARK  status: ('A' for Active; 'I' for Inactive)
REMARK    1  A    between atoms: O_1  and  C_2
REMARK    2  A    between atoms: C_2  and  C_4
REMARK    3  A    between atoms: C_4  and  C_5
REMARK    4  A    between atoms: C_5  and  C_6
REMARK    5  A    between atoms: N_8  and  C_9
REMARK                            x       y       z     vdW  Elec       q    Type
REMARK                         _______ _______ _______ _____ _____    ______ ____
ROOT
ATOM      1  C   UNL     1       9.579  -1.297  23.627  0.00  0.00    +0.219 C 
ATOM      2  N   UNL     1      10.061  -0.409  24.565  0.00  0.00    -0.270 N 
ATOM      3  H   UNL     1      10.944  -0.622  25.013  0.00  0.00    +0.156 HD
ATOM      4  O   UNL     1       8.878  -1.008  22.661  0.00  0.00    -0.275 OA
ENDROOT
BRANCH   2   5
ATOM      5  C   UNL     1       9.792   0.958  24.508  0.00  0.00    +0.125 A 
ATOM      6  N   UNL     1      10.708   1.692  23.848  0.00  0.00    -0.239 NA
ATOM      7  C   UNL     1      10.400   2.995  23.635  0.00  0.00    +0.128 A 
ATOM      8  C   UNL     1       9.255   3.609  24.119  0.00  0.00    +0.036 A 
ATOM      9 BR   UNL     1       8.877   5.411  23.719  0.00  0.00    -0.049 Br
ATOM     10  C   UNL     1       8.377   2.858  24.887  0.00  0.00    +0.020 A 
ATOM     11  C   UNL     1       8.646   1.506  25.080  0.00  0.00    +0.045 A 
ENDBRANCH   2   5
BRANCH   1  12
ATOM     12  C   UNL     1       9.941  -2.731  23.912  0.00  0.00    +0.107 C 
BRANCH  12  13
ATOM     13  C   UNL     1       8.810  -3.373  24.709  0.00  0.00    +0.129 C 
BRANCH  13  14
ATOM     14  C   UNL     1       9.313  -4.484  25.578  0.00  0.00    +0.305 C 
ATOM     15  O   UNL     1       8.896  -4.750  26.697  0.00  0.00    -0.251 OA
BRANCH  14  16
ATOM     16  O   UNL     1      10.291  -5.203  24.979  0.00  0.00    -0.481 OA
ATOM     17  H   UNL     1      10.319  -6.139  25.255  0.00  0.00    +0.295 HD
ENDBRANCH  14  16
ENDBRANCH  13  14
ENDBRANCH  12  13
ENDBRANCH   1  12
TORSDOF 5
ENDMDL
MODEL 9
REMARK VINA RESULT:      -5.1      2.433      2.847
REMARK  Name = 
REMARK  5 active torsions:
REMARK  status: ('A' for Active; 'I' for Inactive)
REMARK    1  A    between atoms: O_1  and  C_2
REMARK    2  A    between atoms: C_2  and  C_4
REMARK    3  A    between atoms: C_4  and  C_5
REMARK    4  A    between atoms: C_5  and  C_6
REMARK    5  A    between atoms: N_8  and  C_9
REMARK                            x       y       z     vdW  Elec       q    Type
REMARK                         _______ _______ _______ _____ _____    ______ ____
ROOT
ATOM      1  C   UNL     1       9.427   4.579  23.724  0.00  0.00    +0.219 C 
ATOM      2  N   UNL     1      10.443   3.833  23.162  0.00  0.00    -0.270 N 
ATOM      3  H   UNL     1      11.384   4.203  23.203  0.00  0.00    +0.156 HD
ATOM      4  O   UNL     1       8.401   4.127  24.225  0.00  0.00    -0.275 OA
ENDROOT
BRANCH   2   5
ATOM      5  C   UNL     1      10.403   2.440  23.104  0.00  0.00    +0.125 A 
ATOM      6  N   UNL     1      10.840   1.812  24.212  0.00  0.00    -0.239 NA
ATOM      7  C   UNL     1      10.667   0.468  24.253  0.00  0.00    +0.128 A 
ATOM      8  C   UNL     1      10.149  -0.278  23.205  0.00  0.00    +0.036 A 
ATOM      9 BR   UNL     1       9.885  -2.136  23.374  0.00  0.00    -0.049 Br
ATOM     10  C   UNL     1       9.805   0.379  22.034  0.00  0.00    +0.020 A 
ATOM     11  C   UNL     1       9.928   1.764  21.983  0.00  0.00    +0.045 A 
ENDBRANCH   2   5
BRANCH   1  12
ATOM     12  C   UNL     1       9.647   6.066  23.629  0.00  0.00    +0.107 C 
BRANCH  12  13
ATOM     13  C   UNL     1      10.489   6.513  24.820  0.00  0.00    +0.129 C 
BRANCH  13  14
ATOM     14  C   UNL     1       9.639   6.766  26.027  0.00  0.00    +0.305 C 
ATOM     15  O   UNL     1      10.045   6.806  27.180  0.00  0.00    -0.251 OA
BRANCH  14  16
ATOM     16  O   UNL     1       8.341   6.974  25.708  0.00  0.00    -0.481 OA
ATOM     17  H   UNL     1       8.097   6.661  24.816  0.00  0.00    +0.295 HD
ENDBRANCH  14  16
ENDBRANCH  13  14
ENDBRANCH  12  13
ENDBRANCH   1  12
TORSDOF 5
ENDMDL
