MODEL 1
REMARK VINA RESULT:      -6.9      0.000      0.000
REMARK  Name = 
REMARK  3 active torsions:
REMARK  status: ('A' for Active; 'I' for Inactive)
REMARK    1  A    between atoms: O_1  and  C_2
REMARK    2  A    between atoms: C_5  and  C_8
REMARK    3  A    between atoms: C_15  and  O_16
REMARK                            x       y       z     vdW  Elec       q    Type
REMARK                         _______ _______ _______ _____ _____    ______ ____
ROOT
ATOM      1  C   UNL     1       8.837  -1.514  23.155  0.00  0.00    -0.003 C 
ATOM      2  C   UNL     1       9.621  -2.652  23.774  0.00  0.00    +0.265 C 
ATOM      3  O   UNL     1       8.985  -3.936  23.883  0.00  0.00    -0.487 OA
ATOM      4  C   UNL     1       7.714  -4.070  23.407  0.00  0.00    +0.132 A 
ATOM      5  C   UNL     1       7.144  -5.338  23.547  0.00  0.00    +0.091 A 
ATOM      6  C   UNL     1       5.842  -5.556  23.112  0.00  0.00    +0.120 A 
ATOM      7  C   UNL     1       5.104  -4.528  22.540  0.00  0.00    +0.046 A 
ATOM      8  C   UNL     1       5.679  -3.264  22.391  0.00  0.00    +0.015 A 
ATOM      9  C   UNL     1       6.992  -3.030  22.822  0.00  0.00    +0.017 A 
ATOM     10  C   UNL     1       7.596  -1.712  22.682  0.00  0.00    +0.019 C 
ENDROOT
BRANCH   1  14
ATOM     11  C   UNL     1      10.591   2.418  23.028  0.00  0.00    +0.117 A 
ATOM     12  C   UNL     1      10.669   1.665  24.189  0.00  0.00    +0.046 A 
ATOM     13  C   UNL     1      10.120   0.379  24.225  0.00  0.00    +0.012 A 
ATOM     14  C   UNL     1       9.485  -0.173  23.099  0.00  0.00    -0.018 A 
ATOM     15  C   UNL     1       9.431   0.614  21.934  0.00  0.00    +0.012 A 
ATOM     16  C   UNL     1       9.984   1.900  21.894  0.00  0.00    +0.046 A 
BRANCH  11  17
ATOM     17  O   UNL     1      11.119   3.673  23.046  0.00  0.00    -0.507 OA
ATOM     18  H   UNL     1      11.947   3.670  22.538  0.00  0.00    +0.292 HD
ENDBRANCH  11  17
ENDBRANCH   1  14
BRANCH   6  19
ATOM     19  O   UNL     1       5.246  -6.776  23.234  0.00  0.00    -0.507 OA
ATOM     20  H   UNL     1       4.283  -6.654  23.198  0.00  0.00    +0.292 HD
ENDBRANCH   6  19
TORSDOF 3
ENDMDL
MODEL 2
REMARK VINA RESULT:      -6.8      2.112      7.058
REMARK  Name = 
REMARK  3 active torsions:
REMARK  status: ('A' for Active; 'I' for Inactive)
REMARK    1  A    between atoms: O_1  and  C_2
REMARK    2  A    between atoms: C_5  and  C_8
REMARK    3  A    between atoms: C_15  and  O_16
REMARK                            x       y       z     vdW  Elec       q    Type
REMARK                         _______ _______ _______ _____ _____    ______ ____
ROOT
ATOM      1  C   UNL     1       8.028  -2.795  24.212  0.00  0.00    -0.003 C 
ATOM      2  C   UNL     1       7.980  -2.910  22.703  0.00  0.00    +0.265 C 
ATOM      3  O   UNL     1       8.499  -1.821  21.921  0.00  0.00    -0.487 OA
ATOM      4  C   UNL     1       9.024  -0.748  22.577  0.00  0.00    +0.132 A 
ATOM      5  C   UNL     1       9.506   0.283  21.766  0.00  0.00    +0.091 A 
ATOM      6  C   UNL     1      10.035   1.427  22.353  0.00  0.00    +0.120 A 
ATOM      7  C   UNL     1      10.091   1.554  23.735  0.00  0.00    +0.046 A 
ATOM      8  C   UNL     1       9.618   0.518  24.544  0.00  0.00    +0.015 A 
ATOM      9  C   UNL     1       9.085  -0.642  23.966  0.00  0.00    +0.017 A 
ATOM     10  C   UNL     1       8.579  -1.722  24.802  0.00  0.00    +0.019 C 
ENDROOT
BRANCH   1  14
ATOM     11  C   UNL     1       6.241  -5.908  26.594  0.00  0.00    +0.117 A 
ATOM     12  C   UNL     1       5.681  -5.567  25.373  0.00  0.00    +0.046 A 
ATOM     13  C   UNL     1       6.274  -4.572  24.588  0.00  0.00    +0.012 A 
ATOM     14  C   UNL     1       7.435  -3.904  25.012  0.00  0.00    -0.018 A 
ATOM     15  C   UNL     1       7.983  -4.280  26.253  0.00  0.00    +0.012 A 
ATOM     16  C   UNL     1       7.395  -5.279  27.039  0.00  0.00    +0.046 A 
BRANCH  11  17
ATOM     17  O   UNL     1       5.619  -6.865  27.336  0.00  0.00    -0.507 OA
ATOM     18  H   UNL     1       5.950  -6.817  28.248  0.00  0.00    +0.292 HD
ENDBRANCH  11  17
ENDBRANCH   1  14
BRANCH   6  19
ATOM     19  O   UNL     1      10.512   2.458  21.599  0.00  0.00    -0.507 OA
ATOM     20  H   UNL     1      10.110   2.407  20.717  0.00  0.00    +0.292 HD
ENDBRANCH   6  19
TORSDOF 3
ENDMDL
MODEL 3
REMARK VINA RESULT:      -6.7      1.096      1.126
REMARK  Name = 
REMARK  3 active torsions:
REMARK  status: ('A' for Active; 'I' for Inactive)
REMARK    1  A    between atoms: O_1  and  C_2
REMARK    2  A    between atoms: C_5  and  C_8
REMARK    3  A    between atoms: C_15  and  O_16
REMARK                            x       y       z     vdW  Elec       q    Type
REMARK                         _______ _______ _______ _____ _____    ______ ____
ROOT
ATOM      1  C   UNL     1       8.245  -1.858  23.524  0.00  0.00    -0.003 C 
ATOM      2  C   UNL     1       8.050  -2.321  24.952  0.00  0.00    +0.265 C 
ATOM      3  O   UNL     1       7.309  -3.531  25.179  0.00  0.00    -0.487 OA
ATOM      4  C   UNL     1       6.834  -4.211  24.098  0.00  0.00    +0.132 A 
ATOM      5  C   UNL     1       6.114  -5.375  24.380  0.00  0.00    +0.091 A 
ATOM      6  C   UNL     1       5.572  -6.116  23.336  0.00  0.00    +0.120 A 
ATOM      7  C   UNL     1       5.739  -5.712  22.018  0.00  0.00    +0.046 A 
ATOM      8  C   UNL     1       6.468  -4.554  21.737  0.00  0.00    +0.015 A 
ATOM      9  C   UNL     1       7.023  -3.798  22.779  0.00  0.00    +0.017 A 
ATOM     10  C   UNL     1       7.774  -2.583  22.496  0.00  0.00    +0.019 C 
ENDROOT
BRANCH   1  14
ATOM     11  C   UNL     1      10.208   1.923  22.884  0.00  0.00    +0.117 A 
ATOM     12  C   UNL     1      10.057   1.433  24.172  0.00  0.00    +0.046 A 
ATOM     13  C   UNL     1       9.440   0.194  24.380  0.00  0.00    +0.012 A 
ATOM     14  C   UNL     1       8.966  -0.572  23.302  0.00  0.00    -0.018 A 
ATOM     15  C   UNL     1       9.142  -0.050  22.007  0.00  0.00    +0.012 A 
ATOM     16  C   UNL     1       9.763   1.187  21.796  0.00  0.00    +0.046 A 
BRANCH  11  17
ATOM     17  O   UNL     1      10.793   3.142  22.731  0.00  0.00    -0.507 OA
ATOM     18  H   UNL     1      10.119   3.830  22.857  0.00  0.00    +0.292 HD
ENDBRANCH  11  17
ENDBRANCH   1  14
BRANCH   6  19
ATOM     19  O   UNL     1       4.859  -7.255  23.567  0.00  0.00    -0.507 OA
ATOM     20  H   UNL     1       4.579  -7.260  24.497  0.00  0.00    +0.292 HD
ENDBRANCH   6  19
TORSDOF 3
ENDMDL
MODEL 4
REMARK VINA RESULT:      -6.6      2.028      3.010
REMARK  Name = 
REMARK  3 active torsions:
REMARK  status: ('A' for Active; 'I' for Inactive)
REMARK    1  A    between atoms: O_1  and  C_2
REMARK    2  A    between atoms: C_5  and  C_8
REMARK    3  A    between atoms: C_15  and  O_16
REMARK                            x       y       z     vdW  Elec       q    Type
REMARK                         _______ _______ _______ _____ _____    ______ ____
ROOT
ATOM      1  C   UNL     1       6.746  -2.633  22.990  0.00  0.00    -0.003 C 
ATOM      2  C   UNL     1       5.759  -3.141  21.960  0.00  0.00    +0.265 C 
ATOM      3  O   UNL     1       4.993  -4.315  22.274  0.00  0.00    -0.487 OA
ATOM      4  C   UNL     1       5.179  -4.903  23.490  0.00  0.00    +0.132 A 
ATOM      5  C   UNL     1       4.413  -6.045  23.735  0.00  0.00    +0.091 A 
ATOM      6  C   UNL     1       4.559  -6.722  24.941  0.00  0.00    +0.120 A 
ATOM      7  C   UNL     1       5.456  -6.274  25.902  0.00  0.00    +0.046 A 
ATOM      8  C   UNL     1       6.213  -5.126  25.659  0.00  0.00    +0.015 A 
ATOM      9  C   UNL     1       6.074  -4.431  24.449  0.00  0.00    +0.017 A 
ATOM     10  C   UNL     1       6.869  -3.240  24.182  0.00  0.00    +0.019 C 
ENDROOT
BRANCH   1  14
ATOM     11  C   UNL     1       9.087   0.794  21.834  0.00  0.00    +0.117 A 
ATOM     12  C   UNL     1       7.898   0.971  22.526  0.00  0.00    +0.046 A 
ATOM     13  C   UNL     1       7.148  -0.141  22.922  0.00  0.00    +0.012 A 
ATOM     14  C   UNL     1       7.577  -1.448  22.633  0.00  0.00    -0.018 A 
ATOM     15  C   UNL     1       8.791  -1.594  21.937  0.00  0.00    +0.012 A 
ATOM     16  C   UNL     1       9.546  -0.483  21.544  0.00  0.00    +0.046 A 
BRANCH  11  17
ATOM     17  O   UNL     1       9.772   1.905  21.449  0.00  0.00    -0.507 OA
ATOM     18  H   UNL     1      10.168   2.315  22.235  0.00  0.00    +0.292 HD
ENDBRANCH  11  17
ENDBRANCH   1  14
BRANCH   6  19
ATOM     19  O   UNL     1       3.835  -7.843  25.220  0.00  0.00    -0.507 OA
ATOM     20  H   UNL     1       2.891  -7.617  25.187  0.00  0.00    +0.292 HD
ENDBRANCH   6  19
TORSDOF 3
ENDMDL
MODEL 5
REMARK VINA RESULT:      -6.5      1.338      6.945
REMARK  Name = 
REMARK  3 active torsions:
REMARK  status: ('A' for Active; 'I' for Inactive)
REMARK    1  A    between atoms: O_1  and  C_2
REMARK    2  A    between atoms: C_5  and  C_8
REMARK    3  A    between atoms: C_15  and  O_16
REMARK                            x       y       z     vdW  Elec       q    Type
REMARK                         _______ _______ _______ _____ _____    ______ ____
ROOT
ATOM      1  C   UNL     1       7.500  -2.825  23.281  0.00  0.00    -0.003 C 
ATOM      2  C   UNL     1       8.992  -3.011  23.467  0.00  0.00    +0.265 C 
ATOM      3  O   UNL     1       9.856  -1.898  23.190  0.00  0.00    -0.487 OA
ATOM      4  C   UNL     1       9.291  -0.724  22.791  0.00  0.00    +0.132 A 
ATOM      5  C   UNL     1      10.181   0.321  22.528  0.00  0.00    +0.091 A 
ATOM      6  C   UNL     1       9.690   1.546  22.092  0.00  0.00    +0.120 A 
ATOM      7  C   UNL     1       8.326   1.742  21.916  0.00  0.00    +0.046 A 
ATOM      8  C   UNL     1       7.437   0.700  22.189  0.00  0.00    +0.015 A 
ATOM      9  C   UNL     1       7.917  -0.540  22.633  0.00  0.00    +0.017 A 
ATOM     10  C   UNL     1       6.999  -1.636  22.908  0.00  0.00    +0.019 C 
ENDROOT
BRANCH   1  14
ATOM     11  C   UNL     1       5.050  -6.309  23.922  0.00  0.00    +0.117 A 
ATOM     12  C   UNL     1       5.757  -5.758  24.980  0.00  0.00    +0.046 A 
ATOM     13  C   UNL     1       6.535  -4.613  24.778  0.00  0.00    +0.012 A 
ATOM     14  C   UNL     1       6.617  -4.002  23.516  0.00  0.00    -0.018 A 
ATOM     15  C   UNL     1       5.881  -4.581  22.465  0.00  0.00    +0.012 A 
ATOM     16  C   UNL     1       5.098  -5.724  22.665  0.00  0.00    +0.046 A 
BRANCH  11  17
ATOM     17  O   UNL     1       4.325  -7.436  24.158  0.00  0.00    -0.507 OA
ATOM     18  H   UNL     1       4.610  -8.126  23.536  0.00  0.00    +0.292 HD
ENDBRANCH  11  17
ENDBRANCH   1  14
BRANCH   6  19
ATOM     19  O   UNL     1      10.523   2.590  21.820  0.00  0.00    -0.507 OA
ATOM     20  H   UNL     1      11.002   2.823  22.632  0.00  0.00    +0.292 HD
ENDBRANCH   6  19
TORSDOF 3
ENDMDL
MODEL 6
REMARK VINA RESULT:      -6.5      2.089      2.394
REMARK  Name = 
REMARK  3 active torsions:
REMARK  status: ('A' for Active; 'I' for Inactive)
REMARK    1  A    between atoms: O_1  and  C_2
REMARK    2  A    between atoms: C_5  and  C_8
REMARK    3  A    between atoms: C_15  and  O_16
REMARK                            x       y       z     vdW  Elec       q    Type
REMARK                         _______ _______ _______ _____ _____    ______ ____
ROOT
ATOM      1  C   UNL     1       8.224  -2.252  24.418  0.00  0.00    -0.003 C 
ATOM      2  C   UNL     1       8.613  -2.389  25.875  0.00  0.00    +0.265 C 
ATOM      3  O   UNL     1       8.013  -3.445  26.643  0.00  0.00    -0.487 OA
ATOM      4  C   UNL     1       7.138  -4.282  26.018  0.00  0.00    +0.132 A 
ATOM      5  C   UNL     1       6.580  -5.284  26.816  0.00  0.00    +0.091 A 
ATOM      6  C   UNL     1       5.658  -6.166  26.264  0.00  0.00    +0.120 A 
ATOM      7  C   UNL     1       5.286  -6.061  24.930  0.00  0.00    +0.046 A 
ATOM      8  C   UNL     1       5.853  -5.065  24.131  0.00  0.00    +0.015 A 
ATOM      9  C   UNL     1       6.787  -4.171  24.672  0.00  0.00    +0.017 A 
ATOM     10  C   UNL     1       7.373  -3.122  23.850  0.00  0.00    +0.019 C 
ENDROOT
BRANCH   1  14
ATOM     11  C   UNL     1       9.786   1.072  22.168  0.00  0.00    +0.117 A 
ATOM     12  C   UNL     1       9.710   1.150  23.550  0.00  0.00    +0.046 A 
ATOM     13  C   UNL     1       9.224   0.062  24.284  0.00  0.00    +0.012 A 
ATOM     14  C   UNL     1       8.808  -1.119  23.646  0.00  0.00    -0.018 A 
ATOM     15  C   UNL     1       8.906  -1.168  22.243  0.00  0.00    +0.012 A 
ATOM     16  C   UNL     1       9.397  -0.083  21.506  0.00  0.00    +0.046 A 
BRANCH  11  17
ATOM     17  O   UNL     1      10.244   2.162  21.493  0.00  0.00    -0.507 OA
ATOM     18  H   UNL     1      10.025   2.061  20.552  0.00  0.00    +0.292 HD
ENDBRANCH  11  17
ENDBRANCH   1  14
BRANCH   6  19
ATOM     19  O   UNL     1       5.086  -7.155  27.008  0.00  0.00    -0.507 OA
ATOM     20  H   UNL     1       4.814  -6.781  27.862  0.00  0.00    +0.292 HD
ENDBRANCH   6  19
TORSDOF 3
ENDMDL
MODEL 7
REMARK VINA RESULT:      -6.4      1.287      7.026
REMARK  Name = 
REMARK  3 active torsions:
REMARK  status: ('A' for Active; 'I' for Inactive)
REMARK    1  A    between atoms: O_1  and  C_2
REMARK    2  A    between atoms: C_5  and  C_8
REMARK    3  A    between atoms: C_15  and  O_16
REMARK                            x       y       z     vdW  Elec       q    Type
REMARK                         _______ _______ _______ _____ _____    ______ ____
ROOT
ATOM      1  C   UNL     1       7.944  -2.345  23.734  0.00  0.00    -0.003 C 
ATOM      2  C   UNL     1       8.624  -1.978  25.036  0.00  0.00    +0.265 C 
ATOM      3  O   UNL     1       9.376  -0.756  25.090  0.00  0.00    -0.487 OA
ATOM      4  C   UNL     1       9.425   0.023  23.972  0.00  0.00    +0.132 A 
ATOM      5  C   UNL     1      10.178   1.195  24.081  0.00  0.00    +0.091 A 
ATOM      6  C   UNL     1      10.302   2.035  22.980  0.00  0.00    +0.120 A 
ATOM      7  C   UNL     1       9.686   1.721  21.776  0.00  0.00    +0.046 A 
ATOM      8  C   UNL     1       8.926   0.554  21.672  0.00  0.00    +0.015 A 
ATOM      9  C   UNL     1       8.789  -0.301  22.774  0.00  0.00    +0.017 A 
ATOM     10  C   UNL     1       8.009  -1.526  22.672  0.00  0.00    +0.019 C 
ENDROOT
BRANCH   1  14
ATOM     11  C   UNL     1       5.728  -6.032  23.504  0.00  0.00    +0.117 A 
ATOM     12  C   UNL     1       6.550  -5.654  22.453  0.00  0.00    +0.046 A 
ATOM     13  C   UNL     1       7.288  -4.468  22.536  0.00  0.00    +0.012 A 
ATOM     14  C   UNL     1       7.215  -3.643  23.672  0.00  0.00    -0.018 A 
ATOM     15  C   UNL     1       6.379  -4.060  24.724  0.00  0.00    +0.012 A 
ATOM     16  C   UNL     1       5.643  -5.248  24.645  0.00  0.00    +0.046 A 
BRANCH  11  17
ATOM     17  O   UNL     1       5.011  -7.181  23.371  0.00  0.00    -0.507 OA
ATOM     18  H   UNL     1       5.380  -7.695  22.633  0.00  0.00    +0.292 HD
ENDBRANCH  11  17
ENDBRANCH   1  14
BRANCH   6  19
ATOM     19  O   UNL     1      11.030   3.186  23.042  0.00  0.00    -0.507 OA
ATOM     20  H   UNL     1      11.934   2.995  22.744  0.00  0.00    +0.292 HD
ENDBRANCH   6  19
TORSDOF 3
ENDMDL
MODEL 8
REMARK VINA RESULT:      -6.4      1.399      7.045
REMARK  Name = 
REMARK  3 active torsions:
REMARK  status: ('A' for Active; 'I' for Inactive)
REMARK    1  A    between atoms: O_1  and  C_2
REMARK    2  A    between atoms: C_5  and  C_8
REMARK    3  A    between atoms: C_15  and  O_16
REMARK                            x       y       z     vdW  Elec       q    Type
REMARK                         _______ _______ _______ _____ _____    ______ ____
ROOT
ATOM      1  C   UNL     1       8.099  -1.602  22.866  0.00  0.00    -0.003 C 
ATOM      2  C   UNL     1       9.068  -1.428  21.715  0.00  0.00    +0.265 C 
ATOM      3  O   UNL     1       9.787  -0.188  21.613  0.00  0.00    -0.487 OA
ATOM      4  C   UNL     1       9.575   0.763  22.567  0.00  0.00    +0.132 A 
ATOM      5  C   UNL     1      10.294   1.950  22.411  0.00  0.00    +0.091 A 
ATOM      6  C   UNL     1      10.119   2.983  23.325  0.00  0.00    +0.120 A 
ATOM      7  C   UNL     1       9.237   2.846  24.389  0.00  0.00    +0.046 A 
ATOM      8  C   UNL     1       8.526   1.655  24.549  0.00  0.00    +0.015 A 
ATOM      9  C   UNL     1       8.695   0.603  23.637  0.00  0.00    +0.017 A 
ATOM     10  C   UNL     1       7.949  -0.638  23.789  0.00  0.00    +0.019 C 
ENDROOT
BRANCH   1  14
ATOM     11  C   UNL     1       5.863  -5.284  22.920  0.00  0.00    +0.117 A 
ATOM     12  C   UNL     1       7.200  -5.283  23.284  0.00  0.00    +0.046 A 
ATOM     13  C   UNL     1       7.922  -4.084  23.289  0.00  0.00    +0.012 A 
ATOM     14  C   UNL     1       7.316  -2.868  22.930  0.00  0.00    -0.018 A 
ATOM     15  C   UNL     1       5.955  -2.902  22.574  0.00  0.00    +0.012 A 
ATOM     16  C   UNL     1       5.229  -4.099  22.572  0.00  0.00    +0.046 A 
BRANCH  11  17
ATOM     17  O   UNL     1       5.206  -6.476  22.907  0.00  0.00    -0.507 OA
ATOM     18  H   UNL     1       5.480  -6.974  22.120  0.00  0.00    +0.292 HD
ENDBRANCH  11  17
ENDBRANCH   1  14
BRANCH   6  19
ATOM     19  O   UNL     1      10.798   4.159  23.208  0.00  0.00    -0.507 OA
ATOM     20  H   UNL     1      11.702   3.966  22.912  0.00  0.00    +0.292 HD
ENDBRANCH   6  19
TORSDOF 3
ENDMDL
MODEL 9
REMARK VINA RESULT:      -6.2      3.319      4.381
REMARK  Name = 
REMARK  3 active torsions:
REMARK  status: ('A' for Active; 'I' for Inactive)
REMARK    1  A    between atoms: O_1  and  C_2
REMARK    2  A    between atoms: C_5  and  C_8
REMARK    3  A    between atoms: C_15  and  O_16
REMARK                            x       y       z     vdW  Elec       q    Type
REMARK                         _______ _______ _______ _____ _____    ______ ____
ROOT
ATOM      1  C   UNL     1       7.675  -4.110  25.165  0.00  0.00    -0.003 C 
ATOM      2  C   UNL     1       8.400  -4.227  26.490  0.00  0.00    +0.265 C 
ATOM      3  O   UNL     1       7.775  -4.978  27.543  0.00  0.00    -0.487 OA
ATOM      4  C   UNL     1       6.570  -5.563  27.292  0.00  0.00    +0.132 A 
ATOM      5  C   UNL     1       6.006  -6.273  28.356  0.00  0.00    +0.091 A 
ATOM      6  C   UNL     1       4.766  -6.880  28.194  0.00  0.00    +0.120 A 
ATOM      7  C   UNL     1       4.083  -6.789  26.988  0.00  0.00    +0.046 A 
ATOM      8  C   UNL     1       4.653  -6.087  25.923  0.00  0.00    +0.015 A 
ATOM      9  C   UNL     1       5.904  -5.473  26.070  0.00  0.00    +0.017 A 
ATOM     10  C   UNL     1       6.500  -4.729  24.969  0.00  0.00    +0.019 C 
ENDROOT
BRANCH   1  14
ATOM     11  C   UNL     1       9.456  -1.602  22.149  0.00  0.00    +0.117 A 
ATOM     12  C   UNL     1      10.225  -2.062  23.206  0.00  0.00    +0.046 A 
ATOM     13  C   UNL     1       9.654  -2.895  24.175  0.00  0.00    +0.012 A 
ATOM     14  C   UNL     1       8.305  -3.281  24.099  0.00  0.00    -0.018 A 
ATOM     15  C   UNL     1       7.554  -2.804  23.009  0.00  0.00    +0.012 A 
ATOM     16  C   UNL     1       8.124  -1.974  22.036  0.00  0.00    +0.046 A 
BRANCH  11  17
ATOM     17  O   UNL     1      10.046  -0.775  21.243  0.00  0.00    -0.507 OA
ATOM     18  H   UNL     1      10.126  -1.246  20.397  0.00  0.00    +0.292 HD
ENDBRANCH  11  17
ENDBRANCH   1  14
BRANCH   6  19
ATOM     19  O   UNL     1       4.179  -7.579  29.207  0.00  0.00    -0.507 OA
ATOM     20  H   UNL     1       4.818  -8.226  29.547  0.00  0.00    +0.292 HD
ENDBRANCH   6  19
TORSDOF 3
ENDMDL
