MODEL 1
REMARK VINA RESULT:      -6.5      0.000      0.000
REMARK  Name = 
REMARK  8 active torsions:
REMARK  status: ('A' for Active; 'I' for Inactive)
REMARK    1  A    between atoms: C_1  and  C_2
REMARK    2  A    between atoms: C_4  and  C_9
REMARK    3  A    between atoms: C_12  and  O_14
REMARK    4  A    between atoms: C_15  and  C_17
REMARK    5  A    between atoms: C_17  and  O_18
REMARK    6  A    between atoms: O_18  and  P_19
REMARK    7  A    between atoms: P_19  and  O_20
REMARK    8  A    between atoms: P_19  and  O_21
REMARK                            x       y       z     vdW  Elec       q    Type
REMARK                         _______ _______ _______ _____ _____    ______ ____
ROOT
ATOM      1  C   UNL     1       8.568  -3.443  23.766  0.00  0.00    +0.153 C 
ATOM      2  O   UNL     1       7.267  -3.366  24.383  0.00  0.00    -0.364 OA
ATOM      3  C   UNL     1       7.250  -4.287  25.492  0.00  0.00    +0.174 C 
ATOM      4  C   UNL     1       8.590  -5.030  25.479  0.00  0.00    +0.148 C 
ATOM      5  C   UNL     1       9.498  -4.019  24.823  0.00  0.00    +0.070 C 
ENDROOT
BRANCH   1  13
ATOM      6  C   UNL     1      10.413   1.239  24.497  0.00  0.00    +0.049 C 
ATOM      7  C   UNL     1       9.894   0.130  23.642  0.00  0.00    +0.014 A 
ATOM      8  C   UNL     1       9.852   0.383  22.169  0.00  0.00    +0.252 A 
ATOM      9  O   UNL     1      10.232   1.437  21.673  0.00  0.00    -0.268 OA
ATOM     10  N   UNL     1       9.363  -0.641  21.398  0.00  0.00    -0.329 N 
ATOM     11  H   UNL     1       9.334  -0.460  20.404  0.00  0.00    +0.168 HD
ATOM     12  C   UNL     1       8.946  -1.848  21.893  0.00  0.00    +0.092 A 
ATOM     13  C   UNL     1       8.987  -2.107  23.212  0.00  0.00    -0.002 A 
ATOM     14  C   UNL     1       9.462  -1.058  24.106  0.00  0.00    +0.016 A 
ENDBRANCH   1  13
BRANCH   4  15
ATOM     15  O   UNL     1       9.064  -5.409  26.759  0.00  0.00    -0.389 OA
ATOM     16  H   UNL     1       9.953  -5.791  26.667  0.00  0.00    +0.210 HD
ENDBRANCH   4  15
BRANCH   3  17
ATOM     17  C   UNL     1       6.057  -5.233  25.380  0.00  0.00    +0.206 C 
BRANCH  17  18
ATOM     18  O   UNL     1       6.186  -6.251  26.351  0.00  0.00    -0.284 OA
BRANCH  18  19
ATOM     19  P   UNL     1       5.469  -6.039  27.765  0.00  0.00    +0.472 P 
ATOM     20  O   UNL     1       4.246  -5.193  27.757  0.00  0.00    -0.228 OA
BRANCH  19  21
ATOM     21  O   UNL     1       6.700  -5.542  28.645  0.00  0.00    -0.303 OA
ATOM     22  H   UNL     1       7.444  -5.229  28.104  0.00  0.00    +0.222 HD
ENDBRANCH  19  21
BRANCH  19  23
ATOM     23  O   UNL     1       5.298  -7.557  28.226  0.00  0.00    -0.303 OA
ATOM     24  H   UNL     1       5.448  -7.669  29.179  0.00  0.00    +0.222 HD
ENDBRANCH  19  23
ENDBRANCH  18  19
ENDBRANCH  17  18
ENDBRANCH   3  17
TORSDOF 7
ENDMDL
MODEL 2
REMARK VINA RESULT:      -6.5      3.203      5.192
REMARK  Name = 
REMARK  8 active torsions:
REMARK  status: ('A' for Active; 'I' for Inactive)
REMARK    1  A    between atoms: C_1  and  C_2
REMARK    2  A    between atoms: C_4  and  C_9
REMARK    3  A    between atoms: C_12  and  O_14
REMARK    4  A    between atoms: C_15  and  C_17
REMARK    5  A    between atoms: C_17  and  O_18
REMARK    6  A    between atoms: O_18  and  P_19
REMARK    7  A    between atoms: P_19  and  O_20
REMARK    8  A    between atoms: P_19  and  O_21
REMARK                            x       y       z     vdW  Elec       q    Type
REMARK                         _______ _______ _______ _____ _____    ______ ____
ROOT
ATOM      1  C   UNL     1       9.217   1.248  23.360  0.00  0.00    +0.153 C 
ATOM      2  O   UNL     1       9.646   0.383  24.431  0.00  0.00    -0.364 OA
ATOM      3  C   UNL     1       9.962  -0.902  23.860  0.00  0.00    +0.174 C 
ATOM      4  C   UNL     1       9.608  -0.830  22.370  0.00  0.00    +0.148 C 
ATOM      5  C   UNL     1       9.778   0.641  22.083  0.00  0.00    +0.070 C 
ENDROOT
BRANCH   1  13
ATOM      6  C   UNL     1      12.727   4.923  23.165  0.00  0.00    +0.049 C 
ATOM      7  C   UNL     1      11.364   4.397  23.478  0.00  0.00    +0.014 A 
ATOM      8  C   UNL     1      10.377   5.378  24.024  0.00  0.00    +0.252 A 
ATOM      9  O   UNL     1      10.653   6.558  24.200  0.00  0.00    -0.268 OA
ATOM     10  N   UNL     1       9.134   4.877  24.317  0.00  0.00    -0.329 N 
ATOM     11  H   UNL     1       8.473   5.546  24.690  0.00  0.00    +0.168 HD
ATOM     12  C   UNL     1       8.761   3.573  24.121  0.00  0.00    +0.092 A 
ATOM     13  C   UNL     1       9.625   2.675  23.618  0.00  0.00    -0.002 A 
ATOM     14  C   UNL     1      10.980   3.117  23.311  0.00  0.00    +0.016 A 
ENDBRANCH   1  13
BRANCH   4  15
ATOM     15  O   UNL     1      10.428  -1.627  21.533  0.00  0.00    -0.389 OA
ATOM     16  H   UNL     1      10.343  -2.558  21.800  0.00  0.00    +0.210 HD
ENDBRANCH   4  15
BRANCH   3  17
ATOM     17  C   UNL     1       9.201  -2.009  24.587  0.00  0.00    +0.206 C 
BRANCH  17  18
ATOM     18  O   UNL     1       9.738  -3.260  24.208  0.00  0.00    -0.284 OA
BRANCH  18  19
ATOM     19  P   UNL     1       9.257  -4.558  25.010  0.00  0.00    +0.472 P 
ATOM     20  O   UNL     1       8.481  -4.309  26.253  0.00  0.00    -0.228 OA
BRANCH  19  21
ATOM     21  O   UNL     1      10.637  -5.343  25.150  0.00  0.00    -0.303 OA
ATOM     22  H   UNL     1      10.516  -6.305  25.201  0.00  0.00    +0.222 HD
ENDBRANCH  19  21
BRANCH  19  23
ATOM     23  O   UNL     1       8.518  -5.354  23.840  0.00  0.00    -0.303 OA
ATOM     24  H   UNL     1       7.754  -4.865  23.491  0.00  0.00    +0.222 HD
ENDBRANCH  19  23
ENDBRANCH  18  19
ENDBRANCH  17  18
ENDBRANCH   3  17
TORSDOF 7
ENDMDL
MODEL 3
REMARK VINA RESULT:      -6.4      3.314      7.601
REMARK  Name = 
REMARK  8 active torsions:
REMARK  status: ('A' for Active; 'I' for Inactive)
REMARK    1  A    between atoms: C_1  and  C_2
REMARK    2  A    between atoms: C_4  and  C_9
REMARK    3  A    between atoms: C_12  and  O_14
REMARK    4  A    between atoms: C_15  and  C_17
REMARK    5  A    between atoms: C_17  and  O_18
REMARK    6  A    between atoms: O_18  and  P_19
REMARK    7  A    between atoms: P_19  and  O_20
REMARK    8  A    between atoms: P_19  and  O_21
REMARK                            x       y       z     vdW  Elec       q    Type
REMARK                         _______ _______ _______ _____ _____    ______ ____
ROOT
ATOM      1  C   UNL     1       9.457  -2.817  24.730  0.00  0.00    +0.153 C 
ATOM      2  O   UNL     1       9.197  -1.481  25.206  0.00  0.00    -0.364 OA
ATOM      3  C   UNL     1       9.530  -0.562  24.147  0.00  0.00    +0.174 C 
ATOM      4  C   UNL     1      10.117  -1.393  23.000  0.00  0.00    +0.148 C 
ATOM      5  C   UNL     1       9.446  -2.728  23.211  0.00  0.00    +0.070 C 
ENDROOT
BRANCH   1  13
ATOM      6  C   UNL     1       4.847  -4.962  24.745  0.00  0.00    +0.049 C 
ATOM      7  C   UNL     1       6.242  -4.799  25.252  0.00  0.00    +0.014 A 
ATOM      8  C   UNL     1       6.664  -5.711  26.359  0.00  0.00    +0.252 A 
ATOM      9  O   UNL     1       5.917  -6.562  26.828  0.00  0.00    -0.268 OA
ATOM     10  N   UNL     1       7.944  -5.542  26.820  0.00  0.00    -0.329 N 
ATOM     11  H   UNL     1       8.220  -6.160  27.572  0.00  0.00    +0.168 HD
ATOM     12  C   UNL     1       8.830  -4.625  26.320  0.00  0.00    +0.092 A 
ATOM     13  C   UNL     1       8.481  -3.803  25.316  0.00  0.00    -0.002 A 
ATOM     14  C   UNL     1       7.125  -3.894  24.789  0.00  0.00    +0.016 A 
ENDBRANCH   1  13
BRANCH   4  15
ATOM     15  O   UNL     1       9.859  -0.874  21.707  0.00  0.00    -0.389 OA
ATOM     16  H   UNL     1      10.033  -1.567  21.048  0.00  0.00    +0.210 HD
ENDBRANCH   4  15
BRANCH   3  17
ATOM     17  C   UNL     1      10.501   0.502  24.651  0.00  0.00    +0.206 C 
BRANCH  17  18
ATOM     18  O   UNL     1      10.947   1.274  23.555  0.00  0.00    -0.284 OA
BRANCH  18  19
ATOM     19  P   UNL     1      10.071   2.540  23.120  0.00  0.00    +0.472 P 
ATOM     20  O   UNL     1       8.935   2.887  24.014  0.00  0.00    -0.228 OA
BRANCH  19  21
ATOM     21  O   UNL     1       9.728   2.154  21.613  0.00  0.00    -0.303 OA
ATOM     22  H   UNL     1      10.483   1.761  21.147  0.00  0.00    +0.222 HD
ENDBRANCH  19  21
BRANCH  19  23
ATOM     23  O   UNL     1      11.221   3.634  22.950  0.00  0.00    -0.303 OA
ATOM     24  H   UNL     1      10.925   4.396  22.425  0.00  0.00    +0.222 HD
ENDBRANCH  19  23
ENDBRANCH  18  19
ENDBRANCH  17  18
ENDBRANCH   3  17
TORSDOF 7
ENDMDL
MODEL 4
REMARK VINA RESULT:      -6.3      2.015      2.671
REMARK  Name = 
REMARK  8 active torsions:
REMARK  status: ('A' for Active; 'I' for Inactive)
REMARK    1  A    between atoms: C_1  and  C_2
REMARK    2  A    between atoms: C_4  and  C_9
REMARK    3  A    between atoms: C_12  and  O_14
REMARK    4  A    between atoms: C_15  and  C_17
REMARK    5  A    between atoms: C_17  and  O_18
REMARK    6  A    between atoms: O_18  and  P_19
REMARK    7  A    between atoms: P_19  and  O_20
REMARK    8  A    between atoms: P_19  and  O_21
REMARK                            x       y       z     vdW  Elec       q    Type
REMARK                         _______ _______ _______ _____ _____    ______ ____
ROOT
ATOM      1  C   UNL     1       8.427  -3.660  23.842  0.00  0.00    +0.153 C 
ATOM      2  O   UNL     1       7.075  -3.588  24.337  0.00  0.00    -0.364 OA
ATOM      3  C   UNL     1       6.954  -4.522  25.428  0.00  0.00    +0.174 C 
ATOM      4  C   UNL     1       8.290  -5.268  25.530  0.00  0.00    +0.148 C 
ATOM      5  C   UNL     1       9.255  -4.250  24.974  0.00  0.00    +0.070 C 
ENDROOT
BRANCH   1  13
ATOM      6  C   UNL     1      10.890   0.715  24.652  0.00  0.00    +0.049 C 
ATOM      7  C   UNL     1      10.111  -0.239  23.807  0.00  0.00    +0.014 A 
ATOM      8  C   UNL     1       9.851   0.176  22.395  0.00  0.00    +0.252 A 
ATOM      9  O   UNL     1      10.260   1.237  21.937  0.00  0.00    -0.268 OA
ATOM     10  N   UNL     1       9.126  -0.706  21.634  0.00  0.00    -0.329 N 
ATOM     11  H   UNL     1       8.951  -0.415  20.681  0.00  0.00    +0.168 HD
ATOM     12  C   UNL     1       8.663  -1.914  22.084  0.00  0.00    +0.092 A 
ATOM     13  C   UNL     1       8.896  -2.317  23.345  0.00  0.00    -0.002 A 
ATOM     14  C   UNL     1       9.631  -1.423  24.232  0.00  0.00    +0.016 A 
ENDBRANCH   1  13
BRANCH   4  15
ATOM     15  O   UNL     1       8.643  -5.663  26.844  0.00  0.00    -0.389 OA
ATOM     16  H   UNL     1       9.411  -6.257  26.800  0.00  0.00    +0.210 HD
ENDBRANCH   4  15
BRANCH   3  17
ATOM     17  C   UNL     1       5.777  -5.465  25.194  0.00  0.00    +0.206 C 
BRANCH  17  18
ATOM     18  O   UNL     1       4.747  -4.760  24.532  0.00  0.00    -0.284 OA
BRANCH  18  19
ATOM     19  P   UNL     1       4.265  -5.297  23.104  0.00  0.00    +0.472 P 
ATOM     20  O   UNL     1       2.795  -5.376  22.897  0.00  0.00    -0.228 OA
BRANCH  19  21
ATOM     21  O   UNL     1       5.095  -6.653  23.006  0.00  0.00    -0.303 OA
ATOM     22  H   UNL     1       5.281  -6.912  22.088  0.00  0.00    +0.222 HD
ENDBRANCH  19  21
BRANCH  19  23
ATOM     23  O   UNL     1       5.081  -4.316  22.144  0.00  0.00    -0.303 OA
ATOM     24  H   UNL     1       4.805  -3.390  22.247  0.00  0.00    +0.222 HD
ENDBRANCH  19  23
ENDBRANCH  18  19
ENDBRANCH  17  18
ENDBRANCH   3  17
TORSDOF 7
ENDMDL
MODEL 5
REMARK VINA RESULT:      -6.2      3.168      5.076
REMARK  Name = 
REMARK  8 active torsions:
REMARK  status: ('A' for Active; 'I' for Inactive)
REMARK    1  A    between atoms: C_1  and  C_2
REMARK    2  A    between atoms: C_4  and  C_9
REMARK    3  A    between atoms: C_12  and  O_14
REMARK    4  A    between atoms: C_15  and  C_17
REMARK    5  A    between atoms: C_17  and  O_18
REMARK    6  A    between atoms: O_18  and  P_19
REMARK    7  A    between atoms: P_19  and  O_20
REMARK    8  A    between atoms: P_19  and  O_21
REMARK                            x       y       z     vdW  Elec       q    Type
REMARK                         _______ _______ _______ _____ _____    ______ ____
ROOT
ATOM      1  C   UNL     1       9.228   1.118  23.409  0.00  0.00    +0.153 C 
ATOM      2  O   UNL     1       9.743   0.291  24.471  0.00  0.00    -0.364 OA
ATOM      3  C   UNL     1      10.013  -1.014  23.923  0.00  0.00    +0.174 C 
ATOM      4  C   UNL     1       9.541  -0.995  22.465  0.00  0.00    +0.148 C 
ATOM      5  C   UNL     1       9.685   0.466  22.113  0.00  0.00    +0.070 C 
ENDROOT
BRANCH   1  13
ATOM      6  C   UNL     1       8.339   5.778  25.240  0.00  0.00    +0.049 C 
ATOM      7  C   UNL     1       9.160   4.769  24.507  0.00  0.00    +0.014 A 
ATOM      8  C   UNL     1      10.481   5.233  23.981  0.00  0.00    +0.252 A 
ATOM      9  O   UNL     1      10.886   6.378  24.146  0.00  0.00    -0.268 OA
ATOM     10  N   UNL     1      11.219   4.298  23.302  0.00  0.00    -0.329 N 
ATOM     11  H   UNL     1      12.108   4.622  22.946  0.00  0.00    +0.168 HD
ATOM     12  C   UNL     1      10.828   3.000  23.107  0.00  0.00    +0.092 A 
ATOM     13  C   UNL     1       9.652   2.552  23.582  0.00  0.00    -0.002 A 
ATOM     14  C   UNL     1       8.790   3.493  24.288  0.00  0.00    +0.016 A 
ENDBRANCH   1  13
BRANCH   4  15
ATOM     15  O   UNL     1      10.292  -1.822  21.593  0.00  0.00    -0.389 OA
ATOM     16  H   UNL     1       9.895  -1.788  20.706  0.00  0.00    +0.210 HD
ENDBRANCH   4  15
BRANCH   3  17
ATOM     17  C   UNL     1       9.315  -2.094  24.747  0.00  0.00    +0.206 C 
BRANCH  17  18
ATOM     18  O   UNL     1       9.758  -3.363  24.311  0.00  0.00    -0.284 OA
BRANCH  18  19
ATOM     19  P   UNL     1       9.198  -4.656  25.068  0.00  0.00    +0.472 P 
ATOM     20  O   UNL     1       8.310  -4.399  26.232  0.00  0.00    -0.228 OA
BRANCH  19  21
ATOM     21  O   UNL     1      10.554  -5.446  25.339  0.00  0.00    -0.303 OA
ATOM     22  H   UNL     1      11.258  -5.205  24.715  0.00  0.00    +0.222 HD
ENDBRANCH  19  21
BRANCH  19  23
ATOM     23  O   UNL     1       8.567  -5.453  23.836  0.00  0.00    -0.303 OA
ATOM     24  H   UNL     1       7.650  -5.724  24.007  0.00  0.00    +0.222 HD
ENDBRANCH  19  23
ENDBRANCH  18  19
ENDBRANCH  17  18
ENDBRANCH   3  17
TORSDOF 7
ENDMDL
MODEL 6
REMARK VINA RESULT:      -6.0      2.765      3.448
REMARK  Name = 
REMARK  8 active torsions:
REMARK  status: ('A' for Active; 'I' for Inactive)
REMARK    1  A    between atoms: C_1  and  C_2
REMARK    2  A    between atoms: C_4  and  C_9
REMARK    3  A    between atoms: C_12  and  O_14
REMARK    4  A    between atoms: C_15  and  C_17
REMARK    5  A    between atoms: C_17  and  O_18
REMARK    6  A    between atoms: O_18  and  P_19
REMARK    7  A    between atoms: P_19  and  O_20
REMARK    8  A    between atoms: P_19  and  O_21
REMARK                            x       y       z     vdW  Elec       q    Type
REMARK                         _______ _______ _______ _____ _____    ______ ____
ROOT
ATOM      1  C   UNL     1       8.656  -2.764  23.964  0.00  0.00    +0.153 C 
ATOM      2  O   UNL     1       7.390  -3.122  24.554  0.00  0.00    -0.364 OA
ATOM      3  C   UNL     1       7.507  -4.462  25.070  0.00  0.00    +0.174 C 
ATOM      4  C   UNL     1       8.898  -4.974  24.680  0.00  0.00    +0.148 C 
ATOM      5  C   UNL     1       9.687  -3.690  24.593  0.00  0.00    +0.070 C 
ENDROOT
BRANCH   1  13
ATOM      6  C   UNL     1       9.983   1.715  21.955  0.00  0.00    +0.049 C 
ATOM      7  C   UNL     1       9.571   0.832  23.087  0.00  0.00    +0.014 A 
ATOM      8  C   UNL     1       9.392   1.489  24.418  0.00  0.00    +0.252 A 
ATOM      9  O   UNL     1       9.561   2.691  24.583  0.00  0.00    -0.268 OA
ATOM     10  N   UNL     1       9.023   0.663  25.449  0.00  0.00    -0.329 N 
ATOM     11  H   UNL     1       8.909   1.115  26.347  0.00  0.00    +0.168 HD
ATOM     12  C   UNL     1       8.798  -0.681  25.319  0.00  0.00    +0.092 A 
ATOM     13  C   UNL     1       8.937  -1.294  24.130  0.00  0.00    -0.002 A 
ATOM     14  C   UNL     1       9.361  -0.495  22.987  0.00  0.00    +0.016 A 
ENDBRANCH   1  13
BRANCH   4  15
ATOM     15  O   UNL     1       9.472  -5.880  25.605  0.00  0.00    -0.389 OA
ATOM     16  H   UNL     1       9.980  -6.551  25.118  0.00  0.00    +0.210 HD
ENDBRANCH   4  15
BRANCH   3  17
ATOM     17  C   UNL     1       6.387  -5.343  24.523  0.00  0.00    +0.206 C 
BRANCH  17  18
ATOM     18  O   UNL     1       6.690  -5.695  23.188  0.00  0.00    -0.284 OA
BRANCH  18  19
ATOM     19  P   UNL     1       5.591  -5.401  22.064  0.00  0.00    +0.472 P 
ATOM     20  O   UNL     1       6.036  -5.566  20.655  0.00  0.00    -0.228 OA
BRANCH  19  21
ATOM     21  O   UNL     1       5.094  -3.955  22.513  0.00  0.00    -0.303 OA
ATOM     22  H   UNL     1       5.052  -3.328  21.772  0.00  0.00    +0.222 HD
ENDBRANCH  19  21
BRANCH  19  23
ATOM     23  O   UNL     1       4.411  -6.350  22.568  0.00  0.00    -0.303 OA
ATOM     24  H   UNL     1       3.577  -6.176  22.101  0.00  0.00    +0.222 HD
ENDBRANCH  19  23
ENDBRANCH  18  19
ENDBRANCH  17  18
ENDBRANCH   3  17
TORSDOF 7
ENDMDL
MODEL 7
REMARK VINA RESULT:      -6.0      1.635      2.221
REMARK  Name = 
REMARK  8 active torsions:
REMARK  status: ('A' for Active; 'I' for Inactive)
REMARK    1  A    between atoms: C_1  and  C_2
REMARK    2  A    between atoms: C_4  and  C_9
REMARK    3  A    between atoms: C_12  and  O_14
REMARK    4  A    between atoms: C_15  and  C_17
REMARK    5  A    between atoms: C_17  and  O_18
REMARK    6  A    between atoms: O_18  and  P_19
REMARK    7  A    between atoms: P_19  and  O_20
REMARK    8  A    between atoms: P_19  and  O_21
REMARK                            x       y       z     vdW  Elec       q    Type
REMARK                         _______ _______ _______ _____ _____    ______ ____
ROOT
ATOM      1  C   UNL     1       8.498  -2.744  24.740  0.00  0.00    +0.153 C 
ATOM      2  O   UNL     1       7.951  -2.936  26.059  0.00  0.00    -0.364 OA
ATOM      3  C   UNL     1       8.241  -4.288  26.465  0.00  0.00    +0.174 C 
ATOM      4  C   UNL     1       8.921  -4.977  25.276  0.00  0.00    +0.148 C 
ATOM      5  C   UNL     1       9.570  -3.811  24.573  0.00  0.00    +0.070 C 
ENDROOT
BRANCH   1  13
ATOM      6  C   UNL     1       9.588   1.155  21.662  0.00  0.00    +0.049 C 
ATOM      7  C   UNL     1       9.468   0.510  23.004  0.00  0.00    +0.014 A 
ATOM      8  C   UNL     1       9.798   1.360  24.189  0.00  0.00    +0.252 A 
ATOM      9  O   UNL     1      10.140   2.531  24.080  0.00  0.00    -0.268 OA
ATOM     10  N   UNL     1       9.692   0.750  25.413  0.00  0.00    -0.329 N 
ATOM     11  H   UNL     1       9.921   1.331  26.208  0.00  0.00    +0.168 HD
ATOM     12  C   UNL     1       9.293  -0.547  25.597  0.00  0.00    +0.092 A 
ATOM     13  C   UNL     1       8.976  -1.328  24.550  0.00  0.00    -0.002 A 
ATOM     14  C   UNL     1       9.094  -0.768  23.209  0.00  0.00    +0.016 A 
ENDBRANCH   1  13
BRANCH   4  15
ATOM     15  O   UNL     1       9.868  -5.968  25.634  0.00  0.00    -0.389 OA
ATOM     16  H   UNL     1      10.500  -6.080  24.904  0.00  0.00    +0.210 HD
ENDBRANCH   4  15
BRANCH   3  17
ATOM     17  C   UNL     1       6.963  -5.001  26.899  0.00  0.00    +0.206 C 
BRANCH  17  18
ATOM     18  O   UNL     1       7.063  -5.330  28.269  0.00  0.00    -0.284 OA
BRANCH  18  19
ATOM     19  P   UNL     1       5.866  -6.159  28.933  0.00  0.00    +0.472 P 
ATOM     20  O   UNL     1       5.673  -7.544  28.431  0.00  0.00    -0.228 OA
BRANCH  19  21
ATOM     21  O   UNL     1       4.661  -5.134  28.743  0.00  0.00    -0.303 OA
ATOM     22  H   UNL     1       4.376  -5.060  27.817  0.00  0.00    +0.222 HD
ENDBRANCH  19  21
BRANCH  19  23
ATOM     23  O   UNL     1       6.229  -5.990  30.478  0.00  0.00    -0.303 OA
ATOM     24  H   UNL     1       7.145  -5.691  30.608  0.00  0.00    +0.222 HD
ENDBRANCH  19  23
ENDBRANCH  18  19
ENDBRANCH  17  18
ENDBRANCH   3  17
TORSDOF 7
ENDMDL
MODEL 8
REMARK VINA RESULT:      -6.0      3.951      7.906
REMARK  Name = 
REMARK  8 active torsions:
REMARK  status: ('A' for Active; 'I' for Inactive)
REMARK    1  A    between atoms: C_1  and  C_2
REMARK    2  A    between atoms: C_4  and  C_9
REMARK    3  A    between atoms: C_12  and  O_14
REMARK    4  A    between atoms: C_15  and  C_17
REMARK    5  A    between atoms: C_17  and  O_18
REMARK    6  A    between atoms: O_18  and  P_19
REMARK    7  A    between atoms: P_19  and  O_20
REMARK    8  A    between atoms: P_19  and  O_21
REMARK                            x       y       z     vdW  Elec       q    Type
REMARK                         _______ _______ _______ _____ _____    ______ ____
ROOT
ATOM      1  C   UNL     1       9.504  -0.594  23.515  0.00  0.00    +0.153 C 
ATOM      2  O   UNL     1       8.572   0.332  24.108  0.00  0.00    -0.364 OA
ATOM      3  C   UNL     1       8.787   1.623  23.504  0.00  0.00    +0.174 C 
ATOM      4  C   UNL     1       9.986   1.482  22.560  0.00  0.00    +0.148 C 
ATOM      5  C   UNL     1       9.916   0.022  22.186  0.00  0.00    +0.070 C 
ENDROOT
BRANCH   1  13
ATOM      6  C   UNL     1       9.117  -5.346  25.282  0.00  0.00    +0.049 C 
ATOM      7  C   UNL     1       8.768  -4.244  24.337  0.00  0.00    +0.014 A 
ATOM      8  C   UNL     1       7.743  -4.554  23.294  0.00  0.00    +0.252 A 
ATOM      9  O   UNL     1       7.200  -5.650  23.215  0.00  0.00    -0.268 OA
ATOM     10  N   UNL     1       7.441  -3.535  22.428  0.00  0.00    -0.329 N 
ATOM     11  H   UNL     1       6.750  -3.755  21.722  0.00  0.00    +0.168 HD
ATOM     12  C   UNL     1       7.999  -2.285  22.482  0.00  0.00    +0.092 A 
ATOM     13  C   UNL     1       8.912  -1.975  23.419  0.00  0.00    -0.002 A 
ATOM     14  C   UNL     1       9.315  -3.013  24.360  0.00  0.00    +0.016 A 
ENDBRANCH   1  13
BRANCH   4  15
ATOM     15  O   UNL     1       9.937   2.319  21.419  0.00  0.00    -0.389 OA
ATOM     16  H   UNL     1       9.141   2.875  21.468  0.00  0.00    +0.210 HD
ENDBRANCH   4  15
BRANCH   3  17
ATOM     17  C   UNL     1       9.013   2.683  24.578  0.00  0.00    +0.206 C 
BRANCH  17  18
ATOM     18  O   UNL     1       9.696   3.780  24.006  0.00  0.00    -0.284 OA
BRANCH  18  19
ATOM     19  P   UNL     1       8.865   5.115  23.714  0.00  0.00    +0.472 P 
ATOM     20  O   UNL     1       9.636   6.386  23.750  0.00  0.00    -0.228 OA
BRANCH  19  21
ATOM     21  O   UNL     1       7.672   4.951  24.757  0.00  0.00    -0.303 OA
ATOM     22  H   UNL     1       7.985   4.847  25.671  0.00  0.00    +0.222 HD
ENDBRANCH  19  21
BRANCH  19  23
ATOM     23  O   UNL     1       8.177   4.722  22.329  0.00  0.00    -0.303 OA
ATOM     24  H   UNL     1       8.134   3.759  22.202  0.00  0.00    +0.222 HD
ENDBRANCH  19  23
ENDBRANCH  18  19
ENDBRANCH  17  18
ENDBRANCH   3  17
TORSDOF 7
ENDMDL
MODEL 9
REMARK VINA RESULT:      -6.0      2.125      3.227
REMARK  Name = 
REMARK  8 active torsions:
REMARK  status: ('A' for Active; 'I' for Inactive)
REMARK    1  A    between atoms: C_1  and  C_2
REMARK    2  A    between atoms: C_4  and  C_9
REMARK    3  A    between atoms: C_12  and  O_14
REMARK    4  A    between atoms: C_15  and  C_17
REMARK    5  A    between atoms: C_17  and  O_18
REMARK    6  A    between atoms: O_18  and  P_19
REMARK    7  A    between atoms: P_19  and  O_20
REMARK    8  A    between atoms: P_19  and  O_21
REMARK                            x       y       z     vdW  Elec       q    Type
REMARK                         _______ _______ _______ _____ _____    ______ ____
ROOT
ATOM      1  C   UNL     1       7.720  -1.736  23.740  0.00  0.00    +0.153 C 
ATOM      2  O   UNL     1       8.509  -2.913  23.474  0.00  0.00    -0.364 OA
ATOM      3  C   UNL     1       7.627  -3.927  22.953  0.00  0.00    +0.174 C 
ATOM      4  C   UNL     1       6.207  -3.353  22.999  0.00  0.00    +0.148 C 
ATOM      5  C   UNL     1       6.468  -1.871  22.886  0.00  0.00    +0.070 C 
ENDROOT
BRANCH   1  13
ATOM      6  C   UNL     1       7.931   3.135  22.295  0.00  0.00    +0.049 C 
ATOM      7  C   UNL     1       8.538   1.869  22.804  0.00  0.00    +0.014 A 
ATOM      8  C   UNL     1       9.997   1.908  23.128  0.00  0.00    +0.252 A 
ATOM      9  O   UNL     1      10.670   2.923  22.997  0.00  0.00    -0.268 OA
ATOM     10  N   UNL     1      10.541   0.735  23.584  0.00  0.00    -0.329 N 
ATOM     11  H   UNL     1      11.530   0.769  23.796  0.00  0.00    +0.168 HD
ATOM     12  C   UNL     1       9.834  -0.423  23.771  0.00  0.00    +0.092 A 
ATOM     13  C   UNL     1       8.518  -0.481  23.502  0.00  0.00    -0.002 A 
ATOM     14  C   UNL     1       7.867   0.714  22.980  0.00  0.00    +0.016 A 
ENDBRANCH   1  13
BRANCH   4  15
ATOM     15  O   UNL     1       5.352  -3.816  21.969  0.00  0.00    -0.389 OA
ATOM     16  H   UNL     1       4.438  -3.557  22.175  0.00  0.00    +0.210 HD
ENDBRANCH   4  15
BRANCH   3  17
ATOM     17  C   UNL     1       7.762  -5.216  23.759  0.00  0.00    +0.206 C 
BRANCH  17  18
ATOM     18  O   UNL     1       7.228  -5.008  25.050  0.00  0.00    -0.284 OA
BRANCH  18  19
ATOM     19  P   UNL     1       8.216  -5.131  26.303  0.00  0.00    +0.472 P 
ATOM     20  O   UNL     1       7.649  -5.761  27.524  0.00  0.00    -0.228 OA
BRANCH  19  21
ATOM     21  O   UNL     1       8.726  -3.626  26.421  0.00  0.00    -0.303 OA
ATOM     22  H   UNL     1       8.382  -3.176  27.210  0.00  0.00    +0.222 HD
ENDBRANCH  19  21
BRANCH  19  23
ATOM     23  O   UNL     1       9.454  -5.868  25.614  0.00  0.00    -0.303 OA
ATOM     24  H   UNL     1      10.304  -5.475  25.875  0.00  0.00    +0.222 HD
ENDBRANCH  19  23
ENDBRANCH  18  19
ENDBRANCH  17  18
ENDBRANCH   3  17
TORSDOF 7
ENDMDL
