MODEL 1
REMARK VINA RESULT:      -7.3      0.000      0.000
REMARK  Name = 
REMARK  5 active torsions:
REMARK  status: ('A' for Active; 'I' for Inactive)
REMARK    1  A    between atoms: C_1  and  N_2
REMARK    2  A    between atoms: C_3  and  C_4
REMARK    3  A    between atoms: C_4  and  N_6
REMARK    4  A    between atoms: C_10  and  C_11
REMARK    5  A    between atoms: C_13  and  O_14
REMARK                            x       y       z     vdW  Elec       q    Type
REMARK                         _______ _______ _______ _____ _____    ______ ____
ROOT
ATOM      1  C   UNL     1       7.499  -3.253  21.966  0.00  0.00    +0.158 C 
ATOM      2  N   UNL     1       7.097  -3.888  23.238  0.00  0.00    -0.197 N 
ATOM      3  S   UNL     1       5.792  -4.936  23.038  0.00  0.00    +0.075 S 
ATOM      4  O   UNL     1       4.651  -4.120  22.674  0.00  0.00    -0.150 OA
ATOM      5  O   UNL     1       6.226  -6.024  22.187  0.00  0.00    -0.150 OA
ATOM      6  C   UNL     1       5.429  -5.630  24.591  0.00  0.00    +0.119 A 
ATOM      7  C   UNL     1       6.269  -5.387  25.661  0.00  0.00    +0.045 A 
ATOM      8  C   UNL     1       5.915  -5.983  26.890  0.00  0.00    +0.013 A 
ATOM      9  C   UNL     1       4.780  -6.791  27.023  0.00  0.00    +0.001 A 
ATOM     10  C   UNL     1       3.963  -7.021  25.924  0.00  0.00    +0.002 A 
ATOM     11  C   UNL     1       7.473  -4.549  25.548  0.00  0.00    +0.153 C 
ATOM     12  C   UNL     1       4.283  -6.436  24.704  0.00  0.00    +0.029 A 
ATOM     13  C   UNL     1       7.878  -3.854  24.456  0.00  0.00    +0.156 C 
ENDROOT
BRANCH  11  14
ATOM     14  O   UNL     1       8.185  -4.548  26.747  0.00  0.00    -0.504 OA
ATOM     15  H   UNL     1       7.800  -3.867  27.339  0.00  0.00    +0.292 HD
ENDBRANCH  11  14
BRANCH  13  16
ATOM     16  C   UNL     1       9.165  -3.021  24.528  0.00  0.00    +0.288 C 
ATOM     17  O   UNL     1      10.230  -3.388  24.050  0.00  0.00    -0.266 OA
BRANCH  16  18
ATOM     18  N   UNL     1       8.981  -1.853  25.243  0.00  0.00    -0.155 NA
ATOM     19  C   UNL     1       9.147  -0.691  24.700  0.00  0.00    +0.157 A 
ATOM     20  C   UNL     1       9.544  -0.345  23.335  0.00  0.00    +0.090 A 
ATOM     21  C   UNL     1       9.677   0.979  23.440  0.00  0.00    +0.133 A 
ATOM     22  C   UNL     1      10.064   1.913  22.350  0.00  0.00    +0.089 C 
ATOM     23  O   UNL     1       9.432   1.535  24.693  0.00  0.00    -0.383 OA
ATOM     24  N   UNL     1       8.939   0.456  25.432  0.00  0.00    -0.205 N 
ATOM     25  H   UNL     1       9.204   0.443  26.410  0.00  0.00    +0.209 HD
ENDBRANCH  16  18
ENDBRANCH  13  16
TORSDOF 3
ENDMDL
MODEL 2
REMARK VINA RESULT:      -7.2      2.320      6.716
REMARK  Name = 
REMARK  5 active torsions:
REMARK  status: ('A' for Active; 'I' for Inactive)
REMARK    1  A    between atoms: C_1  and  N_2
REMARK    2  A    between atoms: C_3  and  C_4
REMARK    3  A    between atoms: C_4  and  N_6
REMARK    4  A    between atoms: C_10  and  C_11
REMARK    5  A    between atoms: C_13  and  O_14
REMARK                            x       y       z     vdW  Elec       q    Type
REMARK                         _______ _______ _______ _____ _____    ______ ____
ROOT
ATOM      1  C   UNL     1       6.765  -2.984  26.735  0.00  0.00    +0.158 C 
ATOM      2  N   UNL     1       7.678  -2.260  25.826  0.00  0.00    -0.197 N 
ATOM      3  S   UNL     1       7.683  -0.602  26.123  0.00  0.00    +0.075 S 
ATOM      4  O   UNL     1       6.366  -0.108  25.770  0.00  0.00    -0.150 OA
ATOM      5  O   UNL     1       8.219  -0.392  27.451  0.00  0.00    -0.150 OA
ATOM      6  C   UNL     1       8.802   0.131  25.012  0.00  0.00    +0.119 A 
ATOM      7  C   UNL     1       9.591  -0.671  24.208  0.00  0.00    +0.045 A 
ATOM      8  C   UNL     1      10.477  -0.010  23.332  0.00  0.00    +0.013 A 
ATOM      9  C   UNL     1      10.568   1.386  23.282  0.00  0.00    +0.001 A 
ATOM     10  C   UNL     1       9.766   2.161  24.109  0.00  0.00    +0.002 A 
ATOM     11  C   UNL     1       9.523  -2.140  24.247  0.00  0.00    +0.153 C 
ATOM     12  C   UNL     1       8.875   1.534  24.975  0.00  0.00    +0.029 A 
ATOM     13  C   UNL     1       8.663  -2.894  24.975  0.00  0.00    +0.156 C 
ENDROOT
BRANCH  11  14
ATOM     14  O   UNL     1      10.488  -2.698  23.409  0.00  0.00    -0.504 OA
ATOM     15  H   UNL     1      10.040  -3.070  22.620  0.00  0.00    +0.292 HD
ENDBRANCH  11  14
BRANCH  13  16
ATOM     16  C   UNL     1       8.733  -4.424  24.880  0.00  0.00    +0.288 C 
ATOM     17  O   UNL     1       8.988  -5.145  25.835  0.00  0.00    -0.266 OA
BRANCH  16  18
ATOM     18  N   UNL     1       8.538  -4.867  23.586  0.00  0.00    -0.155 NA
ATOM     19  C   UNL     1       7.360  -5.152  23.136  0.00  0.00    +0.157 A 
ATOM     20  C   UNL     1       6.063  -5.099  23.813  0.00  0.00    +0.090 A 
ATOM     21  C   UNL     1       5.273  -5.642  22.884  0.00  0.00    +0.133 A 
ATOM     22  C   UNL     1       3.806  -5.854  22.992  0.00  0.00    +0.089 C 
ATOM     23  O   UNL     1       5.886  -6.050  21.702  0.00  0.00    -0.383 OA
ATOM     24  N   UNL     1       7.193  -5.574  21.837  0.00  0.00    -0.205 N 
ATOM     25  H   UNL     1       7.913  -6.164  21.439  0.00  0.00    +0.209 HD
ENDBRANCH  16  18
ENDBRANCH  13  16
TORSDOF 3
ENDMDL
MODEL 3
REMARK VINA RESULT:      -7.2      2.253      6.606
REMARK  Name = 
REMARK  5 active torsions:
REMARK  status: ('A' for Active; 'I' for Inactive)
REMARK    1  A    between atoms: C_1  and  N_2
REMARK    2  A    between atoms: C_3  and  C_4
REMARK    3  A    between atoms: C_4  and  N_6
REMARK    4  A    between atoms: C_10  and  C_11
REMARK    5  A    between atoms: C_13  and  O_14
REMARK                            x       y       z     vdW  Elec       q    Type
REMARK                         _______ _______ _______ _____ _____    ______ ____
ROOT
ATOM      1  C   UNL     1       5.346  -2.415  24.265  0.00  0.00    +0.158 C 
ATOM      2  N   UNL     1       6.709  -1.859  24.126  0.00  0.00    -0.197 N 
ATOM      3  S   UNL     1       6.767  -0.220  24.513  0.00  0.00    +0.075 S 
ATOM      4  O   UNL     1       5.996   0.477  23.503  0.00  0.00    -0.150 OA
ATOM      5  O   UNL     1       6.441  -0.086  25.917  0.00  0.00    -0.150 OA
ATOM      6  C   UNL     1       8.414   0.308  24.331  0.00  0.00    +0.119 A 
ATOM      7  C   UNL     1       9.404  -0.621  24.072  0.00  0.00    +0.045 A 
ATOM      8  C   UNL     1      10.718  -0.124  23.938  0.00  0.00    +0.013 A 
ATOM      9  C   UNL     1      11.013   1.238  24.072  0.00  0.00    +0.001 A 
ATOM     10  C   UNL     1       9.993   2.142  24.341  0.00  0.00    +0.002 A 
ATOM     11  C   UNL     1       9.125  -2.059  23.936  0.00  0.00    +0.153 C 
ATOM     12  C   UNL     1       8.688   1.679  24.466  0.00  0.00    +0.029 A 
ATOM     13  C   UNL     1       7.907  -2.654  23.957  0.00  0.00    +0.156 C 
ENDROOT
BRANCH  11  14
ATOM     14  O   UNL     1      10.310  -2.777  23.772  0.00  0.00    -0.504 OA
ATOM     15  H   UNL     1      10.633  -2.643  22.856  0.00  0.00    +0.292 HD
ENDBRANCH  11  14
BRANCH  13  16
ATOM     16  C   UNL     1       7.808  -4.176  23.788  0.00  0.00    +0.288 C 
ATOM     17  O   UNL     1       7.256  -4.712  22.836  0.00  0.00    -0.266 OA
BRANCH  16  18
ATOM     18  N   UNL     1       8.358  -4.849  24.861  0.00  0.00    -0.155 NA
ATOM     19  C   UNL     1       7.636  -5.238  25.862  0.00  0.00    +0.157 A 
ATOM     20  C   UNL     1       6.202  -5.070  26.100  0.00  0.00    +0.090 A 
ATOM     21  C   UNL     1       6.097  -5.546  27.343  0.00  0.00    +0.133 A 
ATOM     22  C   UNL     1       4.849  -5.646  28.144  0.00  0.00    +0.089 C 
ATOM     23  O   UNL     1       7.273  -5.986  27.946  0.00  0.00    -0.383 OA
ATOM     24  N   UNL     1       8.209  -5.922  26.910  0.00  0.00    -0.205 N 
ATOM     25  H   UNL     1       9.146  -5.658  27.187  0.00  0.00    +0.209 HD
ENDBRANCH  16  18
ENDBRANCH  13  16
TORSDOF 3
ENDMDL
MODEL 4
REMARK VINA RESULT:      -7.1      2.584      3.623
REMARK  Name = 
REMARK  5 active torsions:
REMARK  status: ('A' for Active; 'I' for Inactive)
REMARK    1  A    between atoms: C_1  and  N_2
REMARK    2  A    between atoms: C_3  and  C_4
REMARK    3  A    between atoms: C_4  and  N_6
REMARK    4  A    between atoms: C_10  and  C_11
REMARK    5  A    between atoms: C_13  and  O_14
REMARK                            x       y       z     vdW  Elec       q    Type
REMARK                         _______ _______ _______ _____ _____    ______ ____
ROOT
ATOM      1  C   UNL     1       8.755  -3.531  26.847  0.00  0.00    +0.158 C 
ATOM      2  N   UNL     1       8.118  -3.515  25.514  0.00  0.00    -0.197 N 
ATOM      3  S   UNL     1       8.032  -5.054  24.835  0.00  0.00    +0.075 S 
ATOM      4  O   UNL     1       9.395  -5.473  24.571  0.00  0.00    -0.150 OA
ATOM      5  O   UNL     1       7.160  -5.856  25.666  0.00  0.00    -0.150 OA
ATOM      6  C   UNL     1       7.251  -4.907  23.288  0.00  0.00    +0.119 A 
ATOM      7  C   UNL     1       6.706  -3.694  22.910  0.00  0.00    +0.045 A 
ATOM      8  C   UNL     1       6.086  -3.646  21.644  0.00  0.00    +0.013 A 
ATOM      9  C   UNL     1       6.011  -4.769  20.812  0.00  0.00    +0.001 A 
ATOM     10  C   UNL     1       6.562  -5.974  21.227  0.00  0.00    +0.002 A 
ATOM     11  C   UNL     1       6.762  -2.500  23.769  0.00  0.00    +0.153 C 
ATOM     12  C   UNL     1       7.189  -6.045  22.466  0.00  0.00    +0.029 A 
ATOM     13  C   UNL     1       7.397  -2.387  24.962  0.00  0.00    +0.156 C 
ENDROOT
BRANCH  11  14
ATOM     14  O   UNL     1       6.057  -1.445  23.189  0.00  0.00    -0.504 OA
ATOM     15  H   UNL     1       5.244  -1.803  22.774  0.00  0.00    +0.292 HD
ENDBRANCH  11  14
BRANCH  13  16
ATOM     16  C   UNL     1       7.355  -1.051  25.715  0.00  0.00    +0.288 C 
ATOM     17  O   UNL     1       6.315  -0.481  26.014  0.00  0.00    -0.266 OA
BRANCH  16  18
ATOM     18  N   UNL     1       8.622  -0.555  25.950  0.00  0.00    -0.155 NA
ATOM     19  C   UNL     1       9.239   0.175  25.078  0.00  0.00    +0.157 A 
ATOM     20  C   UNL     1       8.808   0.607  23.748  0.00  0.00    +0.090 A 
ATOM     21  C   UNL     1       9.920   1.195  23.302  0.00  0.00    +0.133 A 
ATOM     22  C   UNL     1      10.099   1.850  21.980  0.00  0.00    +0.089 C 
ATOM     23  O   UNL     1      11.018   1.190  24.160  0.00  0.00    -0.383 OA
ATOM     24  N   UNL     1      10.495   0.671  25.347  0.00  0.00    -0.205 N 
ATOM     25  H   UNL     1      11.127   0.086  25.880  0.00  0.00    +0.209 HD
ENDBRANCH  16  18
ENDBRANCH  13  16
TORSDOF 3
ENDMDL
MODEL 5
REMARK VINA RESULT:      -7.0      2.305      3.126
REMARK  Name = 
REMARK  5 active torsions:
REMARK  status: ('A' for Active; 'I' for Inactive)
REMARK    1  A    between atoms: C_1  and  N_2
REMARK    2  A    between atoms: C_3  and  C_4
REMARK    3  A    between atoms: C_4  and  N_6
REMARK    4  A    between atoms: C_10  and  C_11
REMARK    5  A    between atoms: C_13  and  O_14
REMARK                            x       y       z     vdW  Elec       q    Type
REMARK                         _______ _______ _______ _____ _____    ______ ____
ROOT
ATOM      1  C   UNL     1       7.838  -1.528  25.950  0.00  0.00    +0.158 C 
ATOM      2  N   UNL     1       7.091  -2.547  25.184  0.00  0.00    -0.197 N 
ATOM      3  S   UNL     1       5.466  -2.605  25.623  0.00  0.00    +0.075 S 
ATOM      4  O   UNL     1       5.417  -3.084  26.990  0.00  0.00    -0.150 OA
ATOM      5  O   UNL     1       4.865  -1.338  25.261  0.00  0.00    -0.150 OA
ATOM      6  C   UNL     1       4.696  -3.820  24.645  0.00  0.00    +0.119 A 
ATOM      7  C   UNL     1       5.402  -4.419  23.619  0.00  0.00    +0.045 A 
ATOM      8  C   UNL     1       4.716  -5.394  22.865  0.00  0.00    +0.013 A 
ATOM      9  C   UNL     1       3.384  -5.734  23.128  0.00  0.00    +0.001 A 
ATOM     10  C   UNL     1       2.702  -5.105  24.162  0.00  0.00    +0.002 A 
ATOM     11  C   UNL     1       6.800  -4.074  23.313  0.00  0.00    +0.153 C 
ATOM     12  C   UNL     1       3.359  -4.148  24.928  0.00  0.00    +0.029 A 
ATOM     13  C   UNL     1       7.596  -3.224  24.008  0.00  0.00    +0.156 C 
ENDROOT
BRANCH  11  14
ATOM     14  O   UNL     1       7.236  -4.755  22.177  0.00  0.00    -0.504 OA
ATOM     15  H   UNL     1       6.677  -5.552  22.055  0.00  0.00    +0.292 HD
ENDBRANCH  11  14
BRANCH  13  16
ATOM     16  C   UNL     1       9.041  -2.995  23.543  0.00  0.00    +0.288 C 
ATOM     17  O   UNL     1      10.016  -3.403  24.159  0.00  0.00    -0.266 OA
BRANCH  16  18
ATOM     18  N   UNL     1       9.096  -2.230  22.395  0.00  0.00    -0.155 NA
ATOM     19  C   UNL     1       9.516  -1.007  22.413  0.00  0.00    +0.157 A 
ATOM     20  C   UNL     1       9.981  -0.195  23.538  0.00  0.00    +0.090 A 
ATOM     21  C   UNL     1      10.130   0.992  22.947  0.00  0.00    +0.133 A 
ATOM     22  C   UNL     1      10.599   2.245  23.595  0.00  0.00    +0.089 C 
ATOM     23  O   UNL     1       9.812   1.061  21.592  0.00  0.00    -0.383 OA
ATOM     24  N   UNL     1       9.577  -0.273  21.250  0.00  0.00    -0.205 N 
ATOM     25  H   UNL     1       8.849  -0.423  20.562  0.00  0.00    +0.209 HD
ENDBRANCH  16  18
ENDBRANCH  13  16
TORSDOF 3
ENDMDL
MODEL 6
REMARK VINA RESULT:      -6.9      1.794      2.191
REMARK  Name = 
REMARK  5 active torsions:
REMARK  status: ('A' for Active; 'I' for Inactive)
REMARK    1  A    between atoms: C_1  and  N_2
REMARK    2  A    between atoms: C_3  and  C_4
REMARK    3  A    between atoms: C_4  and  N_6
REMARK    4  A    between atoms: C_10  and  C_11
REMARK    5  A    between atoms: C_13  and  O_14
REMARK                            x       y       z     vdW  Elec       q    Type
REMARK                         _______ _______ _______ _____ _____    ______ ____
ROOT
ATOM      1  C   UNL     1       6.202  -5.091  22.908  0.00  0.00    +0.158 C 
ATOM      2  N   UNL     1       6.033  -5.343  24.354  0.00  0.00    -0.197 N 
ATOM      3  S   UNL     1       4.523  -5.999  24.710  0.00  0.00    +0.075 S 
ATOM      4  O   UNL     1       3.540  -4.975  24.413  0.00  0.00    -0.150 OA
ATOM      5  O   UNL     1       4.447  -7.301  24.083  0.00  0.00    -0.150 OA
ATOM      6  C   UNL     1       4.454  -6.266  26.427  0.00  0.00    +0.119 A 
ATOM      7  C   UNL     1       5.589  -6.078  27.194  0.00  0.00    +0.045 A 
ATOM      8  C   UNL     1       5.463  -6.315  28.579  0.00  0.00    +0.013 A 
ATOM      9  C   UNL     1       4.256  -6.733  29.153  0.00  0.00    +0.001 A 
ATOM     10  C   UNL     1       3.138  -6.919  28.351  0.00  0.00    +0.002 A 
ATOM     11  C   UNL     1       6.873  -5.650  26.616  0.00  0.00    +0.153 C 
ATOM     12  C   UNL     1       3.233  -6.682  26.985  0.00  0.00    +0.029 A 
ATOM     13  C   UNL     1       7.107  -5.309  25.324  0.00  0.00    +0.156 C 
ENDROOT
BRANCH  11  14
ATOM     14  O   UNL     1       7.869  -5.631  27.592  0.00  0.00    -0.504 OA
ATOM     15  H   UNL     1       7.447  -5.734  28.471  0.00  0.00    +0.292 HD
ENDBRANCH  11  14
BRANCH  13  16
ATOM     16  C   UNL     1       8.517  -4.874  24.904  0.00  0.00    +0.288 C 
ATOM     17  O   UNL     1       9.284  -5.595  24.281  0.00  0.00    -0.266 OA
BRANCH  16  18
ATOM     18  N   UNL     1       8.823  -3.609  25.366  0.00  0.00    -0.155 NA
ATOM     19  C   UNL     1       8.976  -2.609  24.559  0.00  0.00    +0.157 A 
ATOM     20  C   UNL     1       8.888  -2.565  23.099  0.00  0.00    +0.090 A 
ATOM     21  C   UNL     1       9.282  -1.311  22.862  0.00  0.00    +0.133 A 
ATOM     22  C   UNL     1       9.392  -0.661  21.530  0.00  0.00    +0.089 C 
ATOM     23  O   UNL     1       9.626  -0.543  23.972  0.00  0.00    -0.383 OA
ATOM     24  N   UNL     1       9.264  -1.356  25.050  0.00  0.00    -0.205 N 
ATOM     25  H   UNL     1       9.868  -1.296  25.860  0.00  0.00    +0.209 HD
ENDBRANCH  16  18
ENDBRANCH  13  16
TORSDOF 3
ENDMDL
MODEL 7
REMARK VINA RESULT:      -6.8      2.833      6.816
REMARK  Name = 
REMARK  5 active torsions:
REMARK  status: ('A' for Active; 'I' for Inactive)
REMARK    1  A    between atoms: C_1  and  N_2
REMARK    2  A    between atoms: C_3  and  C_4
REMARK    3  A    between atoms: C_4  and  N_6
REMARK    4  A    between atoms: C_10  and  C_11
REMARK    5  A    between atoms: C_13  and  O_14
REMARK                            x       y       z     vdW  Elec       q    Type
REMARK                         _______ _______ _______ _____ _____    ______ ____
ROOT
ATOM      1  C   UNL     1       9.643  -2.500  23.912  0.00  0.00    +0.158 C 
ATOM      2  N   UNL     1       8.730  -1.341  23.831  0.00  0.00    -0.197 N 
ATOM      3  S   UNL     1       9.251  -0.201  22.706  0.00  0.00    +0.075 S 
ATOM      4  O   UNL     1      10.487   0.359  23.218  0.00  0.00    -0.150 OA
ATOM      5  O   UNL     1       9.205  -0.817  21.397  0.00  0.00    -0.150 OA
ATOM      6  C   UNL     1       8.091   1.095  22.689  0.00  0.00    +0.119 A 
ATOM      7  C   UNL     1       6.918   0.971  23.410  0.00  0.00    +0.045 A 
ATOM      8  C   UNL     1       6.022   2.058  23.350  0.00  0.00    +0.013 A 
ATOM      9  C   UNL     1       6.293   3.203  22.591  0.00  0.00    +0.001 A 
ATOM     10  C   UNL     1       7.479   3.290  21.872  0.00  0.00    +0.002 A 
ATOM     11  C   UNL     1       6.602  -0.225  24.208  0.00  0.00    +0.153 C 
ATOM     12  C   UNL     1       8.385   2.236  21.924  0.00  0.00    +0.029 A 
ATOM     13  C   UNL     1       7.407  -1.296  24.418  0.00  0.00    +0.156 C 
ENDROOT
BRANCH  11  14
ATOM     14  O   UNL     1       5.322  -0.127  24.752  0.00  0.00    -0.504 OA
ATOM     15  H   UNL     1       5.372   0.403  25.576  0.00  0.00    +0.292 HD
ENDBRANCH  11  14
BRANCH  13  16
ATOM     16  C   UNL     1       6.909  -2.453  25.294  0.00  0.00    +0.288 C 
ATOM     17  O   UNL     1       7.567  -2.937  26.204  0.00  0.00    -0.266 OA
BRANCH  16  18
ATOM     18  N   UNL     1       5.670  -2.908  24.887  0.00  0.00    -0.155 NA
ATOM     19  C   UNL     1       5.543  -3.779  23.939  0.00  0.00    +0.157 A 
ATOM     20  C   UNL     1       6.570  -4.429  23.125  0.00  0.00    +0.090 A 
ATOM     21  C   UNL     1       5.813  -5.091  22.247  0.00  0.00    +0.133 A 
ATOM     22  C   UNL     1       6.300  -5.963  21.147  0.00  0.00    +0.089 C 
ATOM     23  O   UNL     1       4.434  -4.945  22.376  0.00  0.00    -0.383 OA
ATOM     24  N   UNL     1       4.296  -4.228  23.567  0.00  0.00    -0.205 N 
ATOM     25  H   UNL     1       3.533  -3.563  23.587  0.00  0.00    +0.209 HD
ENDBRANCH  16  18
ENDBRANCH  13  16
TORSDOF 3
ENDMDL
MODEL 8
REMARK VINA RESULT:      -6.6      1.889      3.015
REMARK  Name = 
REMARK  5 active torsions:
REMARK  status: ('A' for Active; 'I' for Inactive)
REMARK    1  A    between atoms: C_1  and  N_2
REMARK    2  A    between atoms: C_3  and  C_4
REMARK    3  A    between atoms: C_4  and  N_6
REMARK    4  A    between atoms: C_10  and  C_11
REMARK    5  A    between atoms: C_13  and  O_14
REMARK                            x       y       z     vdW  Elec       q    Type
REMARK                         _______ _______ _______ _____ _____    ______ ____
ROOT
ATOM      1  C   UNL     1       8.760  -2.157  26.338  0.00  0.00    +0.158 C 
ATOM      2  N   UNL     1       7.997  -3.159  25.564  0.00  0.00    -0.197 N 
ATOM      3  S   UNL     1       6.849  -3.949  26.511  0.00  0.00    +0.075 S 
ATOM      4  O   UNL     1       7.578  -4.736  27.486  0.00  0.00    -0.150 OA
ATOM      5  O   UNL     1       5.873  -2.967  26.934  0.00  0.00    -0.150 OA
ATOM      6  C   UNL     1       6.009  -5.079  25.491  0.00  0.00    +0.119 A 
ATOM      7  C   UNL     1       6.250  -5.080  24.129  0.00  0.00    +0.045 A 
ATOM      8  C   UNL     1       5.533  -6.021  23.361  0.00  0.00    +0.013 A 
ATOM      9  C   UNL     1       4.614  -6.905  23.939  0.00  0.00    +0.001 A 
ATOM     10  C   UNL     1       4.391  -6.871  25.310  0.00  0.00    +0.002 A 
ATOM     11  C   UNL     1       7.203  -4.157  23.494  0.00  0.00    +0.153 C 
ATOM     12  C   UNL     1       5.093  -5.960  26.091  0.00  0.00    +0.029 A 
ATOM     13  C   UNL     1       8.013  -3.268  24.121  0.00  0.00    +0.156 C 
ENDROOT
BRANCH  11  14
ATOM     14  O   UNL     1       7.182  -4.307  22.107  0.00  0.00    -0.504 OA
ATOM     15  H   UNL     1       6.286  -4.076  21.781  0.00  0.00    +0.292 HD
ENDBRANCH  11  14
BRANCH  13  16
ATOM     16  C   UNL     1       8.956  -2.390  23.288  0.00  0.00    +0.288 C 
ATOM     17  O   UNL     1      10.174  -2.499  23.315  0.00  0.00    -0.266 OA
BRANCH  16  18
ATOM     18  N   UNL     1       8.265  -1.436  22.566  0.00  0.00    -0.155 NA
ATOM     19  C   UNL     1       8.342  -0.178  22.855  0.00  0.00    +0.157 A 
ATOM     20  C   UNL     1       9.090   0.493  23.920  0.00  0.00    +0.090 A 
ATOM     21  C   UNL     1       8.651   1.746  23.784  0.00  0.00    +0.133 A 
ATOM     22  C   UNL     1       9.067   2.917  24.599  0.00  0.00    +0.089 C 
ATOM     23  O   UNL     1       7.709   1.974  22.783  0.00  0.00    -0.383 OA
ATOM     24  N   UNL     1       7.657   0.752  22.107  0.00  0.00    -0.205 N 
ATOM     25  H   UNL     1       6.745   0.491  21.753  0.00  0.00    +0.209 HD
ENDBRANCH  16  18
ENDBRANCH  13  16
TORSDOF 3
ENDMDL
MODEL 9
REMARK VINA RESULT:      -6.6      2.746      6.738
REMARK  Name = 
REMARK  5 active torsions:
REMARK  status: ('A' for Active; 'I' for Inactive)
REMARK    1  A    between atoms: C_1  and  N_2
REMARK    2  A    between atoms: C_3  and  C_4
REMARK    3  A    between atoms: C_4  and  N_6
REMARK    4  A    between atoms: C_10  and  C_11
REMARK    5  A    between atoms: C_13  and  O_14
REMARK                            x       y       z     vdW  Elec       q    Type
REMARK                         _______ _______ _______ _____ _____    ______ ____
ROOT
ATOM      1  C   UNL     1      10.547  -1.543  22.566  0.00  0.00    +0.158 C 
ATOM      2  N   UNL     1       9.580  -0.941  23.508  0.00  0.00    -0.197 N 
ATOM      3  S   UNL     1       9.717   0.737  23.571  0.00  0.00    +0.075 S 
ATOM      4  O   UNL     1      11.011   1.030  24.157  0.00  0.00    -0.150 OA
ATOM      5  O   UNL     1       9.359   1.259  22.270  0.00  0.00    -0.150 OA
ATOM      6  C   UNL     1       8.522   1.324  24.690  0.00  0.00    +0.119 A 
ATOM      7  C   UNL     1       7.592   0.447  25.218  0.00  0.00    +0.045 A 
ATOM      8  C   UNL     1       6.651   0.991  26.117  0.00  0.00    +0.013 A 
ATOM      9  C   UNL     1       6.645   2.350  26.453  0.00  0.00    +0.001 A 
ATOM     10  C   UNL     1       7.589   3.203  25.898  0.00  0.00    +0.002 A 
ATOM     11  C   UNL     1       7.569  -0.983  24.875  0.00  0.00    +0.153 C 
ATOM     12  C   UNL     1       8.535   2.690  25.017  0.00  0.00    +0.029 A 
ATOM     13  C   UNL     1       8.461  -1.645  24.097  0.00  0.00    +0.156 C 
ENDROOT
BRANCH  11  14
ATOM     14  O   UNL     1       6.476  -1.613  25.470  0.00  0.00    -0.504 OA
ATOM     15  H   UNL     1       6.199  -2.363  24.901  0.00  0.00    +0.292 HD
ENDBRANCH  11  14
BRANCH  13  16
ATOM     16  C   UNL     1       8.280  -3.150  23.858  0.00  0.00    +0.288 C 
ATOM     17  O   UNL     1       7.776  -3.613  22.844  0.00  0.00    -0.266 OA
BRANCH  16  18
ATOM     18  N   UNL     1       8.697  -3.897  24.943  0.00  0.00    -0.155 NA
ATOM     19  C   UNL     1       7.909  -4.734  25.535  0.00  0.00    +0.157 A 
ATOM     20  C   UNL     1       6.512  -5.063  25.250  0.00  0.00    +0.090 A 
ATOM     21  C   UNL     1       6.228  -5.865  26.279  0.00  0.00    +0.133 A 
ATOM     22  C   UNL     1       4.928  -6.538  26.537  0.00  0.00    +0.089 C 
ATOM     23  O   UNL     1       7.250  -6.088  27.198  0.00  0.00    -0.383 OA
ATOM     24  N   UNL     1       8.357  -5.477  26.603  0.00  0.00    -0.205 N 
ATOM     25  H   UNL     1       9.005  -5.036  27.244  0.00  0.00    +0.209 HD
ENDBRANCH  16  18
ENDBRANCH  13  16
TORSDOF 3
ENDMDL
