MODEL 1
REMARK VINA RESULT:      -5.4      0.000      0.000
REMARK  Name = 
REMARK  11 active torsions:
REMARK  status: ('A' for Active; 'I' for Inactive)
REMARK    1  A    between atoms: C_2  and  N_3
REMARK    2  A    between atoms: C_2  and  C_4
REMARK    3  A    between atoms: C_2  and  C_11
REMARK    4  A    between atoms: C_4  and  C_5
REMARK    5  A    between atoms: C_11  and  O_13
REMARK    6  A    between atoms: C_11  and  C_14
REMARK    7  A    between atoms: C_14  and  O_16
REMARK    8  A    between atoms: C_14  and  C_17
REMARK    9  A    between atoms: C_17  and  C_18
REMARK   10  A    between atoms: C_18  and  C_19
REMARK   11  A    between atoms: C_18  and  C_20
REMARK                            x       y       z     vdW  Elec       q    Type
REMARK                         _______ _______ _______ _____ _____    ______ ____
ROOT
ATOM      1  C   UNL     1       8.125  -2.445  24.752  0.00  0.00    +0.082 C 
ENDROOT
BRANCH   1   2
ATOM      2  N   UNL     1       8.663  -2.266  26.113  0.00  0.00    -0.325 NA
ATOM      3  H   UNL     1       9.648  -2.573  26.092  0.00  0.00    +0.119 HD
ATOM      4  H   UNL     1       8.765  -1.260  26.274  0.00  0.00    +0.119 HD
ENDBRANCH   1   2
BRANCH   1   5
ATOM      5  C   UNL     1       8.722  -3.717  24.070  0.00  0.00    +0.160 C 
BRANCH   5   6
ATOM      6  O   UNL     1      10.041  -3.990  24.582  0.00  0.00    -0.388 OA
ATOM      7  H   UNL     1      10.590  -3.203  24.410  0.00  0.00    +0.210 HD
ENDBRANCH   5   6
BRANCH   5   8
ATOM      8  C   UNL     1       7.881  -5.015  24.240  0.00  0.00    +0.145 C 
BRANCH   8   9
ATOM      9  O   UNL     1       7.498  -5.215  25.612  0.00  0.00    -0.389 OA
ATOM     10  H   UNL     1       8.286  -5.004  26.146  0.00  0.00    +0.210 HD
ENDBRANCH   8   9
BRANCH   8  11
ATOM     11  C   UNL     1       6.581  -5.069  23.434  0.00  0.00    +0.037 C 
BRANCH  11  12
ATOM     12  C   UNL     1       6.661  -4.572  21.985  0.00  0.00    -0.015 C 
ATOM     13  C   UNL     1       5.785  -3.322  21.835  0.00  0.00    +0.007 C 
ATOM     14  C   UNL     1       6.222  -5.648  20.988  0.00  0.00    +0.007 C 
ENDBRANCH  11  12
ENDBRANCH   8  11
ENDBRANCH   5   8
ENDBRANCH   1   5
BRANCH   1  15
ATOM     15  C   UNL     1       8.407  -1.123  23.997  0.00  0.00    +0.024 C 
BRANCH  15  16
ATOM     16  C   UNL     1       9.813  -0.986  23.364  0.00  0.00    -0.009 C 
ATOM     17  C   UNL     1      10.594   0.180  24.003  0.00  0.00    +0.003 C 
ATOM     18  C   UNL     1      10.061   1.557  23.594  0.00  0.00    +0.000 C 
ATOM     19  C   UNL     1       9.996   1.708  22.081  0.00  0.00    +0.000 C 
ATOM     20  C   UNL     1       9.238   0.562  21.414  0.00  0.00    +0.000 C 
ATOM     21  C   UNL     1       9.789  -0.798  21.837  0.00  0.00    +0.003 C 
ENDBRANCH  15  16
ENDBRANCH   1  15
TORSDOF 9
ENDMDL
MODEL 2
REMARK VINA RESULT:      -5.4      1.018      1.438
REMARK  Name = 
REMARK  11 active torsions:
REMARK  status: ('A' for Active; 'I' for Inactive)
REMARK    1  A    between atoms: C_2  and  N_3
REMARK    2  A    between atoms: C_2  and  C_4
REMARK    3  A    between atoms: C_2  and  C_11
REMARK    4  A    between atoms: C_4  and  C_5
REMARK    5  A    between atoms: C_11  and  O_13
REMARK    6  A    between atoms: C_11  and  C_14
REMARK    7  A    between atoms: C_14  and  O_16
REMARK    8  A    between atoms: C_14  and  C_17
REMARK    9  A    between atoms: C_17  and  C_18
REMARK   10  A    between atoms: C_18  and  C_19
REMARK   11  A    between atoms: C_18  and  C_20
REMARK                            x       y       z     vdW  Elec       q    Type
REMARK                         _______ _______ _______ _____ _____    ______ ____
ROOT
ATOM      1  C   UNL     1       8.098  -2.231  25.462  0.00  0.00    +0.082 C 
ENDROOT
BRANCH   1   2
ATOM      2  N   UNL     1       8.228  -1.493  26.732  0.00  0.00    -0.325 NA
ATOM      3  H   UNL     1       8.511  -0.530  26.495  0.00  0.00    +0.119 HD
ATOM      4  H   UNL     1       7.283  -1.345  27.098  0.00  0.00    +0.119 HD
ENDBRANCH   1   2
BRANCH   1   5
ATOM      5  C   UNL     1       9.024  -3.488  25.440  0.00  0.00    +0.160 C 
BRANCH   5   6
ATOM      6  O   UNL     1       8.953  -4.186  26.699  0.00  0.00    -0.388 OA
ATOM      7  H   UNL     1       8.228  -3.786  27.214  0.00  0.00    +0.210 HD
ENDBRANCH   5   6
BRANCH   5   8
ATOM      8  C   UNL     1       8.712  -4.521  24.319  0.00  0.00    +0.145 C 
BRANCH   8   9
ATOM      9  O   UNL     1       9.503  -5.713  24.470  0.00  0.00    -0.389 OA
ATOM     10  H   UNL     1      10.276  -5.458  25.005  0.00  0.00    +0.210 HD
ENDBRANCH   8   9
BRANCH   8  11
ATOM     11  C   UNL     1       7.258  -4.994  24.245  0.00  0.00    +0.037 C 
BRANCH  11  12
ATOM     12  C   UNL     1       6.585  -4.902  22.869  0.00  0.00    -0.015 C 
ATOM     13  C   UNL     1       6.988  -6.123  22.033  0.00  0.00    +0.007 C 
ATOM     14  C   UNL     1       6.961  -3.611  22.135  0.00  0.00    +0.007 C 
ENDBRANCH  11  12
ENDBRANCH   8  11
ENDBRANCH   5   8
ENDBRANCH   1   5
BRANCH   1  15
ATOM     15  C   UNL     1       8.381  -1.208  24.334  0.00  0.00    +0.024 C 
BRANCH  15  16
ATOM     16  C   UNL     1       9.860  -1.066  23.899  0.00  0.00    -0.009 C 
ATOM     17  C   UNL     1      10.441   0.288  24.356  0.00  0.00    +0.003 C 
ATOM     18  C   UNL     1       9.889   1.478  23.563  0.00  0.00    +0.000 C 
ATOM     19  C   UNL     1      10.067   1.284  22.064  0.00  0.00    +0.000 C 
ATOM     20  C   UNL     1       9.512  -0.054  21.580  0.00  0.00    +0.000 C 
ATOM     21  C   UNL     1      10.078  -1.222  22.385  0.00  0.00    +0.003 C 
ENDBRANCH  15  16
ENDBRANCH   1  15
TORSDOF 9
ENDMDL
MODEL 3
REMARK VINA RESULT:      -5.3      1.763      5.877
REMARK  Name = 
REMARK  11 active torsions:
REMARK  status: ('A' for Active; 'I' for Inactive)
REMARK    1  A    between atoms: C_2  and  N_3
REMARK    2  A    between atoms: C_2  and  C_4
REMARK    3  A    between atoms: C_2  and  C_11
REMARK    4  A    between atoms: C_4  and  C_5
REMARK    5  A    between atoms: C_11  and  O_13
REMARK    6  A    between atoms: C_11  and  C_14
REMARK    7  A    between atoms: C_14  and  O_16
REMARK    8  A    between atoms: C_14  and  C_17
REMARK    9  A    between atoms: C_17  and  C_18
REMARK   10  A    between atoms: C_18  and  C_19
REMARK   11  A    between atoms: C_18  and  C_20
REMARK                            x       y       z     vdW  Elec       q    Type
REMARK                         _______ _______ _______ _____ _____    ______ ____
ROOT
ATOM      1  C   UNL     1       9.013  -2.516  23.496  0.00  0.00    +0.082 C 
ENDROOT
BRANCH   1   2
ATOM      2  N   UNL     1       9.888  -3.484  24.184  0.00  0.00    -0.325 NA
ATOM      3  H   UNL     1      10.595  -2.940  24.699  0.00  0.00    +0.119 HD
ATOM      4  H   UNL     1       9.347  -3.896  24.949  0.00  0.00    +0.119 HD
ENDBRANCH   1   2
BRANCH   1   5
ATOM      5  C   UNL     1       8.534  -1.394  24.471  0.00  0.00    +0.160 C 
BRANCH   5   6
ATOM      6  O   UNL     1       8.598  -1.854  25.836  0.00  0.00    -0.388 OA
ATOM      7  H   UNL     1       8.514  -2.825  25.821  0.00  0.00    +0.210 HD
ENDBRANCH   5   6
BRANCH   5   8
ATOM      8  C   UNL     1       9.336  -0.063  24.393  0.00  0.00    +0.145 C 
BRANCH   8   9
ATOM      9  O   UNL     1      10.087   0.168  25.598  0.00  0.00    -0.389 OA
ATOM     10  H   UNL     1      10.138   1.136  25.703  0.00  0.00    +0.210 HD
ENDBRANCH   8   9
BRANCH   8  11
ATOM     11  C   UNL     1      10.349   0.031  23.249  0.00  0.00    +0.037 C 
BRANCH  11  12
ATOM     12  C   UNL     1      10.109   1.145  22.222  0.00  0.00    -0.015 C 
ATOM     13  C   UNL     1      10.246   2.504  22.917  0.00  0.00    +0.007 C 
ATOM     14  C   UNL     1       8.732   1.025  21.562  0.00  0.00    +0.007 C 
ENDBRANCH  11  12
ENDBRANCH   8  11
ENDBRANCH   5   8
ENDBRANCH   1   5
BRANCH   1  15
ATOM     15  C   UNL     1       7.868  -3.341  22.859  0.00  0.00    +0.024 C 
BRANCH  15  16
ATOM     16  C   UNL     1       7.671  -4.773  23.413  0.00  0.00    -0.009 C 
ATOM     17  C   UNL     1       7.432  -5.778  22.268  0.00  0.00    +0.003 C 
ATOM     18  C   UNL     1       6.053  -5.630  21.615  0.00  0.00    +0.000 C 
ATOM     19  C   UNL     1       4.934  -5.698  22.644  0.00  0.00    +0.000 C 
ATOM     20  C   UNL     1       5.146  -4.722  23.799  0.00  0.00    +0.000 C 
ATOM     21  C   UNL     1       6.525  -4.890  24.433  0.00  0.00    +0.003 C 
ENDBRANCH  15  16
ENDBRANCH   1  15
TORSDOF 9
ENDMDL
MODEL 4
REMARK VINA RESULT:      -5.3      2.418      3.719
REMARK  Name = 
REMARK  11 active torsions:
REMARK  status: ('A' for Active; 'I' for Inactive)
REMARK    1  A    between atoms: C_2  and  N_3
REMARK    2  A    between atoms: C_2  and  C_4
REMARK    3  A    between atoms: C_2  and  C_11
REMARK    4  A    between atoms: C_4  and  C_5
REMARK    5  A    between atoms: C_11  and  O_13
REMARK    6  A    between atoms: C_11  and  C_14
REMARK    7  A    between atoms: C_14  and  O_16
REMARK    8  A    between atoms: C_14  and  C_17
REMARK    9  A    between atoms: C_17  and  C_18
REMARK   10  A    between atoms: C_18  and  C_19
REMARK   11  A    between atoms: C_18  and  C_20
REMARK                            x       y       z     vdW  Elec       q    Type
REMARK                         _______ _______ _______ _____ _____    ______ ____
ROOT
ATOM      1  C   UNL     1       9.962  -1.713  22.972  0.00  0.00    +0.082 C 
ENDROOT
BRANCH   1   2
ATOM      2  N   UNL     1      10.115  -1.678  21.506  0.00  0.00    -0.325 NA
ATOM      3  H   UNL     1      11.005  -2.148  21.283  0.00  0.00    +0.119 HD
ATOM      4  H   UNL     1       9.433  -2.330  21.110  0.00  0.00    +0.119 HD
ENDBRANCH   1   2
BRANCH   1   5
ATOM      5  C   UNL     1       8.621  -2.400  23.385  0.00  0.00    +0.160 C 
BRANCH   5   6
ATOM      6  O   UNL     1       7.985  -2.991  22.234  0.00  0.00    -0.388 OA
ATOM      7  H   UNL     1       8.348  -2.553  21.443  0.00  0.00    +0.210 HD
ENDBRANCH   5   6
BRANCH   5   8
ATOM      8  C   UNL     1       8.752  -3.512  24.465  0.00  0.00    +0.145 C 
BRANCH   8   9
ATOM      9  O   UNL     1      10.077  -4.071  24.484  0.00  0.00    -0.389 OA
ATOM     10  H   UNL     1      10.224  -4.449  23.598  0.00  0.00    +0.210 HD
ENDBRANCH   8   9
BRANCH   8  11
ATOM     11  C   UNL     1       8.466  -3.073  25.902  0.00  0.00    +0.037 C 
BRANCH  11  12
ATOM     12  C   UNL     1       7.844  -1.680  26.074  0.00  0.00    -0.015 C 
ATOM     13  C   UNL     1       8.776  -0.818  26.933  0.00  0.00    +0.007 C 
ATOM     14  C   UNL     1       6.453  -1.752  26.710  0.00  0.00    +0.007 C 
ENDBRANCH  11  12
ENDBRANCH   8  11
ENDBRANCH   5   8
ENDBRANCH   1   5
BRANCH   1  15
ATOM     15  C   UNL     1      10.108  -0.251  23.460  0.00  0.00    +0.024 C 
BRANCH  15  16
ATOM     16  C   UNL     1       9.200   0.793  22.766  0.00  0.00    -0.009 C 
ATOM     17  C   UNL     1      10.035   1.963  22.207  0.00  0.00    +0.003 C 
ATOM     18  C   UNL     1      10.589   2.883  23.300  0.00  0.00    +0.000 C 
ATOM     19  C   UNL     1       9.488   3.388  24.221  0.00  0.00    +0.000 C 
ATOM     20  C   UNL     1       8.634   2.253  24.783  0.00  0.00    +0.000 C 
ATOM     21  C   UNL     1       8.093   1.353  23.675  0.00  0.00    +0.003 C 
ENDBRANCH  15  16
ENDBRANCH   1  15
TORSDOF 9
ENDMDL
MODEL 5
REMARK VINA RESULT:      -5.2      2.210      5.826
REMARK  Name = 
REMARK  11 active torsions:
REMARK  status: ('A' for Active; 'I' for Inactive)
REMARK    1  A    between atoms: C_2  and  N_3
REMARK    2  A    between atoms: C_2  and  C_4
REMARK    3  A    between atoms: C_2  and  C_11
REMARK    4  A    between atoms: C_4  and  C_5
REMARK    5  A    between atoms: C_11  and  O_13
REMARK    6  A    between atoms: C_11  and  C_14
REMARK    7  A    between atoms: C_14  and  O_16
REMARK    8  A    between atoms: C_14  and  C_17
REMARK    9  A    between atoms: C_17  and  C_18
REMARK   10  A    between atoms: C_18  and  C_19
REMARK   11  A    between atoms: C_18  and  C_20
REMARK                            x       y       z     vdW  Elec       q    Type
REMARK                         _______ _______ _______ _____ _____    ______ ____
ROOT
ATOM      1  C   UNL     1       9.628  -2.230  23.426  0.00  0.00    +0.082 C 
ENDROOT
BRANCH   1   2
ATOM      2  N   UNL     1       9.329  -1.793  24.803  0.00  0.00    -0.325 NA
ATOM      3  H   UNL     1       9.114  -2.641  25.349  0.00  0.00    +0.119 HD
ATOM      4  H   UNL     1      10.211  -1.494  25.228  0.00  0.00    +0.119 HD
ENDBRANCH   1   2
BRANCH   1   5
ATOM      5  C   UNL     1      10.244  -1.067  22.585  0.00  0.00    +0.160 C 
BRANCH   5   6
ATOM      6  O   UNL     1       9.783  -1.135  21.221  0.00  0.00    -0.388 OA
ATOM      7  H   UNL     1       8.966  -1.666  21.215  0.00  0.00    +0.210 HD
ENDBRANCH   5   6
BRANCH   5   8
ATOM      8  C   UNL     1       9.934   0.365  23.108  0.00  0.00    +0.145 C 
BRANCH   8   9
ATOM      9  O   UNL     1      10.959   0.829  24.005  0.00  0.00    -0.389 OA
ATOM     10  H   UNL     1      10.745   1.760  24.200  0.00  0.00    +0.210 HD
ENDBRANCH   8   9
BRANCH   8  11
ATOM     11  C   UNL     1       9.803   1.446  22.033  0.00  0.00    +0.037 C 
BRANCH  11  12
ATOM     12  C   UNL     1       8.438   2.139  21.932  0.00  0.00    -0.015 C 
ATOM     13  C   UNL     1       8.438   3.378  22.835  0.00  0.00    +0.007 C 
ATOM     14  C   UNL     1       7.292   1.201  22.321  0.00  0.00    +0.007 C 
ENDBRANCH  11  12
ENDBRANCH   8  11
ENDBRANCH   5   8
ENDBRANCH   1   5
BRANCH   1  15
ATOM     15  C   UNL     1       8.306  -2.801  22.856  0.00  0.00    +0.024 C 
BRANCH  15  16
ATOM     16  C   UNL     1       7.504  -3.732  23.797  0.00  0.00    -0.009 C 
ATOM     17  C   UNL     1       7.805  -5.214  23.494  0.00  0.00    +0.003 C 
ATOM     18  C   UNL     1       7.191  -5.694  22.174  0.00  0.00    +0.000 C 
ATOM     19  C   UNL     1       5.696  -5.417  22.117  0.00  0.00    +0.000 C 
ATOM     20  C   UNL     1       5.362  -3.959  22.424  0.00  0.00    +0.000 C 
ATOM     21  C   UNL     1       5.983  -3.505  23.743  0.00  0.00    +0.003 C 
ENDBRANCH  15  16
ENDBRANCH   1  15
TORSDOF 9
ENDMDL
MODEL 6
REMARK VINA RESULT:      -5.2      2.288      2.779
REMARK  Name = 
REMARK  11 active torsions:
REMARK  status: ('A' for Active; 'I' for Inactive)
REMARK    1  A    between atoms: C_2  and  N_3
REMARK    2  A    between atoms: C_2  and  C_4
REMARK    3  A    between atoms: C_2  and  C_11
REMARK    4  A    between atoms: C_4  and  C_5
REMARK    5  A    between atoms: C_11  and  O_13
REMARK    6  A    between atoms: C_11  and  C_14
REMARK    7  A    between atoms: C_14  and  O_16
REMARK    8  A    between atoms: C_14  and  C_17
REMARK    9  A    between atoms: C_17  and  C_18
REMARK   10  A    between atoms: C_18  and  C_19
REMARK   11  A    between atoms: C_18  and  C_20
REMARK                            x       y       z     vdW  Elec       q    Type
REMARK                         _______ _______ _______ _____ _____    ______ ____
ROOT
ATOM      1  C   UNL     1       7.045  -0.960  23.488  0.00  0.00    +0.082 C 
ENDROOT
BRANCH   1   2
ATOM      2  N   UNL     1       6.269   0.179  22.964  0.00  0.00    -0.325 NA
ATOM      3  H   UNL     1       5.625   0.476  23.712  0.00  0.00    +0.119 HD
ATOM      4  H   UNL     1       6.902   0.981  22.906  0.00  0.00    +0.119 HD
ENDBRANCH   1   2
BRANCH   1   5
ATOM      5  C   UNL     1       6.137  -1.941  24.295  0.00  0.00    +0.160 C 
BRANCH   5   6
ATOM      6  O   UNL     1       5.139  -1.208  25.034  0.00  0.00    -0.388 OA
ATOM      7  H   UNL     1       4.756  -1.817  25.691  0.00  0.00    +0.210 HD
ENDBRANCH   5   6
BRANCH   5   8
ATOM      8  C   UNL     1       5.391  -3.007  23.442  0.00  0.00    +0.145 C 
BRANCH   8   9
ATOM      9  O   UNL     1       5.472  -2.704  22.038  0.00  0.00    -0.389 OA
ATOM     10  H   UNL     1       6.373  -2.952  21.760  0.00  0.00    +0.210 HD
ENDBRANCH   8   9
BRANCH   8  11
ATOM     11  C   UNL     1       5.901  -4.443  23.587  0.00  0.00    +0.037 C 
BRANCH  11  12
ATOM     12  C   UNL     1       7.306  -4.721  23.036  0.00  0.00    -0.015 C 
ATOM     13  C   UNL     1       7.244  -5.932  22.097  0.00  0.00    +0.007 C 
ATOM     14  C   UNL     1       8.319  -4.973  24.157  0.00  0.00    +0.007 C 
ENDBRANCH  11  12
ENDBRANCH   8  11
ENDBRANCH   5   8
ENDBRANCH   1   5
BRANCH   1  15
ATOM     15  C   UNL     1       8.213  -0.352  24.303  0.00  0.00    +0.024 C 
BRANCH  15  16
ATOM     16  C   UNL     1       9.631  -0.553  23.716  0.00  0.00    -0.009 C 
ATOM     17  C   UNL     1      10.631   0.442  24.339  0.00  0.00    +0.003 C 
ATOM     18  C   UNL     1      10.424   1.882  23.860  0.00  0.00    +0.000 C 
ATOM     19  C   UNL     1      10.435   1.976  22.341  0.00  0.00    +0.000 C 
ATOM     20  C   UNL     1       9.462   0.995  21.691  0.00  0.00    +0.000 C 
ATOM     21  C   UNL     1       9.690  -0.433  22.184  0.00  0.00    +0.003 C 
ENDBRANCH  15  16
ENDBRANCH   1  15
TORSDOF 9
ENDMDL
MODEL 7
REMARK VINA RESULT:      -5.1      4.411      6.412
REMARK  Name = 
REMARK  11 active torsions:
REMARK  status: ('A' for Active; 'I' for Inactive)
REMARK    1  A    between atoms: C_2  and  N_3
REMARK    2  A    between atoms: C_2  and  C_4
REMARK    3  A    between atoms: C_2  and  C_11
REMARK    4  A    between atoms: C_4  and  C_5
REMARK    5  A    between atoms: C_11  and  O_13
REMARK    6  A    between atoms: C_11  and  C_14
REMARK    7  A    between atoms: C_14  and  O_16
REMARK    8  A    between atoms: C_14  and  C_17
REMARK    9  A    between atoms: C_17  and  C_18
REMARK   10  A    between atoms: C_18  and  C_19
REMARK   11  A    between atoms: C_18  and  C_20
REMARK                            x       y       z     vdW  Elec       q    Type
REMARK                         _______ _______ _______ _____ _____    ______ ____
ROOT
ATOM      1  C   UNL     1       7.316   3.464  22.109  0.00  0.00    +0.082 C 
ENDROOT
BRANCH   1   2
ATOM      2  N   UNL     1       5.882   3.702  21.864  0.00  0.00    -0.325 NA
ATOM      3  H   UNL     1       5.411   2.786  21.907  0.00  0.00    +0.119 HD
ATOM      4  H   UNL     1       5.502   4.168  22.692  0.00  0.00    +0.119 HD
ENDBRANCH   1   2
BRANCH   1   5
ATOM      5  C   UNL     1       7.568   2.014  22.631  0.00  0.00    +0.160 C 
BRANCH   5   6
ATOM      6  O   UNL     1       6.348   1.247  22.590  0.00  0.00    -0.388 OA
ATOM      7  H   UNL     1       6.284   0.847  21.703  0.00  0.00    +0.210 HD
ENDBRANCH   5   6
BRANCH   5   8
ATOM      8  C   UNL     1       8.648   1.209  21.854  0.00  0.00    +0.145 C 
BRANCH   8   9
ATOM      9  O   UNL     1       9.676   2.073  21.338  0.00  0.00    -0.389 OA
ATOM     10  H   UNL     1      10.524   1.659  21.581  0.00  0.00    +0.210 HD
ENDBRANCH   8   9
BRANCH   8  11
ATOM     11  C   UNL     1       9.378   0.133  22.662  0.00  0.00    +0.037 C 
BRANCH  11  12
ATOM     12  C   UNL     1       9.515   0.394  24.168  0.00  0.00    -0.015 C 
ATOM     13  C   UNL     1      10.934   0.897  24.461  0.00  0.00    +0.007 C 
ATOM     14  C   UNL     1       9.217  -0.860  24.994  0.00  0.00    +0.007 C 
ENDBRANCH  11  12
ENDBRANCH   8  11
ENDBRANCH   5   8
ENDBRANCH   1   5
BRANCH   1  15
ATOM     15  C   UNL     1       7.783   4.581  23.074  0.00  0.00    +0.024 C 
BRANCH  15  16
ATOM     16  C   UNL     1       8.818   4.166  24.148  0.00  0.00    -0.009 C 
ATOM     17  C   UNL     1       8.495   4.821  25.506  0.00  0.00    +0.003 C 
ATOM     18  C   UNL     1       8.781   6.326  25.531  0.00  0.00    +0.000 C 
ATOM     19  C   UNL     1      10.209   6.633  25.102  0.00  0.00    +0.000 C 
ATOM     20  C   UNL     1      10.566   5.989  23.764  0.00  0.00    +0.000 C 
ATOM     21  C   UNL     1      10.272   4.490  23.765  0.00  0.00    +0.003 C 
ENDBRANCH  15  16
ENDBRANCH   1  15
TORSDOF 9
ENDMDL
MODEL 8
REMARK VINA RESULT:      -5.1      2.667      5.694
REMARK  Name = 
REMARK  11 active torsions:
REMARK  status: ('A' for Active; 'I' for Inactive)
REMARK    1  A    between atoms: C_2  and  N_3
REMARK    2  A    between atoms: C_2  and  C_4
REMARK    3  A    between atoms: C_2  and  C_11
REMARK    4  A    between atoms: C_4  and  C_5
REMARK    5  A    between atoms: C_11  and  O_13
REMARK    6  A    between atoms: C_11  and  C_14
REMARK    7  A    between atoms: C_14  and  O_16
REMARK    8  A    between atoms: C_14  and  C_17
REMARK    9  A    between atoms: C_17  and  C_18
REMARK   10  A    between atoms: C_18  and  C_19
REMARK   11  A    between atoms: C_18  and  C_20
REMARK                            x       y       z     vdW  Elec       q    Type
REMARK                         _______ _______ _______ _____ _____    ______ ____
ROOT
ATOM      1  C   UNL     1      10.257  -0.802  23.408  0.00  0.00    +0.082 C 
ENDROOT
BRANCH   1   2
ATOM      2  N   UNL     1       9.643  -0.041  24.512  0.00  0.00    -0.325 NA
ATOM      3  H   UNL     1       9.334   0.862  24.122  0.00  0.00    +0.119 HD
ATOM      4  H   UNL     1       8.749  -0.487  24.733  0.00  0.00    +0.119 HD
ENDBRANCH   1   2
BRANCH   1   5
ATOM      5  C   UNL     1      10.181  -0.010  22.064  0.00  0.00    +0.160 C 
BRANCH   5   6
ATOM      6  O   UNL     1       9.486  -0.783  21.065  0.00  0.00    -0.388 OA
ATOM      7  H   UNL     1       9.580  -0.313  20.215  0.00  0.00    +0.210 HD
ENDBRANCH   5   6
BRANCH   5   8
ATOM      8  C   UNL     1       9.478   1.375  22.151  0.00  0.00    +0.145 C 
BRANCH   8   9
ATOM      9  O   UNL     1      10.342   2.431  21.696  0.00  0.00    -0.389 OA
ATOM     10  H   UNL     1      11.211   2.019  21.537  0.00  0.00    +0.210 HD
ENDBRANCH   8   9
BRANCH   8  11
ATOM     11  C   UNL     1       8.190   1.513  21.335  0.00  0.00    +0.037 C 
BRANCH  11  12
ATOM     12  C   UNL     1       6.973   2.077  22.081  0.00  0.00    -0.015 C 
ATOM     13  C   UNL     1       7.198   3.571  22.347  0.00  0.00    +0.007 C 
ATOM     14  C   UNL     1       6.718   1.338  23.398  0.00  0.00    +0.007 C 
ENDBRANCH  11  12
ENDBRANCH   8  11
ENDBRANCH   5   8
ENDBRANCH   1   5
BRANCH   1  15
ATOM     15  C   UNL     1       9.545  -2.177  23.381  0.00  0.00    +0.024 C 
BRANCH  15  16
ATOM     16  C   UNL     1       8.114  -2.215  23.970  0.00  0.00    -0.009 C 
ATOM     17  C   UNL     1       7.968  -3.365  24.988  0.00  0.00    +0.003 C 
ATOM     18  C   UNL     1       7.947  -4.750  24.333  0.00  0.00    +0.000 C 
ATOM     19  C   UNL     1       6.882  -4.842  23.250  0.00  0.00    +0.000 C 
ATOM     20  C   UNL     1       6.992  -3.711  22.229  0.00  0.00    +0.000 C 
ATOM     21  C   UNL     1       7.010  -2.342  22.907  0.00  0.00    +0.003 C 
ENDBRANCH  15  16
ENDBRANCH   1  15
TORSDOF 9
ENDMDL
MODEL 9
REMARK VINA RESULT:      -5.1      1.385      2.171
REMARK  Name = 
REMARK  11 active torsions:
REMARK  status: ('A' for Active; 'I' for Inactive)
REMARK    1  A    between atoms: C_2  and  N_3
REMARK    2  A    between atoms: C_2  and  C_4
REMARK    3  A    between atoms: C_2  and  C_11
REMARK    4  A    between atoms: C_4  and  C_5
REMARK    5  A    between atoms: C_11  and  O_13
REMARK    6  A    between atoms: C_11  and  C_14
REMARK    7  A    between atoms: C_14  and  O_16
REMARK    8  A    between atoms: C_14  and  C_17
REMARK    9  A    between atoms: C_17  and  C_18
REMARK   10  A    between atoms: C_18  and  C_19
REMARK   11  A    between atoms: C_18  and  C_20
REMARK                            x       y       z     vdW  Elec       q    Type
REMARK                         _______ _______ _______ _____ _____    ______ ____
ROOT
ATOM      1  C   UNL     1       8.998  -2.160  24.334  0.00  0.00    +0.082 C 
ENDROOT
BRANCH   1   2
ATOM      2  N   UNL     1      10.225  -2.639  23.672  0.00  0.00    -0.325 NA
ATOM      3  H   UNL     1      10.113  -2.463  22.662  0.00  0.00    +0.119 HD
ATOM      4  H   UNL     1      10.978  -1.988  23.912  0.00  0.00    +0.119 HD
ENDBRANCH   1   2
BRANCH   1   5
ATOM      5  C   UNL     1       8.137  -3.352  24.862  0.00  0.00    +0.160 C 
BRANCH   5   6
ATOM      6  O   UNL     1       6.831  -2.890  25.260  0.00  0.00    -0.388 OA
ATOM      7  H   UNL     1       6.949  -2.314  26.038  0.00  0.00    +0.210 HD
ENDBRANCH   5   6
BRANCH   5   8
ATOM      8  C   UNL     1       7.928  -4.516  23.850  0.00  0.00    +0.145 C 
BRANCH   8   9
ATOM      9  O   UNL     1       8.861  -5.586  24.082  0.00  0.00    -0.389 OA
ATOM     10  H   UNL     1       8.703  -5.888  24.995  0.00  0.00    +0.210 HD
ENDBRANCH   8   9
BRANCH   8  11
ATOM     11  C   UNL     1       6.541  -5.163  23.868  0.00  0.00    +0.037 C 
BRANCH  11  12
ATOM     12  C   UNL     1       5.722  -5.043  22.575  0.00  0.00    -0.015 C 
ATOM     13  C   UNL     1       6.345  -5.944  21.503  0.00  0.00    +0.007 C 
ATOM     14  C   UNL     1       5.651  -3.597  22.077  0.00  0.00    +0.007 C 
ENDBRANCH  11  12
ENDBRANCH   8  11
ENDBRANCH   5   8
ENDBRANCH   1   5
BRANCH   1  15
ATOM     15  C   UNL     1       8.275  -1.255  23.307  0.00  0.00    +0.024 C 
BRANCH  15  16
ATOM     16  C   UNL     1       8.071   0.222  23.725  0.00  0.00    -0.009 C 
ATOM     17  C   UNL     1       7.651   1.083  22.516  0.00  0.00    +0.003 C 
ATOM     18  C   UNL     1       8.791   1.318  21.520  0.00  0.00    +0.000 C 
ATOM     19  C   UNL     1      10.023   1.897  22.201  0.00  0.00    +0.000 C 
ATOM     20  C   UNL     1      10.459   1.072  23.411  0.00  0.00    +0.000 C 
ATOM     21  C   UNL     1       9.307   0.854  24.388  0.00  0.00    +0.003 C 
ENDBRANCH  15  16
ENDBRANCH   1  15
TORSDOF 9
ENDMDL
