MODEL 1
REMARK VINA RESULT:      -6.1      0.000      0.000
REMARK  Name = 
REMARK  9 active torsions:
REMARK  status: ('A' for Active; 'I' for Inactive)
REMARK    1  A    between atoms: C_1  and  C_2
REMARK    2  A    between atoms: C_2  and  C_3
REMARK    3  A    between atoms: C_2  and  N_4
REMARK    4  A    between atoms: N_4  and  C_5
REMARK    5  A    between atoms: C_5  and  C_6
REMARK    6  A    between atoms: C_6  and  O_8
REMARK    7  A    between atoms: C_6  and  C_9
REMARK    8  A    between atoms: C_9  and  O_10
REMARK    9  A    between atoms: O_10  and  C_11
REMARK                            x       y       z     vdW  Elec       q    Type
REMARK                         _______ _______ _______ _____ _____    ______ ____
ROOT
ATOM      1  O   UNL     1       9.568  -3.755  24.087  0.00  0.00    -0.489 OA
ENDROOT
BRANCH   1   2
ATOM      2  C   UNL     1       8.545  -4.245  24.863  0.00  0.00    +0.128 A 
ATOM      3  C   UNL     1       7.458  -4.837  24.168  0.00  0.00    +0.024 A 
ATOM      4  C   UNL     1       7.398  -4.925  22.758  0.00  0.00    +0.012 A 
ATOM      5  C   UNL     1       6.307  -5.507  22.107  0.00  0.00    +0.001 A 
ATOM      6  C   UNL     1       5.249  -6.016  22.849  0.00  0.00    +0.001 A 
ATOM      7  C   UNL     1       5.284  -5.948  24.241  0.00  0.00    +0.008 A 
ATOM      8  C   UNL     1       6.373  -5.364  24.910  0.00  0.00    -0.014 A 
ATOM      9  C   UNL     1       6.394  -5.299  26.310  0.00  0.00    +0.009 A 
ATOM     10  C   UNL     1       7.465  -4.715  26.980  0.00  0.00    +0.004 A 
ATOM     11  C   UNL     1       8.537  -4.188  26.261  0.00  0.00    +0.046 A 
ENDBRANCH   1   2
BRANCH   1  12
ATOM     12  C   UNL     1       9.711  -2.339  23.981  0.00  0.00    +0.261 C 
BRANCH  12  13
ATOM     13  C   UNL     1       9.365  -1.903  22.551  0.00  0.00    +0.166 C 
BRANCH  13  14
ATOM     14  O   UNL     1      10.575  -1.708  21.810  0.00  0.00    -0.387 OA
ATOM     15  H   UNL     1      10.639  -0.749  21.661  0.00  0.00    +0.210 HD
ENDBRANCH  13  14
BRANCH  13  16
ATOM     16  C   UNL     1       8.535  -0.602  22.564  0.00  0.00    +0.115 C 
BRANCH  16  17
ATOM     17  N   UNL     1       8.751   0.166  23.804  0.00  0.00    -0.311 NA
ATOM     18  H   UNL     1       7.838   0.467  24.150  0.00  0.00    +0.122 HD
BRANCH  17  20
ATOM     19  C   UNL     1      10.914   1.166  24.275  0.00  0.00    +0.023 C 
ATOM     20  C   UNL     1       9.564   1.376  23.585  0.00  0.00    +0.048 C 
ATOM     21  C   UNL     1       9.797   1.699  22.106  0.00  0.00    +0.023 C 
ENDBRANCH  17  20
ENDBRANCH  16  17
ENDBRANCH  13  16
ENDBRANCH  12  13
ENDBRANCH   1  12
TORSDOF 7
ENDMDL
MODEL 2
REMARK VINA RESULT:      -5.9      0.776      1.150
REMARK  Name = 
REMARK  9 active torsions:
REMARK  status: ('A' for Active; 'I' for Inactive)
REMARK    1  A    between atoms: C_1  and  C_2
REMARK    2  A    between atoms: C_2  and  C_3
REMARK    3  A    between atoms: C_2  and  N_4
REMARK    4  A    between atoms: N_4  and  C_5
REMARK    5  A    between atoms: C_5  and  C_6
REMARK    6  A    between atoms: C_6  and  O_8
REMARK    7  A    between atoms: C_6  and  C_9
REMARK    8  A    between atoms: C_9  and  O_10
REMARK    9  A    between atoms: O_10  and  C_11
REMARK                            x       y       z     vdW  Elec       q    Type
REMARK                         _______ _______ _______ _____ _____    ______ ____
ROOT
ATOM      1  O   UNL     1       9.578  -3.487  23.889  0.00  0.00    -0.489 OA
ENDROOT
BRANCH   1   2
ATOM      2  C   UNL     1       8.596  -4.011  24.695  0.00  0.00    +0.128 A 
ATOM      3  C   UNL     1       7.522  -4.665  24.033  0.00  0.00    +0.024 A 
ATOM      4  C   UNL     1       7.436  -4.778  22.627  0.00  0.00    +0.012 A 
ATOM      5  C   UNL     1       6.360  -5.420  22.009  0.00  0.00    +0.001 A 
ATOM      6  C   UNL     1       5.343  -5.966  22.782  0.00  0.00    +0.001 A 
ATOM      7  C   UNL     1       5.405  -5.875  24.172  0.00  0.00    +0.008 A 
ATOM      8  C   UNL     1       6.480  -5.230  24.808  0.00  0.00    -0.014 A 
ATOM      9  C   UNL     1       6.528  -5.142  26.206  0.00  0.00    +0.009 A 
ATOM     10  C   UNL     1       7.586  -4.497  26.842  0.00  0.00    +0.004 A 
ATOM     11  C   UNL     1       8.615  -3.933  26.092  0.00  0.00    +0.046 A 
ENDBRANCH   1   2
BRANCH   1  12
ATOM     12  C   UNL     1       9.665  -2.066  23.776  0.00  0.00    +0.261 C 
BRANCH  12  13
ATOM     13  C   UNL     1       9.329  -1.653  22.337  0.00  0.00    +0.166 C 
BRANCH  13  14
ATOM     14  O   UNL     1      10.531  -1.631  21.558  0.00  0.00    -0.387 OA
ATOM     15  H   UNL     1      10.346  -1.038  20.809  0.00  0.00    +0.210 HD
ENDBRANCH  13  14
BRANCH  13  16
ATOM     16  C   UNL     1       8.654  -0.267  22.312  0.00  0.00    +0.115 C 
BRANCH  16  17
ATOM     17  N   UNL     1       9.377   0.673  21.436  0.00  0.00    -0.311 NA
ATOM     18  H   UNL     1      10.273   0.249  21.192  0.00  0.00    +0.122 HD
BRANCH  17  20
ATOM     19  C   UNL     1       8.329   2.701  22.270  0.00  0.00    +0.023 C 
ATOM     20  C   UNL     1       9.658   1.960  22.098  0.00  0.00    +0.048 C 
ATOM     21  C   UNL     1      10.335   1.812  23.463  0.00  0.00    +0.023 C 
ENDBRANCH  17  20
ENDBRANCH  16  17
ENDBRANCH  13  16
ENDBRANCH  12  13
ENDBRANCH   1  12
TORSDOF 7
ENDMDL
MODEL 3
REMARK VINA RESULT:      -5.9      1.641      3.037
REMARK  Name = 
REMARK  9 active torsions:
REMARK  status: ('A' for Active; 'I' for Inactive)
REMARK    1  A    between atoms: C_1  and  C_2
REMARK    2  A    between atoms: C_2  and  C_3
REMARK    3  A    between atoms: C_2  and  N_4
REMARK    4  A    between atoms: N_4  and  C_5
REMARK    5  A    between atoms: C_5  and  C_6
REMARK    6  A    between atoms: C_6  and  O_8
REMARK    7  A    between atoms: C_6  and  C_9
REMARK    8  A    between atoms: C_9  and  O_10
REMARK    9  A    between atoms: O_10  and  C_11
REMARK                            x       y       z     vdW  Elec       q    Type
REMARK                         _______ _______ _______ _____ _____    ______ ____
ROOT
ATOM      1  O   UNL     1       8.179  -2.480  22.193  0.00  0.00    -0.489 OA
ENDROOT
BRANCH   1   2
ATOM      2  C   UNL     1       7.166  -3.159  22.826  0.00  0.00    +0.128 A 
ATOM      3  C   UNL     1       7.527  -3.878  23.997  0.00  0.00    +0.024 A 
ATOM      4  C   UNL     1       8.847  -3.920  24.501  0.00  0.00    +0.012 A 
ATOM      5  C   UNL     1       9.169  -4.647  25.651  0.00  0.00    +0.001 A 
ATOM      6  C   UNL     1       8.177  -5.348  26.325  0.00  0.00    +0.001 A 
ATOM      7  C   UNL     1       6.866  -5.320  25.854  0.00  0.00    +0.008 A 
ATOM      8  C   UNL     1       6.527  -4.596  24.698  0.00  0.00    -0.014 A 
ATOM      9  C   UNL     1       5.206  -4.578  24.233  0.00  0.00    +0.009 A 
ATOM     10  C   UNL     1       4.865  -3.870  23.083  0.00  0.00    +0.004 A 
ATOM     11  C   UNL     1       5.840  -3.164  22.381  0.00  0.00    +0.046 A 
ENDBRANCH   1   2
BRANCH   1  12
ATOM     12  C   UNL     1       8.264  -1.068  22.385  0.00  0.00    +0.261 C 
BRANCH  12  13
ATOM     13  C   UNL     1       9.440  -0.517  21.569  0.00  0.00    +0.166 C 
BRANCH  13  14
ATOM     14  O   UNL     1      10.469  -1.511  21.493  0.00  0.00    -0.387 OA
ATOM     15  H   UNL     1      10.763  -1.653  22.410  0.00  0.00    +0.210 HD
ENDBRANCH  13  14
BRANCH  13  16
ATOM     16  C   UNL     1       9.992   0.772  22.212  0.00  0.00    +0.115 C 
BRANCH  16  17
ATOM     17  N   UNL     1       9.463   1.978  21.550  0.00  0.00    -0.311 NA
ATOM     18  H   UNL     1      10.255   2.570  21.297  0.00  0.00    +0.122 HD
BRANCH  17  20
ATOM     19  C   UNL     1       7.135   2.506  22.002  0.00  0.00    +0.023 C 
ATOM     20  C   UNL     1       8.581   2.766  22.430  0.00  0.00    +0.048 C 
ATOM     21  C   UNL     1       8.738   2.428  23.916  0.00  0.00    +0.023 C 
ENDBRANCH  17  20
ENDBRANCH  16  17
ENDBRANCH  13  16
ENDBRANCH  12  13
ENDBRANCH   1  12
TORSDOF 7
ENDMDL
MODEL 4
REMARK VINA RESULT:      -5.9      1.396      2.017
REMARK  Name = 
REMARK  9 active torsions:
REMARK  status: ('A' for Active; 'I' for Inactive)
REMARK    1  A    between atoms: C_1  and  C_2
REMARK    2  A    between atoms: C_2  and  C_3
REMARK    3  A    between atoms: C_2  and  N_4
REMARK    4  A    between atoms: N_4  and  C_5
REMARK    5  A    between atoms: C_5  and  C_6
REMARK    6  A    between atoms: C_6  and  O_8
REMARK    7  A    between atoms: C_6  and  C_9
REMARK    8  A    between atoms: C_9  and  O_10
REMARK    9  A    between atoms: O_10  and  C_11
REMARK                            x       y       z     vdW  Elec       q    Type
REMARK                         _______ _______ _______ _____ _____    ______ ____
ROOT
ATOM      1  O   UNL     1       9.573  -3.751  23.868  0.00  0.00    -0.489 OA
ENDROOT
BRANCH   1   2
ATOM      2  C   UNL     1       8.578  -4.181  24.712  0.00  0.00    +0.128 A 
ATOM      3  C   UNL     1       7.473  -4.831  24.101  0.00  0.00    +0.024 A 
ATOM      4  C   UNL     1       7.369  -5.031  22.706  0.00  0.00    +0.012 A 
ATOM      5  C   UNL     1       6.261  -5.666  22.138  0.00  0.00    +0.001 A 
ATOM      6  C   UNL     1       5.231  -6.119  22.952  0.00  0.00    +0.001 A 
ATOM      7  C   UNL     1       5.309  -5.941  24.333  0.00  0.00    +0.008 A 
ATOM      8  C   UNL     1       6.416  -5.302  24.918  0.00  0.00    -0.014 A 
ATOM      9  C   UNL     1       6.481  -5.126  26.307  0.00  0.00    +0.009 A 
ATOM     10  C   UNL     1       7.570  -4.486  26.893  0.00  0.00    +0.004 A 
ATOM     11  C   UNL     1       8.614  -4.014  26.101  0.00  0.00    +0.046 A 
ENDBRANCH   1   2
BRANCH   1  12
ATOM     12  C   UNL     1       9.791  -2.344  23.749  0.00  0.00    +0.261 C 
BRANCH  12  13
ATOM     13  C   UNL     1       9.108  -1.834  22.473  0.00  0.00    +0.166 C 
BRANCH  13  14
ATOM     14  O   UNL     1      10.107  -1.530  21.492  0.00  0.00    -0.387 OA
ATOM     15  H   UNL     1      10.716  -2.289  21.496  0.00  0.00    +0.210 HD
ENDBRANCH  13  14
BRANCH  13  16
ATOM     16  C   UNL     1       8.260  -0.581  22.773  0.00  0.00    +0.115 C 
BRANCH  16  17
ATOM     17  N   UNL     1       6.830  -0.914  22.909  0.00  0.00    -0.311 NA
ATOM     18  H   UNL     1       6.320  -0.408  22.183  0.00  0.00    +0.122 HD
BRANCH  17  20
ATOM     19  C   UNL     1       5.546  -1.709  24.812  0.00  0.00    +0.023 C 
ATOM     20  C   UNL     1       6.275  -0.504  24.212  0.00  0.00    +0.048 C 
ATOM     21  C   UNL     1       7.334  -0.009  25.200  0.00  0.00    +0.023 C 
ENDBRANCH  17  20
ENDBRANCH  16  17
ENDBRANCH  13  16
ENDBRANCH  12  13
ENDBRANCH   1  12
TORSDOF 7
ENDMDL
MODEL 5
REMARK VINA RESULT:      -5.9      2.118      5.483
REMARK  Name = 
REMARK  9 active torsions:
REMARK  status: ('A' for Active; 'I' for Inactive)
REMARK    1  A    between atoms: C_1  and  C_2
REMARK    2  A    between atoms: C_2  and  C_3
REMARK    3  A    between atoms: C_2  and  N_4
REMARK    4  A    between atoms: N_4  and  C_5
REMARK    5  A    between atoms: C_5  and  C_6
REMARK    6  A    between atoms: C_6  and  O_8
REMARK    7  A    between atoms: C_6  and  C_9
REMARK    8  A    between atoms: C_9  and  O_10
REMARK    9  A    between atoms: O_10  and  C_11
REMARK                            x       y       z     vdW  Elec       q    Type
REMARK                         _______ _______ _______ _____ _____    ______ ____
ROOT
ATOM      1  O   UNL     1       9.289  -2.910  25.001  0.00  0.00    -0.489 OA
ENDROOT
BRANCH   1   2
ATOM      2  C   UNL     1       8.863  -1.605  25.066  0.00  0.00    +0.128 A 
ATOM      3  C   UNL     1       9.003  -0.838  23.879  0.00  0.00    +0.024 A 
ATOM      4  C   UNL     1       9.553  -1.357  22.684  0.00  0.00    +0.012 A 
ATOM      5  C   UNL     1       9.684  -0.570  21.537  0.00  0.00    +0.001 A 
ATOM      6  C   UNL     1       9.267   0.755  21.555  0.00  0.00    +0.001 A 
ATOM      7  C   UNL     1       8.716   1.292  22.718  0.00  0.00    +0.008 A 
ATOM      8  C   UNL     1       8.579   0.514  23.880  0.00  0.00    -0.014 A 
ATOM      9  C   UNL     1       8.026   1.066  25.043  0.00  0.00    +0.009 A 
ATOM     10  C   UNL     1       7.896   0.304  26.201  0.00  0.00    +0.004 A 
ATOM     11  C   UNL     1       8.313  -1.025  26.215  0.00  0.00    +0.046 A 
ENDBRANCH   1   2
BRANCH   1  12
ATOM     12  C   UNL     1       8.758  -3.837  25.948  0.00  0.00    +0.261 C 
BRANCH  12  13
ATOM     13  C   UNL     1       8.868  -5.257  25.381  0.00  0.00    +0.166 C 
BRANCH  13  14
ATOM     14  O   UNL     1      10.246  -5.647  25.345  0.00  0.00    -0.387 OA
ATOM     15  H   UNL     1      10.588  -5.321  24.494  0.00  0.00    +0.210 HD
ENDBRANCH  13  14
BRANCH  13  16
ATOM     16  C   UNL     1       8.259  -5.327  23.965  0.00  0.00    +0.115 C 
BRANCH  16  17
ATOM     17  N   UNL     1       7.053  -4.487  23.851  0.00  0.00    -0.311 NA
ATOM     18  H   UNL     1       6.240  -5.080  24.018  0.00  0.00    +0.122 HD
BRANCH  17  20
ATOM     19  C   UNL     1       6.316  -4.962  21.585  0.00  0.00    +0.023 C 
ATOM     20  C   UNL     1       6.903  -3.893  22.510  0.00  0.00    +0.048 C 
ATOM     21  C   UNL     1       6.003  -2.654  22.485  0.00  0.00    +0.023 C 
ENDBRANCH  17  20
ENDBRANCH  16  17
ENDBRANCH  13  16
ENDBRANCH  12  13
ENDBRANCH   1  12
TORSDOF 7
ENDMDL
MODEL 6
REMARK VINA RESULT:      -5.9      2.145      5.948
REMARK  Name = 
REMARK  9 active torsions:
REMARK  status: ('A' for Active; 'I' for Inactive)
REMARK    1  A    between atoms: C_1  and  C_2
REMARK    2  A    between atoms: C_2  and  C_3
REMARK    3  A    between atoms: C_2  and  N_4
REMARK    4  A    between atoms: N_4  and  C_5
REMARK    5  A    between atoms: C_5  and  C_6
REMARK    6  A    between atoms: C_6  and  O_8
REMARK    7  A    between atoms: C_6  and  C_9
REMARK    8  A    between atoms: C_9  and  O_10
REMARK    9  A    between atoms: O_10  and  C_11
REMARK                            x       y       z     vdW  Elec       q    Type
REMARK                         _______ _______ _______ _____ _____    ______ ____
ROOT
ATOM      1  O   UNL     1       8.078  -2.419  25.126  0.00  0.00    -0.489 OA
ENDROOT
BRANCH   1   2
ATOM      2  C   UNL     1       8.681  -1.766  24.078  0.00  0.00    +0.128 A 
ATOM      3  C   UNL     1       8.048  -0.576  23.631  0.00  0.00    +0.024 A 
ATOM      4  C   UNL     1       6.859  -0.072  24.205  0.00  0.00    +0.012 A 
ATOM      5  C   UNL     1       6.257   1.098  23.733  0.00  0.00    +0.001 A 
ATOM      6  C   UNL     1       6.831   1.793  22.675  0.00  0.00    +0.001 A 
ATOM      7  C   UNL     1       8.007   1.321  22.094  0.00  0.00    +0.008 A 
ATOM      8  C   UNL     1       8.623   0.146  22.556  0.00  0.00    -0.014 A 
ATOM      9  C   UNL     1       9.803  -0.319  21.960  0.00  0.00    +0.009 A 
ATOM     10  C   UNL     1      10.413  -1.488  22.407  0.00  0.00    +0.004 A 
ATOM     11  C   UNL     1       9.856  -2.210  23.461  0.00  0.00    +0.046 A 
ENDBRANCH   1   2
BRANCH   1  12
ATOM     12  C   UNL     1       8.715  -3.588  25.644  0.00  0.00    +0.261 C 
BRANCH  12  13
ATOM     13  C   UNL     1       7.648  -4.642  25.968  0.00  0.00    +0.166 C 
BRANCH  13  14
ATOM     14  O   UNL     1       8.284  -5.806  26.511  0.00  0.00    -0.387 OA
ATOM     15  H   UNL     1       7.561  -6.375  26.826  0.00  0.00    +0.210 HD
ENDBRANCH  13  14
BRANCH  13  16
ATOM     16  C   UNL     1       6.848  -5.014  24.704  0.00  0.00    +0.115 C 
BRANCH  16  17
ATOM     17  N   UNL     1       7.729  -5.186  23.534  0.00  0.00    -0.311 NA
ATOM     18  H   UNL     1       8.591  -4.669  23.712  0.00  0.00    +0.122 HD
BRANCH  17  20
ATOM     19  C   UNL     1       6.656  -5.836  21.454  0.00  0.00    +0.023 C 
ATOM     20  C   UNL     1       7.136  -4.651  22.296  0.00  0.00    +0.048 C 
ATOM     21  C   UNL     1       5.964  -3.696  22.540  0.00  0.00    +0.023 C 
ENDBRANCH  17  20
ENDBRANCH  16  17
ENDBRANCH  13  16
ENDBRANCH  12  13
ENDBRANCH   1  12
TORSDOF 7
ENDMDL
MODEL 7
REMARK VINA RESULT:      -5.5      2.517      6.521
REMARK  Name = 
REMARK  9 active torsions:
REMARK  status: ('A' for Active; 'I' for Inactive)
REMARK    1  A    between atoms: C_1  and  C_2
REMARK    2  A    between atoms: C_2  and  C_3
REMARK    3  A    between atoms: C_2  and  N_4
REMARK    4  A    between atoms: N_4  and  C_5
REMARK    5  A    between atoms: C_5  and  C_6
REMARK    6  A    between atoms: C_6  and  O_8
REMARK    7  A    between atoms: C_6  and  C_9
REMARK    8  A    between atoms: C_9  and  O_10
REMARK    9  A    between atoms: O_10  and  C_11
REMARK                            x       y       z     vdW  Elec       q    Type
REMARK                         _______ _______ _______ _____ _____    ______ ____
ROOT
ATOM      1  O   UNL     1       7.662  -2.393  22.369  0.00  0.00    -0.489 OA
ENDROOT
BRANCH   1   2
ATOM      2  C   UNL     1       8.176  -1.785  23.489  0.00  0.00    +0.128 A 
ATOM      3  C   UNL     1       8.862  -0.559  23.279  0.00  0.00    +0.024 A 
ATOM      4  C   UNL     1       9.031   0.023  22.002  0.00  0.00    +0.012 A 
ATOM      5  C   UNL     1       9.721   1.226  21.831  0.00  0.00    +0.001 A 
ATOM      6  C   UNL     1      10.258   1.878  22.935  0.00  0.00    +0.001 A 
ATOM      7  C   UNL     1      10.101   1.330  24.207  0.00  0.00    +0.008 A 
ATOM      8  C   UNL     1       9.412   0.120  24.394  0.00  0.00    -0.014 A 
ATOM      9  C   UNL     1       9.265  -0.422  25.678  0.00  0.00    +0.009 A 
ATOM     10  C   UNL     1       8.591  -1.625  25.870  0.00  0.00    +0.004 A 
ATOM     11  C   UNL     1       8.049  -2.306  24.781  0.00  0.00    +0.046 A 
ENDBRANCH   1   2
BRANCH   1  12
ATOM     12  C   UNL     1       7.512  -3.813  22.385  0.00  0.00    +0.261 C 
BRANCH  12  13
ATOM     13  C   UNL     1       6.246  -4.196  21.610  0.00  0.00    +0.166 C 
BRANCH  13  14
ATOM     14  O   UNL     1       5.157  -3.374  22.046  0.00  0.00    -0.387 OA
ATOM     15  H   UNL     1       5.451  -2.973  22.883  0.00  0.00    +0.210 HD
ENDBRANCH  13  14
BRANCH  13  16
ATOM     16  C   UNL     1       5.906  -5.685  21.824  0.00  0.00    +0.115 C 
BRANCH  16  17
ATOM     17  N   UNL     1       4.626  -5.853  22.536  0.00  0.00    -0.311 NA
ATOM     18  H   UNL     1       4.249  -4.924  22.728  0.00  0.00    +0.122 HD
BRANCH  17  20
ATOM     19  C   UNL     1       5.286  -5.525  24.851  0.00  0.00    +0.023 C 
ATOM     20  C   UNL     1       4.783  -6.546  23.827  0.00  0.00    +0.048 C 
ATOM     21  C   UNL     1       3.490  -7.184  24.342  0.00  0.00    +0.023 C 
ENDBRANCH  17  20
ENDBRANCH  16  17
ENDBRANCH  13  16
ENDBRANCH  12  13
ENDBRANCH   1  12
TORSDOF 7
ENDMDL
MODEL 8
REMARK VINA RESULT:      -5.5      1.320      2.892
REMARK  Name = 
REMARK  9 active torsions:
REMARK  status: ('A' for Active; 'I' for Inactive)
REMARK    1  A    between atoms: C_1  and  C_2
REMARK    2  A    between atoms: C_2  and  C_3
REMARK    3  A    between atoms: C_2  and  N_4
REMARK    4  A    between atoms: N_4  and  C_5
REMARK    5  A    between atoms: C_5  and  C_6
REMARK    6  A    between atoms: C_6  and  O_8
REMARK    7  A    between atoms: C_6  and  C_9
REMARK    8  A    between atoms: C_9  and  O_10
REMARK    9  A    between atoms: O_10  and  C_11
REMARK                            x       y       z     vdW  Elec       q    Type
REMARK                         _______ _______ _______ _____ _____    ______ ____
ROOT
ATOM      1  O   UNL     1       8.861  -3.934  23.744  0.00  0.00    -0.489 OA
ENDROOT
BRANCH   1   2
ATOM      2  C   UNL     1       7.697  -4.606  23.456  0.00  0.00    +0.128 A 
ATOM      3  C   UNL     1       6.962  -5.095  24.569  0.00  0.00    +0.024 A 
ATOM      4  C   UNL     1       7.383  -4.925  25.908  0.00  0.00    +0.012 A 
ATOM      5  C   UNL     1       6.640  -5.428  26.978  0.00  0.00    +0.001 A 
ATOM      6  C   UNL     1       5.456  -6.114  26.736  0.00  0.00    +0.001 A 
ATOM      7  C   UNL     1       5.014  -6.292  25.426  0.00  0.00    +0.008 A 
ATOM      8  C   UNL     1       5.751  -5.793  24.339  0.00  0.00    -0.014 A 
ATOM      9  C   UNL     1       5.297  -5.982  23.027  0.00  0.00    +0.009 A 
ATOM     10  C   UNL     1       6.028  -5.498  21.945  0.00  0.00    +0.004 A 
ATOM     11  C   UNL     1       7.223  -4.813  22.156  0.00  0.00    +0.046 A 
ENDBRANCH   1   2
BRANCH   1  12
ATOM     12  C   UNL     1       8.971  -2.573  23.326  0.00  0.00    +0.261 C 
BRANCH  12  13
ATOM     13  C   UNL     1       8.509  -1.656  24.465  0.00  0.00    +0.166 C 
BRANCH  13  14
ATOM     14  O   UNL     1       7.332  -0.949  24.055  0.00  0.00    -0.387 OA
ATOM     15  H   UNL     1       6.685  -1.084  24.769  0.00  0.00    +0.210 HD
ENDBRANCH  13  14
BRANCH  13  16
ATOM     16  C   UNL     1       9.622  -0.658  24.847  0.00  0.00    +0.115 C 
BRANCH  16  17
ATOM     17  N   UNL     1      10.478  -0.332  23.691  0.00  0.00    -0.311 NA
ATOM     18  H   UNL     1      11.450  -0.456  23.976  0.00  0.00    +0.122 HD
BRANCH  17  20
ATOM     19  C   UNL     1       9.622   1.045  21.882  0.00  0.00    +0.023 C 
ATOM     20  C   UNL     1      10.318   1.064  23.245  0.00  0.00    +0.048 C 
ATOM     21  C   UNL     1       9.509   1.928  24.216  0.00  0.00    +0.023 C 
ENDBRANCH  17  20
ENDBRANCH  16  17
ENDBRANCH  13  16
ENDBRANCH  12  13
ENDBRANCH   1  12
TORSDOF 7
ENDMDL
MODEL 9
REMARK VINA RESULT:      -5.5      1.200      1.608
REMARK  Name = 
REMARK  9 active torsions:
REMARK  status: ('A' for Active; 'I' for Inactive)
REMARK    1  A    between atoms: C_1  and  C_2
REMARK    2  A    between atoms: C_2  and  C_3
REMARK    3  A    between atoms: C_2  and  N_4
REMARK    4  A    between atoms: N_4  and  C_5
REMARK    5  A    between atoms: C_5  and  C_6
REMARK    6  A    between atoms: C_6  and  O_8
REMARK    7  A    between atoms: C_6  and  C_9
REMARK    8  A    between atoms: C_9  and  O_10
REMARK    9  A    between atoms: O_10  and  C_11
REMARK                            x       y       z     vdW  Elec       q    Type
REMARK                         _______ _______ _______ _____ _____    ______ ____
ROOT
ATOM      1  O   UNL     1       8.780  -3.522  25.398  0.00  0.00    -0.489 OA
ENDROOT
BRANCH   1   2
ATOM      2  C   UNL     1       7.677  -4.325  25.558  0.00  0.00    +0.128 A 
ATOM      3  C   UNL     1       7.083  -4.823  24.367  0.00  0.00    +0.024 A 
ATOM      4  C   UNL     1       7.572  -4.520  23.076  0.00  0.00    +0.012 A 
ATOM      5  C   UNL     1       6.957  -5.019  21.925  0.00  0.00    +0.001 A 
ATOM      6  C   UNL     1       5.839  -5.836  22.037  0.00  0.00    +0.001 A 
ATOM      7  C   UNL     1       5.339  -6.157  23.298  0.00  0.00    +0.008 A 
ATOM      8  C   UNL     1       5.945  -5.660  24.465  0.00  0.00    -0.014 A 
ATOM      9  C   UNL     1       5.431  -5.988  25.726  0.00  0.00    +0.009 A 
ATOM     10  C   UNL     1       6.021  -5.492  26.886  0.00  0.00    +0.004 A 
ATOM     11  C   UNL     1       7.139  -4.664  26.804  0.00  0.00    +0.046 A 
ENDBRANCH   1   2
BRANCH   1  12
ATOM     12  C   UNL     1       8.648  -2.133  25.699  0.00  0.00    +0.261 C 
BRANCH  12  13
ATOM     13  C   UNL     1       9.201  -1.307  24.530  0.00  0.00    +0.166 C 
BRANCH  13  14
ATOM     14  O   UNL     1      10.098  -2.118  23.762  0.00  0.00    -0.387 OA
ATOM     15  H   UNL     1      10.342  -1.578  22.990  0.00  0.00    +0.210 HD
ENDBRANCH  13  14
BRANCH  13  16
ATOM     16  C   UNL     1       9.930  -0.051  25.048  0.00  0.00    +0.115 C 
BRANCH  16  17
ATOM     17  N   UNL     1       9.464   1.168  24.362  0.00  0.00    -0.311 NA
ATOM     18  H   UNL     1       8.581   0.950  23.900  0.00  0.00    +0.122 HD
BRANCH  17  20
ATOM     19  C   UNL     1       9.792   1.324  21.960  0.00  0.00    +0.023 C 
ATOM     20  C   UNL     1      10.407   1.631  23.328  0.00  0.00    +0.048 C 
ATOM     21  C   UNL     1      10.727   3.126  23.415  0.00  0.00    +0.023 C 
ENDBRANCH  17  20
ENDBRANCH  16  17
ENDBRANCH  13  16
ENDBRANCH  12  13
ENDBRANCH   1  12
TORSDOF 7
ENDMDL
