MODEL 1
REMARK VINA RESULT:      -6.8      0.000      0.000
REMARK  Name = 
REMARK  6 active torsions:
REMARK  status: ('A' for Active; 'I' for Inactive)
REMARK    1  A    between atoms: C_2  and  C_3
REMARK    2  A    between atoms: C_2  and  C_4
REMARK    3  A    between atoms: C_2  and  C_7
REMARK    4  A    between atoms: C_4  and  O_5
REMARK    5  A    between atoms: C_9  and  C_13
REMARK    6  A    between atoms: C_13  and  C_15
REMARK                            x       y       z     vdW  Elec       q    Type
REMARK                         _______ _______ _______ _____ _____    ______ ____
ROOT
ATOM      1  C   UNL     1       7.057  -4.893  23.497  0.00  0.00    -0.033 A 
ATOM      2  C   UNL     1       7.165  -5.020  24.889  0.00  0.00    +0.004 A 
ATOM      3  C   UNL     1       7.950  -4.130  25.627  0.00  0.00    +0.001 A 
ATOM      4  C   UNL     1       8.671  -3.127  24.979  0.00  0.00    +0.012 A 
ATOM      5  C   UNL     1       8.598  -2.997  23.590  0.00  0.00    +0.023 A 
ATOM      6  C   UNL     1       7.751  -3.843  22.864  0.00  0.00    +0.016 A 
ENDROOT
BRANCH   1   7
ATOM      7  C   UNL     1       6.333  -5.912  22.622  0.00  0.00    +0.124 C 
ATOM      8  C   UNL     1       6.411  -5.641  21.120  0.00  0.00    +0.024 C 
BRANCH   7   9
ATOM      9  C   UNL     1       4.871  -6.140  23.011  0.00  0.00    +0.312 C 
ATOM     10  O   UNL     1       3.982  -5.348  22.719  0.00  0.00    -0.250 OA
BRANCH   9  11
ATOM     11  O   UNL     1       4.594  -7.259  23.715  0.00  0.00    -0.480 OA
ATOM     12  H   UNL     1       3.895  -7.171  24.390  0.00  0.00    +0.295 HD
ENDBRANCH   9  11
ENDBRANCH   7   9
ENDBRANCH   1   7
BRANCH   5  13
ATOM     13  C   UNL     1       9.445  -1.967  22.928  0.00  0.00    +0.193 C 
ATOM     14  O   UNL     1      10.612  -2.240  22.666  0.00  0.00    -0.287 OA
BRANCH  13  15
ATOM     15  C   UNL     1       8.908  -0.621  22.561  0.00  0.00    +0.022 A 
ATOM     16  C   UNL     1       9.746   0.255  21.863  0.00  0.00    +0.012 A 
ATOM     17  C   UNL     1       9.305   1.537  21.534  0.00  0.00    +0.001 A 
ATOM     18  C   UNL     1       8.023   1.950  21.895  0.00  0.00    +0.000 A 
ATOM     19  C   UNL     1       7.169   1.069  22.554  0.00  0.00    +0.001 A 
ATOM     20  C   UNL     1       7.601  -0.221  22.870  0.00  0.00    +0.012 A 
ENDBRANCH  13  15
ENDBRANCH   5  13
TORSDOF 5
ENDMDL
MODEL 2
REMARK VINA RESULT:      -6.6      2.288      6.106
REMARK  Name = 
REMARK  6 active torsions:
REMARK  status: ('A' for Active; 'I' for Inactive)
REMARK    1  A    between atoms: C_2  and  C_3
REMARK    2  A    between atoms: C_2  and  C_4
REMARK    3  A    between atoms: C_2  and  C_7
REMARK    4  A    between atoms: C_4  and  O_5
REMARK    5  A    between atoms: C_9  and  C_13
REMARK    6  A    between atoms: C_13  and  C_15
REMARK                            x       y       z     vdW  Elec       q    Type
REMARK                         _______ _______ _______ _____ _____    ______ ____
ROOT
ATOM      1  C   UNL     1       9.750  -0.981  24.401  0.00  0.00    -0.033 A 
ATOM      2  C   UNL     1       9.205  -0.552  25.620  0.00  0.00    +0.004 A 
ATOM      3  C   UNL     1       8.559  -1.455  26.469  0.00  0.00    +0.001 A 
ATOM      4  C   UNL     1       8.412  -2.790  26.093  0.00  0.00    +0.012 A 
ATOM      5  C   UNL     1       8.925  -3.235  24.872  0.00  0.00    +0.023 A 
ATOM      6  C   UNL     1       9.638  -2.343  24.060  0.00  0.00    +0.016 A 
ENDROOT
BRANCH   1   7
ATOM      7  C   UNL     1      10.340  -0.024  23.371  0.00  0.00    +0.124 C 
ATOM      8  C   UNL     1      10.649   1.378  23.898  0.00  0.00    +0.024 C 
BRANCH   7   9
ATOM      9  C   UNL     1       9.514   0.099  22.089  0.00  0.00    +0.312 C 
ATOM     10  O   UNL     1       8.619   0.926  21.959  0.00  0.00    -0.250 OA
BRANCH   9  11
ATOM     11  O   UNL     1       9.803  -0.766  21.092  0.00  0.00    -0.480 OA
ATOM     12  H   UNL     1      10.439  -0.446  20.425  0.00  0.00    +0.295 HD
ENDBRANCH   9  11
ENDBRANCH   7   9
ENDBRANCH   1   7
BRANCH   5  13
ATOM     13  C   UNL     1       8.677  -4.646  24.469  0.00  0.00    +0.193 C 
ATOM     14  O   UNL     1       9.513  -5.498  24.753  0.00  0.00    -0.287 OA
BRANCH  13  15
ATOM     15  C   UNL     1       7.435  -5.053  23.745  0.00  0.00    +0.022 A 
ATOM     16  C   UNL     1       6.262  -5.223  24.491  0.00  0.00    +0.012 A 
ATOM     17  C   UNL     1       5.087  -5.642  23.867  0.00  0.00    +0.001 A 
ATOM     18  C   UNL     1       5.074  -5.888  22.494  0.00  0.00    +0.000 A 
ATOM     19  C   UNL     1       6.225  -5.682  21.739  0.00  0.00    +0.001 A 
ATOM     20  C   UNL     1       7.399  -5.246  22.357  0.00  0.00    +0.012 A 
ENDBRANCH  13  15
ENDBRANCH   5  13
TORSDOF 5
ENDMDL
MODEL 3
REMARK VINA RESULT:      -6.6      2.449      3.072
REMARK  Name = 
REMARK  6 active torsions:
REMARK  status: ('A' for Active; 'I' for Inactive)
REMARK    1  A    between atoms: C_2  and  C_3
REMARK    2  A    between atoms: C_2  and  C_4
REMARK    3  A    between atoms: C_2  and  C_7
REMARK    4  A    between atoms: C_4  and  O_5
REMARK    5  A    between atoms: C_9  and  C_13
REMARK    6  A    between atoms: C_13  and  C_15
REMARK                            x       y       z     vdW  Elec       q    Type
REMARK                         _______ _______ _______ _____ _____    ______ ____
ROOT
ATOM      1  C   UNL     1       6.748  -4.285  24.611  0.00  0.00    -0.033 A 
ATOM      2  C   UNL     1       5.653  -3.576  24.096  0.00  0.00    +0.004 A 
ATOM      3  C   UNL     1       5.847  -2.429  23.322  0.00  0.00    +0.001 A 
ATOM      4  C   UNL     1       7.136  -1.951  23.086  0.00  0.00    +0.012 A 
ATOM      5  C   UNL     1       8.241  -2.627  23.610  0.00  0.00    +0.023 A 
ATOM      6  C   UNL     1       8.044  -3.818  24.320  0.00  0.00    +0.016 A 
ENDROOT
BRANCH   1   7
ATOM      7  C   UNL     1       6.600  -5.457  25.576  0.00  0.00    +0.124 C 
ATOM      8  C   UNL     1       5.205  -6.080  25.622  0.00  0.00    +0.024 C 
BRANCH   7   9
ATOM      9  C   UNL     1       7.055  -5.150  27.004  0.00  0.00    +0.312 C 
ATOM     10  O   UNL     1       6.695  -4.146  27.607  0.00  0.00    -0.250 OA
BRANCH   9  11
ATOM     11  O   UNL     1       7.898  -6.035  27.580  0.00  0.00    -0.480 OA
ATOM     12  H   UNL     1       8.398  -6.604  26.966  0.00  0.00    +0.295 HD
ENDBRANCH   9  11
ENDBRANCH   7   9
ENDBRANCH   1   7
BRANCH   5  13
ATOM     13  C   UNL     1       9.594  -2.042  23.405  0.00  0.00    +0.193 C 
ATOM     14  O   UNL     1      10.561  -2.795  23.342  0.00  0.00    -0.287 OA
BRANCH  13  15
ATOM     15  C   UNL     1       9.803  -0.570  23.259  0.00  0.00    +0.022 A 
ATOM     16  C   UNL     1      10.027   0.182  24.418  0.00  0.00    +0.012 A 
ATOM     17  C   UNL     1      10.187   1.566  24.338  0.00  0.00    +0.001 A 
ATOM     18  C   UNL     1      10.129   2.206  23.101  0.00  0.00    +0.000 A 
ATOM     19  C   UNL     1       9.947   1.460  21.940  0.00  0.00    +0.001 A 
ATOM     20  C   UNL     1       9.804   0.073  22.014  0.00  0.00    +0.012 A 
ENDBRANCH  13  15
ENDBRANCH   5  13
TORSDOF 5
ENDMDL
MODEL 4
REMARK VINA RESULT:      -6.5      1.509      1.824
REMARK  Name = 
REMARK  6 active torsions:
REMARK  status: ('A' for Active; 'I' for Inactive)
REMARK    1  A    between atoms: C_2  and  C_3
REMARK    2  A    between atoms: C_2  and  C_4
REMARK    3  A    between atoms: C_2  and  C_7
REMARK    4  A    between atoms: C_4  and  O_5
REMARK    5  A    between atoms: C_9  and  C_13
REMARK    6  A    between atoms: C_13  and  C_15
REMARK                            x       y       z     vdW  Elec       q    Type
REMARK                         _______ _______ _______ _____ _____    ______ ____
ROOT
ATOM      1  C   UNL     1       6.960  -3.973  23.171  0.00  0.00    -0.033 A 
ATOM      2  C   UNL     1       7.415  -4.692  24.286  0.00  0.00    +0.004 A 
ATOM      3  C   UNL     1       8.607  -4.338  24.924  0.00  0.00    +0.001 A 
ATOM      4  C   UNL     1       9.381  -3.287  24.432  0.00  0.00    +0.012 A 
ATOM      5  C   UNL     1       8.960  -2.572  23.308  0.00  0.00    +0.023 A 
ATOM      6  C   UNL     1       7.727  -2.883  22.719  0.00  0.00    +0.016 A 
ENDROOT
BRANCH   1   7
ATOM      7  C   UNL     1       5.746  -4.395  22.349  0.00  0.00    +0.124 C 
ATOM      8  C   UNL     1       4.486  -4.686  23.164  0.00  0.00    +0.024 C 
BRANCH   7   9
ATOM      9  C   UNL     1       6.011  -5.571  21.406  0.00  0.00    +0.312 C 
ATOM     10  O   UNL     1       6.015  -5.447  20.186  0.00  0.00    -0.250 OA
BRANCH   9  11
ATOM     11  O   UNL     1       6.225  -6.776  21.977  0.00  0.00    -0.480 OA
ATOM     12  H   UNL     1       6.667  -7.438  21.413  0.00  0.00    +0.295 HD
ENDBRANCH   9  11
ENDBRANCH   7   9
ENDBRANCH   1   7
BRANCH   5  13
ATOM     13  C   UNL     1       9.852  -1.512  22.764  0.00  0.00    +0.193 C 
ATOM     14  O   UNL     1      10.887  -1.844  22.197  0.00  0.00    -0.287 OA
BRANCH  13  15
ATOM     15  C   UNL     1       9.513  -0.061  22.879  0.00  0.00    +0.022 A 
ATOM     16  C   UNL     1       9.549   0.527  24.148  0.00  0.00    +0.012 A 
ATOM     17  C   UNL     1       9.201   1.868  24.312  0.00  0.00    +0.001 A 
ATOM     18  C   UNL     1       8.821   2.631  23.209  0.00  0.00    +0.000 A 
ATOM     19  C   UNL     1       8.822   2.064  21.937  0.00  0.00    +0.001 A 
ATOM     20  C   UNL     1       9.186   0.727  21.766  0.00  0.00    +0.012 A 
ENDBRANCH  13  15
ENDBRANCH   5  13
TORSDOF 5
ENDMDL
MODEL 5
REMARK VINA RESULT:      -6.3      1.510      1.799
REMARK  Name = 
REMARK  6 active torsions:
REMARK  status: ('A' for Active; 'I' for Inactive)
REMARK    1  A    between atoms: C_2  and  C_3
REMARK    2  A    between atoms: C_2  and  C_4
REMARK    3  A    between atoms: C_2  and  C_7
REMARK    4  A    between atoms: C_4  and  O_5
REMARK    5  A    between atoms: C_9  and  C_13
REMARK    6  A    between atoms: C_13  and  C_15
REMARK                            x       y       z     vdW  Elec       q    Type
REMARK                         _______ _______ _______ _____ _____    ______ ____
ROOT
ATOM      1  C   UNL     1       6.313  -4.160  23.179  0.00  0.00    -0.033 A 
ATOM      2  C   UNL     1       5.386  -3.364  23.867  0.00  0.00    +0.004 A 
ATOM      3  C   UNL     1       5.759  -2.120  24.383  0.00  0.00    +0.001 A 
ATOM      4  C   UNL     1       7.075  -1.673  24.256  0.00  0.00    +0.012 A 
ATOM      5  C   UNL     1       8.022  -2.461  23.597  0.00  0.00    +0.023 A 
ATOM      6  C   UNL     1       7.624  -3.672  23.015  0.00  0.00    +0.016 A 
ENDROOT
BRANCH   1   7
ATOM      7  C   UNL     1       6.008  -5.581  22.717  0.00  0.00    +0.124 C 
ATOM      8  C   UNL     1       6.100  -5.800  21.207  0.00  0.00    +0.024 C 
BRANCH   7   9
ATOM      9  C   UNL     1       4.667  -6.125  23.217  0.00  0.00    +0.312 C 
ATOM     10  O   UNL     1       3.611  -5.908  22.634  0.00  0.00    -0.250 OA
BRANCH   9  11
ATOM     11  O   UNL     1       4.689  -6.852  24.355  0.00  0.00    -0.480 OA
ATOM     12  H   UNL     1       4.199  -6.472  25.109  0.00  0.00    +0.295 HD
ENDBRANCH   9  11
ENDBRANCH   7   9
ENDBRANCH   1   7
BRANCH   5  13
ATOM     13  C   UNL     1       9.432  -1.988  23.552  0.00  0.00    +0.193 C 
ATOM     14  O   UNL     1      10.336  -2.810  23.661  0.00  0.00    -0.287 OA
BRANCH  13  15
ATOM     15  C   UNL     1       9.775  -0.546  23.364  0.00  0.00    +0.022 A 
ATOM     16  C   UNL     1       9.516   0.036  22.117  0.00  0.00    +0.012 A 
ATOM     17  C   UNL     1       9.855   1.368  21.879  0.00  0.00    +0.001 A 
ATOM     18  C   UNL     1      10.450   2.129  22.886  0.00  0.00    +0.000 A 
ATOM     19  C   UNL     1      10.673   1.569  24.141  0.00  0.00    +0.001 A 
ATOM     20  C   UNL     1      10.319   0.241  24.389  0.00  0.00    +0.012 A 
ENDBRANCH  13  15
ENDBRANCH   5  13
TORSDOF 5
ENDMDL
MODEL 6
REMARK VINA RESULT:      -6.2      2.505      6.351
REMARK  Name = 
REMARK  6 active torsions:
REMARK  status: ('A' for Active; 'I' for Inactive)
REMARK    1  A    between atoms: C_2  and  C_3
REMARK    2  A    between atoms: C_2  and  C_4
REMARK    3  A    between atoms: C_2  and  C_7
REMARK    4  A    between atoms: C_4  and  O_5
REMARK    5  A    between atoms: C_9  and  C_13
REMARK    6  A    between atoms: C_13  and  C_15
REMARK                            x       y       z     vdW  Elec       q    Type
REMARK                         _______ _______ _______ _____ _____    ______ ____
ROOT
ATOM      1  C   UNL     1       8.609   0.656  24.294  0.00  0.00    -0.033 A 
ATOM      2  C   UNL     1       8.167   0.761  25.620  0.00  0.00    +0.004 A 
ATOM      3  C   UNL     1       8.044  -0.377  26.422  0.00  0.00    +0.001 A 
ATOM      4  C   UNL     1       8.319  -1.640  25.896  0.00  0.00    +0.012 A 
ATOM      5  C   UNL     1       8.737  -1.770  24.569  0.00  0.00    +0.023 A 
ATOM      6  C   UNL     1       8.932  -0.620  23.794  0.00  0.00    +0.016 A 
ENDROOT
BRANCH   1   7
ATOM      7  C   UNL     1       8.631   1.837  23.329  0.00  0.00    +0.124 C 
ATOM      8  C   UNL     1       7.712   1.694  22.115  0.00  0.00    +0.024 C 
BRANCH   7   9
ATOM      9  C   UNL     1      10.031   2.225  22.849  0.00  0.00    +0.312 C 
ATOM     10  O   UNL     1      10.925   2.547  23.623  0.00  0.00    -0.250 OA
BRANCH   9  11
ATOM     11  O   UNL     1      10.243   2.216  21.515  0.00  0.00    -0.480 OA
ATOM     12  H   UNL     1       9.940   1.418  21.044  0.00  0.00    +0.295 HD
ENDBRANCH   9  11
ENDBRANCH   7   9
ENDBRANCH   1   7
BRANCH   5  13
ATOM     13  C   UNL     1       8.943  -3.138  24.021  0.00  0.00    +0.193 C 
ATOM     14  O   UNL     1       9.997  -3.719  24.260  0.00  0.00    -0.287 OA
BRANCH  13  15
ATOM     15  C   UNL     1       7.898  -3.826  23.204  0.00  0.00    +0.022 A 
ATOM     16  C   UNL     1       7.844  -5.224  23.243  0.00  0.00    +0.012 A 
ATOM     17  C   UNL     1       6.913  -5.914  22.467  0.00  0.00    +0.001 A 
ATOM     18  C   UNL     1       6.026  -5.212  21.650  0.00  0.00    +0.000 A 
ATOM     19  C   UNL     1       6.046  -3.820  21.637  0.00  0.00    +0.001 A 
ATOM     20  C   UNL     1       6.965  -3.125  22.427  0.00  0.00    +0.012 A 
ENDBRANCH  13  15
ENDBRANCH   5  13
TORSDOF 5
ENDMDL
MODEL 7
REMARK VINA RESULT:      -6.0      2.668      6.780
REMARK  Name = 
REMARK  6 active torsions:
REMARK  status: ('A' for Active; 'I' for Inactive)
REMARK    1  A    between atoms: C_2  and  C_3
REMARK    2  A    between atoms: C_2  and  C_4
REMARK    3  A    between atoms: C_2  and  C_7
REMARK    4  A    between atoms: C_4  and  O_5
REMARK    5  A    between atoms: C_9  and  C_13
REMARK    6  A    between atoms: C_13  and  C_15
REMARK                            x       y       z     vdW  Elec       q    Type
REMARK                         _______ _______ _______ _____ _____    ______ ____
ROOT
ATOM      1  C   UNL     1       9.284  -0.198  24.159  0.00  0.00    -0.033 A 
ATOM      2  C   UNL     1       8.126   0.396  24.682  0.00  0.00    +0.004 A 
ATOM      3  C   UNL     1       7.175  -0.372  25.360  0.00  0.00    +0.001 A 
ATOM      4  C   UNL     1       7.348  -1.750  25.488  0.00  0.00    +0.012 A 
ATOM      5  C   UNL     1       8.481  -2.368  24.953  0.00  0.00    +0.023 A 
ATOM      6  C   UNL     1       9.467  -1.583  24.341  0.00  0.00    +0.016 A 
ENDROOT
BRANCH   1   7
ATOM      7  C   UNL     1      10.286   0.556  23.291  0.00  0.00    +0.124 C 
ATOM      8  C   UNL     1      10.826   1.847  23.906  0.00  0.00    +0.024 C 
BRANCH   7   9
ATOM      9  C   UNL     1       9.787   0.850  21.875  0.00  0.00    +0.312 C 
ATOM     10  O   UNL     1       9.324  -0.020  21.146  0.00  0.00    -0.250 OA
BRANCH   9  11
ATOM     11  O   UNL     1       9.894   2.125  21.442  0.00  0.00    -0.480 OA
ATOM     12  H   UNL     1      10.636   2.637  21.815  0.00  0.00    +0.295 HD
ENDBRANCH   9  11
ENDBRANCH   7   9
ENDBRANCH   1   7
BRANCH   5  13
ATOM     13  C   UNL     1       8.589  -3.850  25.038  0.00  0.00    +0.193 C 
ATOM     14  O   UNL     1       9.636  -4.387  24.692  0.00  0.00    -0.287 OA
BRANCH  13  15
ATOM     15  C   UNL     1       7.466  -4.695  25.546  0.00  0.00    +0.022 A 
ATOM     16  C   UNL     1       7.430  -4.990  26.914  0.00  0.00    +0.012 A 
ATOM     17  C   UNL     1       6.425  -5.808  27.430  0.00  0.00    +0.001 A 
ATOM     18  C   UNL     1       5.447  -6.332  26.585  0.00  0.00    +0.000 A 
ATOM     19  C   UNL     1       5.453  -6.009  25.230  0.00  0.00    +0.001 A 
ATOM     20  C   UNL     1       6.447  -5.176  24.713  0.00  0.00    +0.012 A 
ENDBRANCH  13  15
ENDBRANCH   5  13
TORSDOF 5
ENDMDL
MODEL 8
REMARK VINA RESULT:      -6.0      3.861      6.104
REMARK  Name = 
REMARK  6 active torsions:
REMARK  status: ('A' for Active; 'I' for Inactive)
REMARK    1  A    between atoms: C_2  and  C_3
REMARK    2  A    between atoms: C_2  and  C_4
REMARK    3  A    between atoms: C_2  and  C_7
REMARK    4  A    between atoms: C_4  and  O_5
REMARK    5  A    between atoms: C_9  and  C_13
REMARK    6  A    between atoms: C_13  and  C_15
REMARK                            x       y       z     vdW  Elec       q    Type
REMARK                         _______ _______ _______ _____ _____    ______ ____
ROOT
ATOM      1  C   UNL     1       9.807  -0.149  23.965  0.00  0.00    -0.033 A 
ATOM      2  C   UNL     1       9.411  -0.454  22.655  0.00  0.00    +0.004 A 
ATOM      3  C   UNL     1       9.505   0.504  21.641  0.00  0.00    +0.001 A 
ATOM      4  C   UNL     1       9.956   1.792  21.931  0.00  0.00    +0.012 A 
ATOM      5  C   UNL     1      10.331   2.125  23.235  0.00  0.00    +0.023 A 
ATOM      6  C   UNL     1      10.308   1.140  24.230  0.00  0.00    +0.016 A 
ENDROOT
BRANCH   1   7
ATOM      7  C   UNL     1       9.598  -1.100  25.139  0.00  0.00    +0.124 C 
ATOM      8  C   UNL     1       9.077  -2.486  24.759  0.00  0.00    +0.024 C 
BRANCH   7   9
ATOM      9  C   UNL     1       8.723  -0.529  26.256  0.00  0.00    +0.312 C 
ATOM     10  O   UNL     1       7.582  -0.127  26.057  0.00  0.00    -0.250 OA
BRANCH   9  11
ATOM     11  O   UNL     1       9.270  -0.468  27.490  0.00  0.00    -0.480 OA
ATOM     12  H   UNL     1       8.843  -1.022  28.170  0.00  0.00    +0.295 HD
ENDBRANCH   9  11
ENDBRANCH   7   9
ENDBRANCH   1   7
BRANCH   5  13
ATOM     13  C   UNL     1      10.729   3.530  23.522  0.00  0.00    +0.193 C 
ATOM     14  O   UNL     1      11.907   3.849  23.398  0.00  0.00    -0.287 OA
BRANCH  13  15
ATOM     15  C   UNL     1       9.733   4.563  23.940  0.00  0.00    +0.022 A 
ATOM     16  C   UNL     1      10.038   5.908  23.705  0.00  0.00    +0.012 A 
ATOM     17  C   UNL     1       9.159   6.911  24.114  0.00  0.00    +0.001 A 
ATOM     18  C   UNL     1       7.966   6.576  24.755  0.00  0.00    +0.000 A 
ATOM     19  C   UNL     1       7.637   5.238  24.956  0.00  0.00    +0.001 A 
ATOM     20  C   UNL     1       8.506   4.231  24.533  0.00  0.00    +0.012 A 
ENDBRANCH  13  15
ENDBRANCH   5  13
TORSDOF 5
ENDMDL
MODEL 9
REMARK VINA RESULT:      -6.0      1.933      2.269
REMARK  Name = 
REMARK  6 active torsions:
REMARK  status: ('A' for Active; 'I' for Inactive)
REMARK    1  A    between atoms: C_2  and  C_3
REMARK    2  A    between atoms: C_2  and  C_4
REMARK    3  A    between atoms: C_2  and  C_7
REMARK    4  A    between atoms: C_4  and  O_5
REMARK    5  A    between atoms: C_9  and  C_13
REMARK    6  A    between atoms: C_13  and  C_15
REMARK                            x       y       z     vdW  Elec       q    Type
REMARK                         _______ _______ _______ _____ _____    ______ ____
ROOT
ATOM      1  C   UNL     1       6.785  -4.281  24.044  0.00  0.00    -0.033 A 
ATOM      2  C   UNL     1       7.970  -4.982  24.310  0.00  0.00    +0.004 A 
ATOM      3  C   UNL     1       9.102  -4.314  24.786  0.00  0.00    +0.001 A 
ATOM      4  C   UNL     1       9.078  -2.931  24.963  0.00  0.00    +0.012 A 
ATOM      5  C   UNL     1       7.916  -2.208  24.681  0.00  0.00    +0.023 A 
ATOM      6  C   UNL     1       6.762  -2.892  24.277  0.00  0.00    +0.016 A 
ENDROOT
BRANCH   1   7
ATOM      7  C   UNL     1       5.566  -4.925  23.392  0.00  0.00    +0.124 C 
ATOM      8  C   UNL     1       5.063  -6.194  24.082  0.00  0.00    +0.024 C 
BRANCH   7   9
ATOM      9  C   UNL     1       5.733  -5.205  21.897  0.00  0.00    +0.312 C 
ATOM     10  O   UNL     1       5.778  -4.310  21.062  0.00  0.00    -0.250 OA
BRANCH   9  11
ATOM     11  O   UNL     1       5.811  -6.501  21.524  0.00  0.00    -0.480 OA
ATOM     12  H   UNL     1       4.972  -6.912  21.242  0.00  0.00    +0.295 HD
ENDBRANCH   9  11
ENDBRANCH   7   9
ENDBRANCH   1   7
BRANCH   5  13
ATOM     13  C   UNL     1       7.954  -0.725  24.805  0.00  0.00    +0.193 C 
ATOM     14  O   UNL     1       7.345  -0.193  25.727  0.00  0.00    -0.287 OA
BRANCH  13  15
ATOM     15  C   UNL     1       8.724   0.126  23.848  0.00  0.00    +0.022 A 
ATOM     16  C   UNL     1       9.514   1.157  24.372  0.00  0.00    +0.012 A 
ATOM     17  C   UNL     1      10.219   2.005  23.517  0.00  0.00    +0.001 A 
ATOM     18  C   UNL     1      10.145   1.825  22.136  0.00  0.00    +0.000 A 
ATOM     19  C   UNL     1       9.395   0.777  21.610  0.00  0.00    +0.001 A 
ATOM     20  C   UNL     1       8.701  -0.084  22.463  0.00  0.00    +0.012 A 
ENDBRANCH  13  15
ENDBRANCH   5  13
TORSDOF 5
ENDMDL
