MODEL 1
REMARK VINA RESULT:      -6.1      0.000      0.000
REMARK  Name = 
REMARK  14 active torsions:
REMARK  status: ('A' for Active; 'I' for Inactive)
REMARK    1  A    between atoms: C_1  and  C_2
REMARK    2  A    between atoms: N_4  and  C_5
REMARK    3  A    between atoms: C_7  and  O_9
REMARK    4  A    between atoms: C_11  and  C_13
REMARK    5  A    between atoms: C_13  and  O_14
REMARK    6  A    between atoms: C_15  and  O_17
REMARK    7  A    between atoms: O_17  and  C_18
REMARK    8  A    between atoms: C_21  and  C_23
REMARK    9  A    between atoms: C_23  and  O_24
REMARK   10  A    between atoms: C_25  and  O_27
REMARK   11  A    between atoms: C_28  and  O_30
REMARK   12  A    between atoms: C_31  and  N_33
REMARK   13  A    between atoms: C_34  and  C_35
REMARK   14  A    between atoms: C_37  and  O_39
REMARK                            x       y       z     vdW  Elec       q    Type
REMARK                         _______ _______ _______ _____ _____    ______ ____
ROOT
ATOM      1  O   UNL     1       7.959   2.430  23.273  0.00  0.00    -0.341 OA
ENDROOT
BRANCH   1   4
ATOM      2  C   UNL     1       9.848   5.566  24.057  0.00  0.00    +0.160 C 
ATOM      3  C   UNL     1       9.139   4.231  24.365  0.00  0.00    +0.171 C 
ATOM      4  C   UNL     1       8.418   3.755  23.094  0.00  0.00    +0.183 C 
ATOM      5  C   UNL     1       7.368   4.788  22.655  0.00  0.00    +0.178 C 
ATOM      6  O   UNL     1       7.988   6.072  22.444  0.00  0.00    -0.341 OA
ATOM      7  C   UNL     1       8.795   6.578  23.516  0.00  0.00    +0.270 C 
BRANCH   2  10
ATOM      8  C   UNL     1      13.329   5.303  22.516  0.00  0.00    +0.109 C 
ATOM      9  C   UNL     1      12.282   5.636  23.546  0.00  0.00    +0.210 C 
ATOM     10  N   UNL     1      10.986   5.394  23.140  0.00  0.00    -0.305 N 
ATOM     11  H   UNL     1      10.866   4.795  22.327  0.00  0.00    +0.149 HD
ATOM     12  O   UNL     1      12.570   6.112  24.637  0.00  0.00    -0.276 OA
ENDBRANCH   2  10
BRANCH   3  13
ATOM     13  O   UNL     1       8.230   4.421  25.465  0.00  0.00    -0.387 OA
ATOM     14  H   UNL     1       8.505   5.262  25.887  0.00  0.00    +0.210 HD
ENDBRANCH   3  13
BRANCH   7  15
ATOM     15  O   UNL     1       7.966   7.107  24.542  0.00  0.00    -0.365 OA
ATOM     16  H   UNL     1       8.205   8.052  24.636  0.00  0.00    +0.213 HD
ENDBRANCH   7  15
BRANCH   5  17
ATOM     17  C   UNL     1       6.105   4.875  23.532  0.00  0.00    +0.190 C 
BRANCH  17  18
ATOM     18  O   UNL     1       5.693   3.557  23.912  0.00  0.00    -0.392 OA
ATOM     19  H   UNL     1       5.974   2.978  23.176  0.00  0.00    +0.210 HD
ENDBRANCH  17  18
ENDBRANCH   5  17
ENDBRANCH   1   4
BRANCH   1  20
ATOM     20  C   UNL     1       8.730   1.521  24.068  0.00  0.00    +0.274 C 
ATOM     21  C   UNL     1       8.070   0.773  25.305  0.00  0.00    +0.160 C 
ATOM     22  C   UNL     1       9.046  -0.370  25.738  0.00  0.00    +0.171 C 
ATOM     23  C   UNL     1       9.470  -1.291  24.595  0.00  0.00    +0.176 C 
ATOM     24  C   UNL     1      10.102  -0.402  23.519  0.00  0.00    +0.178 C 
ATOM     25  O   UNL     1       9.154   0.569  23.070  0.00  0.00    -0.341 OA
BRANCH  21  26
ATOM     26  N   UNL     1       7.893   1.586  26.550  0.00  0.00    -0.305 N 
ATOM     27  H   UNL     1       8.486   1.262  27.308  0.00  0.00    +0.149 HD
ATOM     28  C   UNL     1       6.685   2.021  27.032  0.00  0.00    +0.210 C 
ATOM     29  O   UNL     1       5.619   1.983  26.418  0.00  0.00    -0.276 OA
ATOM     30  C   UNL     1       6.758   2.571  28.438  0.00  0.00    +0.109 C 
ENDBRANCH  21  26
BRANCH  22  31
ATOM     31  O   UNL     1       8.502  -1.089  26.858  0.00  0.00    -0.387 OA
ATOM     32  H   UNL     1       7.951  -1.816  26.513  0.00  0.00    +0.210 HD
ENDBRANCH  22  31
BRANCH  23  33
ATOM     33  O   UNL     1       8.323  -2.023  24.155  0.00  0.00    -0.387 OA
ATOM     34  H   UNL     1       8.163  -2.773  24.751  0.00  0.00    +0.210 HD
ENDBRANCH  23  33
BRANCH  24  35
ATOM     35  C   UNL     1      10.550  -1.201  22.294  0.00  0.00    +0.190 C 
BRANCH  35  36
ATOM     36  O   UNL     1       9.502  -1.217  21.329  0.00  0.00    -0.392 OA
ATOM     37  H   UNL     1       9.948  -1.264  20.459  0.00  0.00    +0.210 HD
ENDBRANCH  35  36
ENDBRANCH  24  35
ENDBRANCH   1  20
TORSDOF 12
ENDMDL
MODEL 2
REMARK VINA RESULT:      -6.1      4.570      7.916
REMARK  Name = 
REMARK  14 active torsions:
REMARK  status: ('A' for Active; 'I' for Inactive)
REMARK    1  A    between atoms: C_1  and  C_2
REMARK    2  A    between atoms: N_4  and  C_5
REMARK    3  A    between atoms: C_7  and  O_9
REMARK    4  A    between atoms: C_11  and  C_13
REMARK    5  A    between atoms: C_13  and  O_14
REMARK    6  A    between atoms: C_15  and  O_17
REMARK    7  A    between atoms: O_17  and  C_18
REMARK    8  A    between atoms: C_21  and  C_23
REMARK    9  A    between atoms: C_23  and  O_24
REMARK   10  A    between atoms: C_25  and  O_27
REMARK   11  A    between atoms: C_28  and  O_30
REMARK   12  A    between atoms: C_31  and  N_33
REMARK   13  A    between atoms: C_34  and  C_35
REMARK   14  A    between atoms: C_37  and  O_39
REMARK                            x       y       z     vdW  Elec       q    Type
REMARK                         _______ _______ _______ _____ _____    ______ ____
ROOT
ATOM      1  O   UNL     1       7.522  -3.618  25.618  0.00  0.00    -0.341 OA
ENDROOT
BRANCH   1   4
ATOM      2  C   UNL     1       6.635  -0.452  23.826  0.00  0.00    +0.160 C 
ATOM      3  C   UNL     1       6.695  -1.977  24.051  0.00  0.00    +0.171 C 
ATOM      4  C   UNL     1       7.628  -2.260  25.240  0.00  0.00    +0.183 C 
ATOM      5  C   UNL     1       9.045  -1.743  24.945  0.00  0.00    +0.178 C 
ATOM      6  O   UNL     1       9.009  -0.333  24.644  0.00  0.00    -0.341 OA
ATOM      7  C   UNL     1       8.085   0.082  23.629  0.00  0.00    +0.270 C 
BRANCH   2  10
ATOM      8  C   UNL     1       4.551   1.987  25.893  0.00  0.00    +0.109 C 
ATOM      9  C   UNL     1       5.331   1.473  24.712  0.00  0.00    +0.210 C 
ATOM     10  N   UNL     1       5.923   0.243  24.911  0.00  0.00    -0.305 N 
ATOM     11  H   UNL     1       5.582  -0.306  25.696  0.00  0.00    +0.149 HD
ATOM     12  O   UNL     1       5.448   2.120  23.678  0.00  0.00    -0.276 OA
ENDBRANCH   2  10
BRANCH   3  13
ATOM     13  O   UNL     1       7.149  -2.616  22.843  0.00  0.00    -0.387 OA
ATOM     14  H   UNL     1       7.368  -1.884  22.229  0.00  0.00    +0.210 HD
ENDBRANCH   3  13
BRANCH   7  15
ATOM     15  O   UNL     1       8.608  -0.216  22.342  0.00  0.00    -0.365 OA
ATOM     16  H   UNL     1       9.582  -0.250  22.437  0.00  0.00    +0.213 HD
ENDBRANCH   7  15
BRANCH   5  17
ATOM     17  C   UNL     1       9.853  -2.551  23.912  0.00  0.00    +0.190 C 
BRANCH  17  18
ATOM     18  O   UNL     1       9.839  -3.937  24.272  0.00  0.00    -0.392 OA
ATOM     19  H   UNL     1      10.715  -4.108  24.670  0.00  0.00    +0.210 HD
ENDBRANCH  17  18
ENDBRANCH   5  17
ENDBRANCH   1   4
BRANCH   1  20
ATOM     20  C   UNL     1       6.227  -4.229  25.687  0.00  0.00    +0.274 C 
ATOM     21  C   UNL     1       5.948  -5.610  24.953  0.00  0.00    +0.160 C 
ATOM     22  C   UNL     1       4.586  -6.160  25.491  0.00  0.00    +0.171 C 
ATOM     23  C   UNL     1       4.500  -6.225  27.014  0.00  0.00    +0.176 C 
ATOM     24  C   UNL     1       4.769  -4.810  27.536  0.00  0.00    +0.178 C 
ATOM     25  O   UNL     1       6.063  -4.373  27.113  0.00  0.00    -0.341 OA
BRANCH  21  26
ATOM     26  N   UNL     1       5.749  -5.542  23.470  0.00  0.00    -0.305 N 
ATOM     27  H   UNL     1       4.922  -6.049  23.171  0.00  0.00    +0.149 HD
ATOM     28  C   UNL     1       6.751  -5.659  22.543  0.00  0.00    +0.210 C 
ATOM     29  O   UNL     1       7.957  -5.631  22.791  0.00  0.00    -0.276 OA
ATOM     30  C   UNL     1       6.249  -5.837  21.129  0.00  0.00    +0.109 C 
ENDBRANCH  21  26
BRANCH  22  31
ATOM     31  O   UNL     1       4.276  -7.417  24.863  0.00  0.00    -0.387 OA
ATOM     32  H   UNL     1       4.662  -8.130  25.405  0.00  0.00    +0.210 HD
ENDBRANCH  22  31
BRANCH  23  33
ATOM     33  O   UNL     1       5.429  -7.209  27.479  0.00  0.00    -0.387 OA
ATOM     34  H   UNL     1       5.112  -8.097  27.243  0.00  0.00    +0.210 HD
ENDBRANCH  23  33
BRANCH  24  35
ATOM     35  C   UNL     1       4.741  -4.737  29.063  0.00  0.00    +0.190 C 
BRANCH  35  36
ATOM     36  O   UNL     1       5.921  -5.339  29.589  0.00  0.00    -0.392 OA
ATOM     37  H   UNL     1       5.633  -6.198  29.959  0.00  0.00    +0.210 HD
ENDBRANCH  35  36
ENDBRANCH  24  35
ENDBRANCH   1  20
TORSDOF 12
ENDMDL
MODEL 3
REMARK VINA RESULT:      -6.0      3.292      5.479
REMARK  Name = 
REMARK  14 active torsions:
REMARK  status: ('A' for Active; 'I' for Inactive)
REMARK    1  A    between atoms: C_1  and  C_2
REMARK    2  A    between atoms: N_4  and  C_5
REMARK    3  A    between atoms: C_7  and  O_9
REMARK    4  A    between atoms: C_11  and  C_13
REMARK    5  A    between atoms: C_13  and  O_14
REMARK    6  A    between atoms: C_15  and  O_17
REMARK    7  A    between atoms: O_17  and  C_18
REMARK    8  A    between atoms: C_21  and  C_23
REMARK    9  A    between atoms: C_23  and  O_24
REMARK   10  A    between atoms: C_25  and  O_27
REMARK   11  A    between atoms: C_28  and  O_30
REMARK   12  A    between atoms: C_31  and  N_33
REMARK   13  A    between atoms: C_34  and  C_35
REMARK   14  A    between atoms: C_37  and  O_39
REMARK                            x       y       z     vdW  Elec       q    Type
REMARK                         _______ _______ _______ _____ _____    ______ ____
ROOT
ATOM      1  O   UNL     1       7.503  -1.676  22.989  0.00  0.00    -0.341 OA
ENDROOT
BRANCH   1   4
ATOM      2  C   UNL     1       8.389   1.724  24.282  0.00  0.00    +0.160 C 
ATOM      3  C   UNL     1       7.837   0.698  23.271  0.00  0.00    +0.171 C 
ATOM      4  C   UNL     1       8.192  -0.714  23.763  0.00  0.00    +0.183 C 
ATOM      5  C   UNL     1       9.716  -0.880  23.860  0.00  0.00    +0.178 C 
ATOM      6  O   UNL     1      10.274   0.123  24.733  0.00  0.00    -0.341 OA
ATOM      7  C   UNL     1       9.918   1.484  24.453  0.00  0.00    +0.270 C 
BRANCH   2  10
ATOM      8  C   UNL     1       6.557   2.628  27.506  0.00  0.00    +0.109 C 
ATOM      9  C   UNL     1       7.401   2.838  26.276  0.00  0.00    +0.210 C 
ATOM     10  N   UNL     1       7.667   1.686  25.564  0.00  0.00    -0.305 N 
ATOM     11  H   UNL     1       7.083   0.879  25.767  0.00  0.00    +0.149 HD
ATOM     12  O   UNL     1       7.835   3.940  25.964  0.00  0.00    -0.276 OA
ENDBRANCH   2  10
BRANCH   3  13
ATOM     13  O   UNL     1       8.388   0.974  21.970  0.00  0.00    -0.387 OA
ATOM     14  H   UNL     1       8.567   1.937  21.962  0.00  0.00    +0.210 HD
ENDBRANCH   3  13
BRANCH   7  15
ATOM     15  O   UNL     1      10.676   1.969  23.354  0.00  0.00    -0.365 OA
ATOM     16  H   UNL     1      10.059   2.486  22.796  0.00  0.00    +0.213 HD
ENDBRANCH   7  15
BRANCH   5  17
ATOM     17  C   UNL     1      10.467  -0.985  22.519  0.00  0.00    +0.190 C 
BRANCH  17  18
ATOM     18  O   UNL     1       9.729  -1.821  21.621  0.00  0.00    -0.392 OA
ATOM     19  H   UNL     1      10.404  -2.321  21.122  0.00  0.00    +0.210 HD
ENDBRANCH  17  18
ENDBRANCH   5  17
ENDBRANCH   1   4
BRANCH   1  20
ATOM     20  C   UNL     1       7.016  -2.867  23.619  0.00  0.00    +0.274 C 
ATOM     21  C   UNL     1       5.645  -2.852  24.422  0.00  0.00    +0.160 C 
ATOM     22  C   UNL     1       5.239  -4.339  24.685  0.00  0.00    +0.171 C 
ATOM     23  C   UNL     1       5.228  -5.212  23.432  0.00  0.00    +0.176 C 
ATOM     24  C   UNL     1       6.628  -5.123  22.815  0.00  0.00    +0.178 C 
ATOM     25  O   UNL     1       6.931  -3.763  22.491  0.00  0.00    -0.341 OA
BRANCH  21  26
ATOM     26  N   UNL     1       5.687  -2.242  25.788  0.00  0.00    -0.305 N 
ATOM     27  H   UNL     1       5.391  -2.894  26.508  0.00  0.00    +0.149 HD
ATOM     28  C   UNL     1       5.274  -0.970  26.087  0.00  0.00    +0.210 C 
ATOM     29  O   UNL     1       5.010  -0.096  25.262  0.00  0.00    -0.276 OA
ATOM     30  C   UNL     1       5.158  -0.704  27.570  0.00  0.00    +0.109 C 
ENDBRANCH  21  26
BRANCH  22  31
ATOM     31  O   UNL     1       3.999  -4.393  25.411  0.00  0.00    -0.387 OA
ATOM     32  H   UNL     1       3.354  -3.823  24.952  0.00  0.00    +0.210 HD
ENDBRANCH  22  31
BRANCH  23  33
ATOM     33  O   UNL     1       4.177  -4.759  22.574  0.00  0.00    -0.387 OA
ATOM     34  H   UNL     1       3.877  -3.880  22.859  0.00  0.00    +0.210 HD
ENDBRANCH  23  33
BRANCH  24  35
ATOM     35  C   UNL     1       6.749  -5.936  21.526  0.00  0.00    +0.190 C 
BRANCH  35  36
ATOM     36  O   UNL     1       5.980  -5.315  20.499  0.00  0.00    -0.392 OA
ATOM     37  H   UNL     1       5.530  -6.048  20.031  0.00  0.00    +0.210 HD
ENDBRANCH  35  36
ENDBRANCH  24  35
ENDBRANCH   1  20
TORSDOF 12
ENDMDL
MODEL 4
REMARK VINA RESULT:      -5.9      1.947      6.893
REMARK  Name = 
REMARK  14 active torsions:
REMARK  status: ('A' for Active; 'I' for Inactive)
REMARK    1  A    between atoms: C_1  and  C_2
REMARK    2  A    between atoms: N_4  and  C_5
REMARK    3  A    between atoms: C_7  and  O_9
REMARK    4  A    between atoms: C_11  and  C_13
REMARK    5  A    between atoms: C_13  and  O_14
REMARK    6  A    between atoms: C_15  and  O_17
REMARK    7  A    between atoms: O_17  and  C_18
REMARK    8  A    between atoms: C_21  and  C_23
REMARK    9  A    between atoms: C_23  and  O_24
REMARK   10  A    between atoms: C_25  and  O_27
REMARK   11  A    between atoms: C_28  and  O_30
REMARK   12  A    between atoms: C_31  and  N_33
REMARK   13  A    between atoms: C_34  and  C_35
REMARK   14  A    between atoms: C_37  and  O_39
REMARK                            x       y       z     vdW  Elec       q    Type
REMARK                         _______ _______ _______ _____ _____    ______ ____
ROOT
ATOM      1  O   UNL     1       9.219   2.157  24.578  0.00  0.00    -0.341 OA
ENDROOT
BRANCH   1   4
ATOM      2  C   UNL     1       8.365  -1.488  24.549  0.00  0.00    +0.160 C 
ATOM      3  C   UNL     1       9.234  -0.245  24.826  0.00  0.00    +0.171 C 
ATOM      4  C   UNL     1       8.580   0.971  24.150  0.00  0.00    +0.183 C 
ATOM      5  C   UNL     1       8.488   0.755  22.632  0.00  0.00    +0.178 C 
ATOM      6  O   UNL     1       7.753  -0.452  22.342  0.00  0.00    -0.341 OA
ATOM      7  C   UNL     1       8.190  -1.644  23.009  0.00  0.00    +0.270 C 
BRANCH   2  10
ATOM      8  C   UNL     1       5.497  -1.978  27.020  0.00  0.00    +0.109 C 
ATOM      9  C   UNL     1       6.820  -2.241  26.349  0.00  0.00    +0.210 C 
ATOM     10  N   UNL     1       7.076  -1.436  25.258  0.00  0.00    -0.305 N 
ATOM     11  H   UNL     1       6.505  -0.600  25.163  0.00  0.00    +0.149 HD
ATOM     12  O   UNL     1       7.582  -3.121  26.732  0.00  0.00    -0.276 OA
ENDBRANCH   2  10
BRANCH   3  13
ATOM     13  O   UNL     1      10.568  -0.483  24.339  0.00  0.00    -0.387 OA
ATOM     14  H   UNL     1      10.484  -0.531  23.364  0.00  0.00    +0.210 HD
ENDBRANCH   3  13
BRANCH   7  15
ATOM     15  O   UNL     1       9.354  -2.158  22.375  0.00  0.00    -0.365 OA
ATOM     16  H   UNL     1       9.878  -1.384  22.084  0.00  0.00    +0.213 HD
ENDBRANCH   7  15
BRANCH   5  17
ATOM     17  C   UNL     1       9.818   0.840  21.860  0.00  0.00    +0.190 C 
BRANCH  17  18
ATOM     18  O   UNL     1      10.108   2.209  21.554  0.00  0.00    -0.392 OA
ATOM     19  H   UNL     1      10.954   2.399  22.004  0.00  0.00    +0.210 HD
ENDBRANCH  17  18
ENDBRANCH   5  17
ENDBRANCH   1   4
BRANCH   1  20
ATOM     20  C   UNL     1       8.501   3.396  24.539  0.00  0.00    +0.274 C 
ATOM     21  C   UNL     1       8.946   4.554  23.546  0.00  0.00    +0.160 C 
ATOM     22  C   UNL     1       7.789   5.605  23.502  0.00  0.00    +0.171 C 
ATOM     23  C   UNL     1       6.416   5.007  23.201  0.00  0.00    +0.176 C 
ATOM     24  C   UNL     1       6.153   3.939  24.268  0.00  0.00    +0.178 C 
ATOM     25  O   UNL     1       7.172   2.937  24.216  0.00  0.00    -0.341 OA
BRANCH  21  26
ATOM     26  N   UNL     1      10.144   5.353  23.957  0.00  0.00    -0.305 N 
ATOM     27  H   UNL     1      10.021   6.345  23.783  0.00  0.00    +0.149 HD
ATOM     28  C   UNL     1      11.444   4.979  23.735  0.00  0.00    +0.210 C 
ATOM     29  O   UNL     1      11.809   3.865  23.360  0.00  0.00    -0.276 OA
ATOM     30  C   UNL     1      12.443   6.083  23.991  0.00  0.00    +0.109 C 
ENDBRANCH  21  26
BRANCH  22  31
ATOM     31  O   UNL     1       8.132   6.683  22.615  0.00  0.00    -0.387 OA
ATOM     32  H   UNL     1       7.772   7.510  22.988  0.00  0.00    +0.210 HD
ENDBRANCH  22  31
BRANCH  23  33
ATOM     33  O   UNL     1       6.423   4.509  21.860  0.00  0.00    -0.387 OA
ATOM     34  H   UNL     1       5.841   3.734  21.794  0.00  0.00    +0.210 HD
ENDBRANCH  23  33
BRANCH  24  35
ATOM     35  C   UNL     1       4.811   3.234  24.067  0.00  0.00    +0.190 C 
BRANCH  35  36
ATOM     36  O   UNL     1       4.946   2.233  23.061  0.00  0.00    -0.392 OA
ATOM     37  H   UNL     1       5.207   2.712  22.249  0.00  0.00    +0.210 HD
ENDBRANCH  35  36
ENDBRANCH  24  35
ENDBRANCH   1  20
TORSDOF 12
ENDMDL
MODEL 5
REMARK VINA RESULT:      -5.9      4.142      8.359
REMARK  Name = 
REMARK  14 active torsions:
REMARK  status: ('A' for Active; 'I' for Inactive)
REMARK    1  A    between atoms: C_1  and  C_2
REMARK    2  A    between atoms: N_4  and  C_5
REMARK    3  A    between atoms: C_7  and  O_9
REMARK    4  A    between atoms: C_11  and  C_13
REMARK    5  A    between atoms: C_13  and  O_14
REMARK    6  A    between atoms: C_15  and  O_17
REMARK    7  A    between atoms: O_17  and  C_18
REMARK    8  A    between atoms: C_21  and  C_23
REMARK    9  A    between atoms: C_23  and  O_24
REMARK   10  A    between atoms: C_25  and  O_27
REMARK   11  A    between atoms: C_28  and  O_30
REMARK   12  A    between atoms: C_31  and  N_33
REMARK   13  A    between atoms: C_34  and  C_35
REMARK   14  A    between atoms: C_37  and  O_39
REMARK                            x       y       z     vdW  Elec       q    Type
REMARK                         _______ _______ _______ _____ _____    ______ ____
ROOT
ATOM      1  O   UNL     1       7.732  -2.538  23.942  0.00  0.00    -0.341 OA
ENDROOT
BRANCH   1   4
ATOM      2  C   UNL     1       5.639  -5.575  24.591  0.00  0.00    +0.160 C 
ATOM      3  C   UNL     1       6.944  -4.777  24.384  0.00  0.00    +0.171 C 
ATOM      4  C   UNL     1       6.581  -3.359  23.915  0.00  0.00    +0.183 C 
ATOM      5  C   UNL     1       5.814  -3.414  22.585  0.00  0.00    +0.178 C 
ATOM      6  O   UNL     1       4.631  -4.228  22.723  0.00  0.00    -0.341 OA
ATOM      7  C   UNL     1       4.818  -5.541  23.268  0.00  0.00    +0.270 C 
BRANCH   2  10
ATOM      8  C   UNL     1       4.192  -4.998  28.075  0.00  0.00    +0.109 C 
ATOM      9  C   UNL     1       4.964  -5.691  26.983  0.00  0.00    +0.210 C 
ATOM     10  N   UNL     1       4.867  -5.089  25.746  0.00  0.00    -0.305 N 
ATOM     11  H   UNL     1       4.521  -4.133  25.728  0.00  0.00    +0.149 HD
ATOM     12  O   UNL     1       5.596  -6.721  27.185  0.00  0.00    -0.276 OA
ENDBRANCH   2  10
BRANCH   3  13
ATOM     13  O   UNL     1       7.774  -5.468  23.432  0.00  0.00    -0.387 OA
ATOM     14  H   UNL     1       7.317  -5.370  22.570  0.00  0.00    +0.210 HD
ENDBRANCH   3  13
BRANCH   7  15
ATOM     15  O   UNL     1       5.343  -6.411  22.275  0.00  0.00    -0.365 OA
ATOM     16  H   UNL     1       4.601  -6.975  21.977  0.00  0.00    +0.213 HD
ENDBRANCH   7  15
BRANCH   5  17
ATOM     17  C   UNL     1       6.648  -3.785  21.344  0.00  0.00    +0.190 C 
BRANCH  17  18
ATOM     18  O   UNL     1       5.777  -4.220  20.294  0.00  0.00    -0.392 OA
ATOM     19  H   UNL     1       5.735  -5.192  20.380  0.00  0.00    +0.210 HD
ENDBRANCH  17  18
ENDBRANCH   5  17
ENDBRANCH   1   4
BRANCH   1  20
ATOM     20  C   UNL     1       7.579  -1.114  23.980  0.00  0.00    +0.274 C 
ATOM     21  C   UNL     1       7.570  -0.341  25.368  0.00  0.00    +0.160 C 
ATOM     22  C   UNL     1       7.727   1.184  25.056  0.00  0.00    +0.171 C 
ATOM     23  C   UNL     1       8.916   1.515  24.155  0.00  0.00    +0.176 C 
ATOM     24  C   UNL     1       8.738   0.703  22.868  0.00  0.00    +0.178 C 
ATOM     25  O   UNL     1       8.699  -0.693  23.174  0.00  0.00    -0.341 OA
BRANCH  21  26
ATOM     26  N   UNL     1       6.300  -0.418  26.158  0.00  0.00    -0.305 N 
ATOM     27  H   UNL     1       6.047   0.477  26.565  0.00  0.00    +0.149 HD
ATOM     28  C   UNL     1       5.970  -1.445  27.003  0.00  0.00    +0.210 C 
ATOM     29  O   UNL     1       6.558  -2.524  27.075  0.00  0.00    -0.276 OA
ATOM     30  C   UNL     1       4.779  -1.144  27.884  0.00  0.00    +0.109 C 
ENDBRANCH  21  26
BRANCH  22  31
ATOM     31  O   UNL     1       7.728   1.942  26.278  0.00  0.00    -0.387 OA
ATOM     32  H   UNL     1       8.153   1.401  26.970  0.00  0.00    +0.210 HD
ENDBRANCH  22  31
BRANCH  23  33
ATOM     33  O   UNL     1      10.121   1.226  24.871  0.00  0.00    -0.387 OA
ATOM     34  H   UNL     1      10.523   2.053  25.184  0.00  0.00    +0.210 HD
ENDBRANCH  23  33
BRANCH  24  35
ATOM     35  C   UNL     1       9.884   0.920  21.880  0.00  0.00    +0.190 C 
BRANCH  35  36
ATOM     36  O   UNL     1      10.205   2.308  21.821  0.00  0.00    -0.392 OA
ATOM     37  H   UNL     1      10.931   2.436  22.465  0.00  0.00    +0.210 HD
ENDBRANCH  35  36
ENDBRANCH  24  35
ENDBRANCH   1  20
TORSDOF 12
ENDMDL
MODEL 6
REMARK VINA RESULT:      -5.9      3.195      5.174
REMARK  Name = 
REMARK  14 active torsions:
REMARK  status: ('A' for Active; 'I' for Inactive)
REMARK    1  A    between atoms: C_1  and  C_2
REMARK    2  A    between atoms: N_4  and  C_5
REMARK    3  A    between atoms: C_7  and  O_9
REMARK    4  A    between atoms: C_11  and  C_13
REMARK    5  A    between atoms: C_13  and  O_14
REMARK    6  A    between atoms: C_15  and  O_17
REMARK    7  A    between atoms: O_17  and  C_18
REMARK    8  A    between atoms: C_21  and  C_23
REMARK    9  A    between atoms: C_23  and  O_24
REMARK   10  A    between atoms: C_25  and  O_27
REMARK   11  A    between atoms: C_28  and  O_30
REMARK   12  A    between atoms: C_31  and  N_33
REMARK   13  A    between atoms: C_34  and  C_35
REMARK   14  A    between atoms: C_37  and  O_39
REMARK                            x       y       z     vdW  Elec       q    Type
REMARK                         _______ _______ _______ _____ _____    ______ ____
ROOT
ATOM      1  O   UNL     1       8.161  -1.370  22.543  0.00  0.00    -0.341 OA
ENDROOT
BRANCH   1   4
ATOM      2  C   UNL     1       7.590   2.327  22.406  0.00  0.00    +0.160 C 
ATOM      3  C   UNL     1       7.975   0.937  21.858  0.00  0.00    +0.171 C 
ATOM      4  C   UNL     1       8.043  -0.050  23.034  0.00  0.00    +0.183 C 
ATOM      5  C   UNL     1       9.105   0.398  24.050  0.00  0.00    +0.178 C 
ATOM      6  O   UNL     1       8.820   1.733  24.515  0.00  0.00    -0.341 OA
ATOM      7  C   UNL     1       8.613   2.732  23.507  0.00  0.00    +0.270 C 
BRANCH   2  10
ATOM      8  C   UNL     1       4.021   3.372  23.268  0.00  0.00    +0.109 C 
ATOM      9  C   UNL     1       5.457   3.533  22.841  0.00  0.00    +0.210 C 
ATOM     10  N   UNL     1       6.199   2.371  22.886  0.00  0.00    -0.305 N 
ATOM     11  H   UNL     1       5.679   1.499  22.944  0.00  0.00    +0.149 HD
ATOM     12  O   UNL     1       5.921   4.618  22.514  0.00  0.00    -0.276 OA
ENDBRANCH   2  10
BRANCH   3  13
ATOM     13  O   UNL     1       9.230   1.036  21.159  0.00  0.00    -0.387 OA
ATOM     14  H   UNL     1       9.495   0.111  20.970  0.00  0.00    +0.210 HD
ENDBRANCH   3  13
BRANCH   7  15
ATOM     15  O   UNL     1       9.861   3.148  22.970  0.00  0.00    -0.365 OA
ATOM     16  H   UNL     1       9.744   4.074  22.676  0.00  0.00    +0.213 HD
ENDBRANCH   7  15
BRANCH   5  17
ATOM     17  C   UNL     1      10.571   0.223  23.609  0.00  0.00    +0.190 C 
BRANCH  17  18
ATOM     18  O   UNL     1      11.430   0.924  24.515  0.00  0.00    -0.392 OA
ATOM     19  H   UNL     1      11.352   1.866  24.267  0.00  0.00    +0.210 HD
ENDBRANCH  17  18
ENDBRANCH   5  17
ENDBRANCH   1   4
BRANCH   1  20
ATOM     20  C   UNL     1       7.592  -2.452  23.290  0.00  0.00    +0.274 C 
ATOM     21  C   UNL     1       6.250  -2.244  24.114  0.00  0.00    +0.160 C 
ATOM     22  C   UNL     1       5.726  -3.660  24.523  0.00  0.00    +0.171 C 
ATOM     23  C   UNL     1       5.606  -4.639  23.356  0.00  0.00    +0.176 C 
ATOM     24  C   UNL     1       6.991  -4.729  22.706  0.00  0.00    +0.178 C 
ATOM     25  O   UNL     1       7.400  -3.436  22.252  0.00  0.00    -0.341 OA
BRANCH  21  26
ATOM     26  N   UNL     1       6.382  -1.519  25.418  0.00  0.00    -0.305 N 
ATOM     27  H   UNL     1       6.369  -2.151  26.211  0.00  0.00    +0.149 HD
ATOM     28  C   UNL     1       5.744  -0.344  25.724  0.00  0.00    +0.210 C 
ATOM     29  O   UNL     1       5.150   0.373  24.919  0.00  0.00    -0.276 OA
ATOM     30  C   UNL     1       5.823   0.023  27.188  0.00  0.00    +0.109 C 
ENDBRANCH  21  26
BRANCH  22  31
ATOM     31  O   UNL     1       4.506  -3.539  25.274  0.00  0.00    -0.387 OA
ATOM     32  H   UNL     1       3.759  -3.561  24.647  0.00  0.00    +0.210 HD
ENDBRANCH  22  31
BRANCH  23  33
ATOM     33  O   UNL     1       4.574  -4.175  22.480  0.00  0.00    -0.387 OA
ATOM     34  H   UNL     1       3.705  -4.419  22.840  0.00  0.00    +0.210 HD
ENDBRANCH  23  33
BRANCH  24  35
ATOM     35  C   UNL     1       7.006  -5.662  21.496  0.00  0.00    +0.190 C 
BRANCH  35  36
ATOM     36  O   UNL     1       5.833  -6.472  21.505  0.00  0.00    -0.392 OA
ATOM     37  H   UNL     1       5.604  -6.611  20.564  0.00  0.00    +0.210 HD
ENDBRANCH  35  36
ENDBRANCH  24  35
ENDBRANCH   1  20
TORSDOF 12
ENDMDL
MODEL 7
REMARK VINA RESULT:      -5.8      3.124      8.034
REMARK  Name = 
REMARK  14 active torsions:
REMARK  status: ('A' for Active; 'I' for Inactive)
REMARK    1  A    between atoms: C_1  and  C_2
REMARK    2  A    between atoms: N_4  and  C_5
REMARK    3  A    between atoms: C_7  and  O_9
REMARK    4  A    between atoms: C_11  and  C_13
REMARK    5  A    between atoms: C_13  and  O_14
REMARK    6  A    between atoms: C_15  and  O_17
REMARK    7  A    between atoms: O_17  and  C_18
REMARK    8  A    between atoms: C_21  and  C_23
REMARK    9  A    between atoms: C_23  and  O_24
REMARK   10  A    between atoms: C_25  and  O_27
REMARK   11  A    between atoms: C_28  and  O_30
REMARK   12  A    between atoms: C_31  and  N_33
REMARK   13  A    between atoms: C_34  and  C_35
REMARK   14  A    between atoms: C_37  and  O_39
REMARK                            x       y       z     vdW  Elec       q    Type
REMARK                         _______ _______ _______ _____ _____    ______ ____
ROOT
ATOM      1  O   UNL     1       8.767  -1.142  25.000  0.00  0.00    -0.341 OA
ENDROOT
BRANCH   1   4
ATOM      2  C   UNL     1       7.664  -4.710  25.256  0.00  0.00    +0.160 C 
ATOM      3  C   UNL     1       8.663  -3.535  25.297  0.00  0.00    +0.171 C 
ATOM      4  C   UNL     1       7.961  -2.278  24.758  0.00  0.00    +0.183 C 
ATOM      5  C   UNL     1       7.507  -2.497  23.308  0.00  0.00    +0.178 C 
ATOM      6  O   UNL     1       6.639  -3.646  23.223  0.00  0.00    -0.341 OA
ATOM      7  C   UNL     1       7.129  -4.863  23.802  0.00  0.00    +0.270 C 
BRANCH   2  10
ATOM      8  C   UNL     1       5.495  -4.814  28.396  0.00  0.00    +0.109 C 
ATOM      9  C   UNL     1       6.631  -5.171  27.473  0.00  0.00    +0.210 C 
ATOM     10  N   UNL     1       6.580  -4.554  26.241  0.00  0.00    -0.305 N 
ATOM     11  H   UNL     1       5.964  -3.750  26.157  0.00  0.00    +0.149 HD
ATOM     12  O   UNL     1       7.503  -5.970  27.793  0.00  0.00    -0.276 OA
ENDBRANCH   2  10
BRANCH   3  13
ATOM     13  O   UNL     1       9.828  -3.879  24.523  0.00  0.00    -0.387 OA
ATOM     14  H   UNL     1       9.488  -4.127  23.638  0.00  0.00    +0.210 HD
ENDBRANCH   3  13
BRANCH   7  15
ATOM     15  O   UNL     1       8.075  -5.469  22.931  0.00  0.00    -0.365 OA
ATOM     16  H   UNL     1       7.743  -5.335  22.020  0.00  0.00    +0.213 HD
ENDBRANCH   7  15
BRANCH   5  17
ATOM     17  C   UNL     1       8.626  -2.520  22.250  0.00  0.00    +0.190 C 
BRANCH  17  18
ATOM     18  O   UNL     1       9.282  -1.248  22.219  0.00  0.00    -0.392 OA
ATOM     19  H   UNL     1       8.769  -0.709  21.586  0.00  0.00    +0.210 HD
ENDBRANCH  17  18
ENDBRANCH   5  17
ENDBRANCH   1   4
BRANCH   1  20
ATOM     20  C   UNL     1       8.150   0.080  25.425  0.00  0.00    +0.274 C 
ATOM     21  C   UNL     1       8.118   1.344  24.463  0.00  0.00    +0.160 C 
ATOM     22  C   UNL     1       7.106   2.370  25.070  0.00  0.00    +0.171 C 
ATOM     23  C   UNL     1       5.732   1.777  25.383  0.00  0.00    +0.176 C 
ATOM     24  C   UNL     1       5.962   0.599  26.334  0.00  0.00    +0.178 C 
ATOM     25  O   UNL     1       6.810  -0.370  25.713  0.00  0.00    -0.341 OA
BRANCH  21  26
ATOM     26  N   UNL     1       9.393   2.120  24.350  0.00  0.00    -0.305 N 
ATOM     27  H   UNL     1       9.362   2.987  24.877  0.00  0.00    +0.149 HD
ATOM     28  C   UNL     1      10.106   2.283  23.190  0.00  0.00    +0.210 C 
ATOM     29  O   UNL     1       9.918   1.660  22.146  0.00  0.00    -0.276 OA
ATOM     30  C   UNL     1      11.189   3.333  23.288  0.00  0.00    +0.109 C 
ENDBRANCH  21  26
BRANCH  22  31
ATOM     31  O   UNL     1       7.029   3.542  24.240  0.00  0.00    -0.387 OA
ATOM     32  H   UNL     1       6.331   3.397  23.574  0.00  0.00    +0.210 HD
ENDBRANCH  22  31
BRANCH  23  33
ATOM     33  O   UNL     1       5.101   1.423  24.148  0.00  0.00    -0.387 OA
ATOM     34  H   UNL     1       5.744   1.481  23.422  0.00  0.00    +0.210 HD
ENDBRANCH  23  33
BRANCH  24  35
ATOM     35  C   UNL     1       4.660  -0.109  26.709  0.00  0.00    +0.190 C 
BRANCH  35  36
ATOM     36  O   UNL     1       4.395  -1.146  25.768  0.00  0.00    -0.392 OA
ATOM     37  H   UNL     1       4.172  -0.690  24.931  0.00  0.00    +0.210 HD
ENDBRANCH  35  36
ENDBRANCH  24  35
ENDBRANCH   1  20
TORSDOF 12
ENDMDL
MODEL 8
REMARK VINA RESULT:      -5.8      2.637      4.723
REMARK  Name = 
REMARK  14 active torsions:
REMARK  status: ('A' for Active; 'I' for Inactive)
REMARK    1  A    between atoms: C_1  and  C_2
REMARK    2  A    between atoms: N_4  and  C_5
REMARK    3  A    between atoms: C_7  and  O_9
REMARK    4  A    between atoms: C_11  and  C_13
REMARK    5  A    between atoms: C_13  and  O_14
REMARK    6  A    between atoms: C_15  and  O_17
REMARK    7  A    between atoms: O_17  and  C_18
REMARK    8  A    between atoms: C_21  and  C_23
REMARK    9  A    between atoms: C_23  and  O_24
REMARK   10  A    between atoms: C_25  and  O_27
REMARK   11  A    between atoms: C_28  and  O_30
REMARK   12  A    between atoms: C_31  and  N_33
REMARK   13  A    between atoms: C_34  and  C_35
REMARK   14  A    between atoms: C_37  and  O_39
REMARK                            x       y       z     vdW  Elec       q    Type
REMARK                         _______ _______ _______ _____ _____    ______ ____
ROOT
ATOM      1  O   UNL     1       7.713  -0.875  24.164  0.00  0.00    -0.341 OA
ENDROOT
BRANCH   1   4
ATOM      2  C   UNL     1       8.663   2.688  23.515  0.00  0.00    +0.160 C 
ATOM      3  C   UNL     1       7.873   1.378  23.312  0.00  0.00    +0.171 C 
ATOM      4  C   UNL     1       8.542   0.270  24.142  0.00  0.00    +0.183 C 
ATOM      5  C   UNL     1       9.991   0.055  23.681  0.00  0.00    +0.178 C 
ATOM      6  O   UNL     1      10.734   1.288  23.776  0.00  0.00    -0.341 OA
ATOM      7  C   UNL     1      10.154   2.436  23.142  0.00  0.00    +0.270 C 
BRANCH   2  10
ATOM      8  C   UNL     1       7.400   4.447  26.658  0.00  0.00    +0.109 C 
ATOM      9  C   UNL     1       7.473   4.081  25.199  0.00  0.00    +0.210 C 
ATOM     10  N   UNL     1       8.507   3.227  24.876  0.00  0.00    -0.305 N 
ATOM     11  H   UNL     1       8.947   2.731  25.646  0.00  0.00    +0.149 HD
ATOM     12  O   UNL     1       6.691   4.537  24.373  0.00  0.00    -0.276 OA
ENDBRANCH   2  10
BRANCH   3  13
ATOM     13  O   UNL     1       7.840   1.059  21.909  0.00  0.00    -0.387 OA
ATOM     14  H   UNL     1       8.750   1.222  21.584  0.00  0.00    +0.210 HD
ENDBRANCH   3  13
BRANCH   7  15
ATOM     15  O   UNL     1      10.365   2.376  21.738  0.00  0.00    -0.365 OA
ATOM     16  H   UNL     1      10.334   1.429  21.491  0.00  0.00    +0.213 HD
ENDBRANCH   7  15
BRANCH   5  17
ATOM     17  C   UNL     1      10.165  -0.639  22.317  0.00  0.00    +0.190 C 
BRANCH  17  18
ATOM     18  O   UNL     1      10.067  -2.058  22.486  0.00  0.00    -0.392 OA
ATOM     19  H   UNL     1      10.805  -2.431  21.965  0.00  0.00    +0.210 HD
ENDBRANCH  17  18
ENDBRANCH   5  17
ENDBRANCH   1   4
BRANCH   1  20
ATOM     20  C   UNL     1       7.756  -1.752  25.297  0.00  0.00    +0.274 C 
ATOM     21  C   UNL     1       6.411  -2.270  25.966  0.00  0.00    +0.160 C 
ATOM     22  C   UNL     1       6.789  -3.443  26.929  0.00  0.00    +0.171 C 
ATOM     23  C   UNL     1       7.633  -4.537  26.277  0.00  0.00    +0.176 C 
ATOM     24  C   UNL     1       8.887  -3.856  25.718  0.00  0.00    +0.178 C 
ATOM     25  O   UNL     1       8.514  -2.858  24.764  0.00  0.00    -0.341 OA
BRANCH  21  26
ATOM     26  N   UNL     1       5.694  -1.296  26.848  0.00  0.00    -0.305 N 
ATOM     27  H   UNL     1       5.246  -1.751  27.637  0.00  0.00    +0.149 HD
ATOM     28  C   UNL     1       4.933  -0.249  26.396  0.00  0.00    +0.210 C 
ATOM     29  O   UNL     1       4.898   0.155  25.234  0.00  0.00    -0.276 OA
ATOM     30  C   UNL     1       4.099   0.402  27.474  0.00  0.00    +0.109 C 
ENDBRANCH  21  26
BRANCH  22  31
ATOM     31  O   UNL     1       5.608  -3.960  27.568  0.00  0.00    -0.387 OA
ATOM     32  H   UNL     1       5.596  -4.928  27.446  0.00  0.00    +0.210 HD
ENDBRANCH  22  31
BRANCH  23  33
ATOM     33  O   UNL     1       6.834  -5.199  25.292  0.00  0.00    -0.387 OA
ATOM     34  H   UNL     1       7.353  -5.328  24.481  0.00  0.00    +0.210 HD
ENDBRANCH  23  33
BRANCH  24  35
ATOM     35  C   UNL     1       9.815  -4.841  25.006  0.00  0.00    +0.190 C 
BRANCH  35  36
ATOM     36  O   UNL     1       9.756  -6.107  25.659  0.00  0.00    -0.392 OA
ATOM     37  H   UNL     1       9.741  -6.771  24.940  0.00  0.00    +0.210 HD
ENDBRANCH  35  36
ENDBRANCH  24  35
ENDBRANCH   1  20
TORSDOF 12
ENDMDL
MODEL 9
REMARK VINA RESULT:      -5.8      2.541      6.545
REMARK  Name = 
REMARK  14 active torsions:
REMARK  status: ('A' for Active; 'I' for Inactive)
REMARK    1  A    between atoms: C_1  and  C_2
REMARK    2  A    between atoms: N_4  and  C_5
REMARK    3  A    between atoms: C_7  and  O_9
REMARK    4  A    between atoms: C_11  and  C_13
REMARK    5  A    between atoms: C_13  and  O_14
REMARK    6  A    between atoms: C_15  and  O_17
REMARK    7  A    between atoms: O_17  and  C_18
REMARK    8  A    between atoms: C_21  and  C_23
REMARK    9  A    between atoms: C_23  and  O_24
REMARK   10  A    between atoms: C_25  and  O_27
REMARK   11  A    between atoms: C_28  and  O_30
REMARK   12  A    between atoms: C_31  and  N_33
REMARK   13  A    between atoms: C_34  and  C_35
REMARK   14  A    between atoms: C_37  and  O_39
REMARK                            x       y       z     vdW  Elec       q    Type
REMARK                         _______ _______ _______ _____ _____    ______ ____
ROOT
ATOM      1  O   UNL     1       8.904   1.702  24.860  0.00  0.00    -0.341 OA
ENDROOT
BRANCH   1   4
ATOM      2  C   UNL     1       9.768  -1.824  23.945  0.00  0.00    +0.160 C 
ATOM      3  C   UNL     1      10.036  -0.389  24.443  0.00  0.00    +0.171 C 
ATOM      4  C   UNL     1       8.774   0.455  24.206  0.00  0.00    +0.183 C 
ATOM      5  C   UNL     1       8.433   0.502  22.709  0.00  0.00    +0.178 C 
ATOM      6  O   UNL     1       8.262  -0.834  22.193  0.00  0.00    -0.341 OA
ATOM      7  C   UNL     1       9.324  -1.762  22.453  0.00  0.00    +0.270 C 
BRANCH   2  10
ATOM      8  C   UNL     1       7.979  -4.359  26.168  0.00  0.00    +0.109 C 
ATOM      9  C   UNL     1       9.022  -3.826  25.221  0.00  0.00    +0.210 C 
ATOM     10  N   UNL     1       8.795  -2.535  24.792  0.00  0.00    -0.305 N 
ATOM     11  H   UNL     1       8.128  -1.985  25.327  0.00  0.00    +0.149 HD
ATOM     12  O   UNL     1       9.969  -4.506  24.846  0.00  0.00    -0.276 OA
ENDBRANCH   2  10
BRANCH   3  13
ATOM     13  O   UNL     1      11.182   0.144  23.753  0.00  0.00    -0.387 OA
ATOM     14  H   UNL     1      10.849   0.924  23.262  0.00  0.00    +0.210 HD
ENDBRANCH   3  13
BRANCH   7  15
ATOM     15  O   UNL     1      10.409  -1.521  21.569  0.00  0.00    -0.365 OA
ATOM     16  H   UNL     1      10.372  -0.572  21.332  0.00  0.00    +0.213 HD
ENDBRANCH   7  15
BRANCH   5  17
ATOM     17  C   UNL     1       9.366   1.361  21.835  0.00  0.00    +0.190 C 
BRANCH  17  18
ATOM     18  O   UNL     1       9.499   2.664  22.414  0.00  0.00    -0.392 OA
ATOM     19  H   UNL     1       8.606   2.895  22.737  0.00  0.00    +0.210 HD
ENDBRANCH  17  18
ENDBRANCH   5  17
ENDBRANCH   1   4
BRANCH   1  20
ATOM     20  C   UNL     1       7.729   2.377  25.326  0.00  0.00    +0.274 C 
ATOM     21  C   UNL     1       6.989   3.437  24.401  0.00  0.00    +0.160 C 
ATOM     22  C   UNL     1       5.594   3.728  25.045  0.00  0.00    +0.171 C 
ATOM     23  C   UNL     1       4.776   2.474  25.350  0.00  0.00    +0.176 C 
ATOM     24  C   UNL     1       5.634   1.594  26.265  0.00  0.00    +0.178 C 
ATOM     25  O   UNL     1       6.860   1.261  25.609  0.00  0.00    -0.341 OA
BRANCH  21  26
ATOM     26  N   UNL     1       7.629   4.787  24.302  0.00  0.00    -0.305 N 
ATOM     27  H   UNL     1       7.362   5.395  25.070  0.00  0.00    +0.149 HD
ATOM     28  C   UNL     1       7.763   5.503  23.141  0.00  0.00    +0.210 C 
ATOM     29  O   UNL     1       7.568   5.063  22.008  0.00  0.00    -0.276 OA
ATOM     30  C   UNL     1       8.182   6.938  23.360  0.00  0.00    +0.109 C 
ENDBRANCH  21  26
BRANCH  22  31
ATOM     31  O   UNL     1       4.871   4.684  24.251  0.00  0.00    -0.387 OA
ATOM     32  H   UNL     1       4.989   4.449  23.311  0.00  0.00    +0.210 HD
ENDBRANCH  22  31
BRANCH  23  33
ATOM     33  O   UNL     1       4.414   1.858  24.110  0.00  0.00    -0.387 OA
ATOM     34  H   UNL     1       4.659   2.440  23.371  0.00  0.00    +0.210 HD
ENDBRANCH  23  33
BRANCH  24  35
ATOM     35  C   UNL     1       4.940   0.281  26.627  0.00  0.00    +0.190 C 
BRANCH  35  36
ATOM     36  O   UNL     1       4.943  -0.586  25.496  0.00  0.00    -0.392 OA
ATOM     37  H   UNL     1       4.003  -0.805  25.331  0.00  0.00    +0.210 HD
ENDBRANCH  35  36
ENDBRANCH  24  35
ENDBRANCH   1  20
TORSDOF 12
ENDMDL
