MODEL 1
REMARK VINA RESULT:      -4.6      0.000      0.000
REMARK  Name = 
REMARK  4 active torsions:
REMARK  status: ('A' for Active; 'I' for Inactive)
REMARK    1  A    between atoms: O_1  and  C_2
REMARK    2  A    between atoms: C_2  and  C_3
REMARK    3  A    between atoms: C_12  and  O_14
REMARK    4  A    between atoms: C_15  and  O_17
REMARK                            x       y       z     vdW  Elec       q    Type
REMARK                         _______ _______ _______ _____ _____    ______ ____
ROOT
ATOM      1  C   UNL     1      10.306   0.556  22.461  0.00  0.00    +0.178 C 
ATOM      2  C   UNL     1       9.343  -0.450  21.808  0.00  0.00    +0.177 C 
ATOM      3  C   UNL     1       8.221  -0.910  22.748  0.00  0.00    +0.185 C 
ATOM      4  C   UNL     1       8.769  -1.334  24.102  0.00  0.00    +0.258 C 
ATOM      5  F   UNL     1       9.377  -2.551  23.966  0.00  0.00    -0.237 F 
ATOM      6  C   UNL     1       9.767  -0.328  24.664  0.00  0.00    +0.334 C 
ATOM      7  F   UNL     1       9.108   0.751  25.160  0.00  0.00    -0.211 F 
ATOM      8  O   UNL     1      10.754   0.148  23.761  0.00  0.00    -0.337 OA
ENDROOT
BRANCH   2   9
ATOM      9  O   UNL     1      10.136  -1.578  21.396  0.00  0.00    -0.386 OA
ATOM     10  H   UNL     1      10.347  -2.118  22.178  0.00  0.00    +0.210 HD
ENDBRANCH   2   9
BRANCH   3  11
ATOM     11  O   UNL     1       7.182   0.060  22.878  0.00  0.00    -0.386 OA
ATOM     12  H   UNL     1       6.551  -0.254  23.565  0.00  0.00    +0.210 HD
ENDBRANCH   3  11
BRANCH   1  13
ATOM     13  C   UNL     1       9.820   2.016  22.431  0.00  0.00    +0.190 C 
BRANCH  13  14
ATOM     14  O   UNL     1       8.860   2.264  21.410  0.00  0.00    -0.392 OA
ATOM     15  H   UNL     1       9.217   2.994  20.867  0.00  0.00    +0.210 HD
ENDBRANCH  13  14
ENDBRANCH   1  13
TORSDOF 4
ENDMDL
MODEL 2
REMARK VINA RESULT:      -4.6      1.462      3.391
REMARK  Name = 
REMARK  4 active torsions:
REMARK  status: ('A' for Active; 'I' for Inactive)
REMARK    1  A    between atoms: O_1  and  C_2
REMARK    2  A    between atoms: C_2  and  C_3
REMARK    3  A    between atoms: C_12  and  O_14
REMARK    4  A    between atoms: C_15  and  O_17
REMARK                            x       y       z     vdW  Elec       q    Type
REMARK                         _______ _______ _______ _____ _____    ______ ____
ROOT
ATOM      1  C   UNL     1       8.867   0.204  21.858  0.00  0.00    +0.178 C 
ATOM      2  C   UNL     1      10.100   1.061  22.193  0.00  0.00    +0.177 C 
ATOM      3  C   UNL     1      10.287   1.284  23.700  0.00  0.00    +0.185 C 
ATOM      4  C   UNL     1       8.995   1.736  24.360  0.00  0.00    +0.258 C 
ATOM      5  F   UNL     1       8.767   3.042  24.029  0.00  0.00    -0.237 F 
ATOM      6  C   UNL     1       7.800   0.889  23.935  0.00  0.00    +0.334 C 
ATOM      7  F   UNL     1       7.827  -0.306  24.580  0.00  0.00    -0.211 F 
ATOM      8  O   UNL     1       7.681   0.626  22.545  0.00  0.00    -0.337 OA
ENDROOT
BRANCH   2   9
ATOM      9  O   UNL     1       9.924   2.323  21.525  0.00  0.00    -0.386 OA
ATOM     10  H   UNL     1      10.798   2.672  21.274  0.00  0.00    +0.210 HD
ENDBRANCH   2   9
BRANCH   3  11
ATOM     11  O   UNL     1      10.849   0.148  24.357  0.00  0.00    -0.386 OA
ATOM     12  H   UNL     1      11.540  -0.238  23.770  0.00  0.00    +0.210 HD
ENDBRANCH   3  11
BRANCH   1  13
ATOM     13  C   UNL     1       9.100  -1.314  21.951  0.00  0.00    +0.190 C 
BRANCH  13  14
ATOM     14  O   UNL     1      10.475  -1.674  21.873  0.00  0.00    -0.392 OA
ATOM     15  H   UNL     1      10.862  -1.479  22.749  0.00  0.00    +0.210 HD
ENDBRANCH  13  14
ENDBRANCH   1  13
TORSDOF 4
ENDMDL
MODEL 3
REMARK VINA RESULT:      -4.6      1.451      2.500
REMARK  Name = 
REMARK  4 active torsions:
REMARK  status: ('A' for Active; 'I' for Inactive)
REMARK    1  A    between atoms: O_1  and  C_2
REMARK    2  A    between atoms: C_2  and  C_3
REMARK    3  A    between atoms: C_12  and  O_14
REMARK    4  A    between atoms: C_15  and  O_17
REMARK                            x       y       z     vdW  Elec       q    Type
REMARK                         _______ _______ _______ _____ _____    ______ ____
ROOT
ATOM      1  C   UNL     1       8.979   0.738  23.319  0.00  0.00    +0.178 C 
ATOM      2  C   UNL     1      10.344   0.031  23.398  0.00  0.00    +0.177 C 
ATOM      3  C   UNL     1      10.291  -1.435  22.947  0.00  0.00    +0.185 C 
ATOM      4  C   UNL     1       9.144  -2.179  23.611  0.00  0.00    +0.258 C 
ATOM      5  F   UNL     1       9.477  -2.422  24.915  0.00  0.00    -0.237 F 
ATOM      6  C   UNL     1       7.836  -1.397  23.558  0.00  0.00    +0.334 C 
ATOM      7  F   UNL     1       7.298  -1.479  22.314  0.00  0.00    -0.211 F 
ATOM      8  O   UNL     1       7.913  -0.022  23.904  0.00  0.00    -0.337 OA
ENDROOT
BRANCH   2   9
ATOM      9  O   UNL     1      10.776   0.111  24.768  0.00  0.00    -0.386 OA
ATOM     10  H   UNL     1      10.198  -0.450  25.315  0.00  0.00    +0.210 HD
ENDBRANCH   2   9
BRANCH   3  11
ATOM     11  O   UNL     1      10.258  -1.570  21.526  0.00  0.00    -0.386 OA
ATOM     12  H   UNL     1      10.166  -0.672  21.133  0.00  0.00    +0.210 HD
ENDBRANCH   3  11
BRANCH   1  13
ATOM     13  C   UNL     1       8.624   1.285  21.926  0.00  0.00    +0.190 C 
BRANCH  13  14
ATOM     14  O   UNL     1       9.669   2.057  21.345  0.00  0.00    -0.392 OA
ATOM     15  H   UNL     1       9.892   2.754  21.993  0.00  0.00    +0.210 HD
ENDBRANCH  13  14
ENDBRANCH   1  13
TORSDOF 4
ENDMDL
MODEL 4
REMARK VINA RESULT:      -4.6      1.849      3.370
REMARK  Name = 
REMARK  4 active torsions:
REMARK  status: ('A' for Active; 'I' for Inactive)
REMARK    1  A    between atoms: O_1  and  C_2
REMARK    2  A    between atoms: C_2  and  C_3
REMARK    3  A    between atoms: C_12  and  O_14
REMARK    4  A    between atoms: C_15  and  O_17
REMARK                            x       y       z     vdW  Elec       q    Type
REMARK                         _______ _______ _______ _____ _____    ______ ____
ROOT
ATOM      1  C   UNL     1       8.573  -0.199  23.192  0.00  0.00    +0.178 C 
ATOM      2  C   UNL     1       7.968   0.800  22.190  0.00  0.00    +0.177 C 
ATOM      3  C   UNL     1       8.678   2.161  22.193  0.00  0.00    +0.185 C 
ATOM      4  C   UNL     1       8.850   2.695  23.606  0.00  0.00    +0.258 C 
ATOM      5  F   UNL     1       7.639   3.142  24.054  0.00  0.00    -0.237 F 
ATOM      6  C   UNL     1       9.388   1.638  24.564  0.00  0.00    +0.334 C 
ATOM      7  F   UNL     1      10.720   1.466  24.363  0.00  0.00    -0.211 F 
ATOM      8  O   UNL     1       8.773   0.360  24.498  0.00  0.00    -0.337 OA
ENDROOT
BRANCH   2   9
ATOM      9  O   UNL     1       6.585   0.965  22.547  0.00  0.00    -0.386 OA
ATOM     10  H   UNL     1       6.248   1.782  22.140  0.00  0.00    +0.210 HD
ENDBRANCH   2   9
BRANCH   3  11
ATOM     11  O   UNL     1       9.916   2.135  21.482  0.00  0.00    -0.386 OA
ATOM     12  H   UNL     1       9.778   2.563  20.606  0.00  0.00    +0.210 HD
ENDBRANCH   3  11
BRANCH   1  13
ATOM     13  C   UNL     1       9.808  -0.956  22.673  0.00  0.00    +0.190 C 
BRANCH  13  14
ATOM     14  O   UNL     1       9.922  -0.933  21.255  0.00  0.00    -0.392 OA
ATOM     15  H   UNL     1      10.124  -0.008  21.008  0.00  0.00    +0.210 HD
ENDBRANCH  13  14
ENDBRANCH   1  13
TORSDOF 4
ENDMDL
MODEL 5
REMARK VINA RESULT:      -4.5      2.203      3.429
REMARK  Name = 
REMARK  4 active torsions:
REMARK  status: ('A' for Active; 'I' for Inactive)
REMARK    1  A    between atoms: O_1  and  C_2
REMARK    2  A    between atoms: C_2  and  C_3
REMARK    3  A    between atoms: C_12  and  O_14
REMARK    4  A    between atoms: C_15  and  O_17
REMARK                            x       y       z     vdW  Elec       q    Type
REMARK                         _______ _______ _______ _____ _____    ______ ____
ROOT
ATOM      1  C   UNL     1       8.003   1.447  23.293  0.00  0.00    +0.178 C 
ATOM      2  C   UNL     1       8.809   2.350  24.244  0.00  0.00    +0.177 C 
ATOM      3  C   UNL     1      10.320   2.303  23.983  0.00  0.00    +0.185 C 
ATOM      4  C   UNL     1      10.823   0.873  23.879  0.00  0.00    +0.258 C 
ATOM      5  F   UNL     1      10.858   0.329  25.132  0.00  0.00    -0.237 F 
ATOM      6  C   UNL     1       9.944   0.013  22.977  0.00  0.00    +0.334 C 
ATOM      7  F   UNL     1      10.198   0.300  21.674  0.00  0.00    -0.211 F 
ATOM      8  O   UNL     1       8.543   0.123  23.177  0.00  0.00    -0.337 OA
ENDROOT
BRANCH   2   9
ATOM      9  O   UNL     1       8.525   1.904  25.582  0.00  0.00    -0.386 OA
ATOM     10  H   UNL     1       7.561   1.882  25.711  0.00  0.00    +0.210 HD
ENDBRANCH   2   9
BRANCH   3  11
ATOM     11  O   UNL     1      10.705   3.084  22.851  0.00  0.00    -0.386 OA
ATOM     12  H   UNL     1      10.240   2.729  22.059  0.00  0.00    +0.210 HD
ENDBRANCH   3  11
BRANCH   1  13
ATOM     13  C   UNL     1       7.684   2.081  21.928  0.00  0.00    +0.190 C 
BRANCH  13  14
ATOM     14  O   UNL     1       7.926   3.483  21.893  0.00  0.00    -0.392 OA
ATOM     15  H   UNL     1       8.630   3.626  21.230  0.00  0.00    +0.210 HD
ENDBRANCH  13  14
ENDBRANCH   1  13
TORSDOF 4
ENDMDL
MODEL 6
REMARK VINA RESULT:      -4.4      2.148      3.197
REMARK  Name = 
REMARK  4 active torsions:
REMARK  status: ('A' for Active; 'I' for Inactive)
REMARK    1  A    between atoms: O_1  and  C_2
REMARK    2  A    between atoms: C_2  and  C_3
REMARK    3  A    between atoms: C_12  and  O_14
REMARK    4  A    between atoms: C_15  and  O_17
REMARK                            x       y       z     vdW  Elec       q    Type
REMARK                         _______ _______ _______ _____ _____    ______ ____
ROOT
ATOM      1  C   UNL     1       8.737   2.459  24.420  0.00  0.00    +0.178 C 
ATOM      2  C   UNL     1      10.102   1.870  24.022  0.00  0.00    +0.177 C 
ATOM      3  C   UNL     1      10.085   1.185  22.648  0.00  0.00    +0.185 C 
ATOM      4  C   UNL     1       8.912   0.227  22.519  0.00  0.00    +0.258 C 
ATOM      5  F   UNL     1       9.178  -0.893  23.256  0.00  0.00    -0.237 F 
ATOM      6  C   UNL     1       7.602   0.847  22.992  0.00  0.00    +0.334 C 
ATOM      7  F   UNL     1       7.130   1.706  22.052  0.00  0.00    -0.211 F 
ATOM      8  O   UNL     1       7.648   1.544  24.228  0.00  0.00    -0.337 OA
ENDROOT
BRANCH   2   9
ATOM      9  O   UNL     1      10.460   0.922  25.042  0.00  0.00    -0.386 OA
ATOM     10  H   UNL     1      11.171   1.299  25.590  0.00  0.00    +0.210 HD
ENDBRANCH   2   9
BRANCH   3  11
ATOM     11  O   UNL     1      10.129   2.119  21.569  0.00  0.00    -0.386 OA
ATOM     12  H   UNL     1      10.607   1.700  20.818  0.00  0.00    +0.210 HD
ENDBRANCH   3  11
BRANCH   1  13
ATOM     13  C   UNL     1       8.450   3.854  23.839  0.00  0.00    +0.190 C 
BRANCH  13  14
ATOM     14  O   UNL     1       9.606   4.482  23.296  0.00  0.00    -0.392 OA
ATOM     15  H   UNL     1       9.388   4.708  22.370  0.00  0.00    +0.210 HD
ENDBRANCH  13  14
ENDBRANCH   1  13
TORSDOF 4
ENDMDL
MODEL 7
REMARK VINA RESULT:      -4.4      1.969      2.631
REMARK  Name = 
REMARK  4 active torsions:
REMARK  status: ('A' for Active; 'I' for Inactive)
REMARK    1  A    between atoms: O_1  and  C_2
REMARK    2  A    between atoms: C_2  and  C_3
REMARK    3  A    between atoms: C_12  and  O_14
REMARK    4  A    between atoms: C_15  and  O_17
REMARK                            x       y       z     vdW  Elec       q    Type
REMARK                         _______ _______ _______ _____ _____    ______ ____
ROOT
ATOM      1  C   UNL     1       9.786  -0.885  24.370  0.00  0.00    +0.178 C 
ATOM      2  C   UNL     1      10.193  -1.924  23.311  0.00  0.00    +0.177 C 
ATOM      3  C   UNL     1       9.302  -1.892  22.062  0.00  0.00    +0.185 C 
ATOM      4  C   UNL     1       7.827  -1.896  22.430  0.00  0.00    +0.258 C 
ATOM      5  F   UNL     1       7.484  -3.154  22.843  0.00  0.00    -0.237 F 
ATOM      6  C   UNL     1       7.502  -0.894  23.532  0.00  0.00    +0.334 C 
ATOM      7  F   UNL     1       7.470   0.363  23.019  0.00  0.00    -0.211 F 
ATOM      8  O   UNL     1       8.379  -0.881  24.648  0.00  0.00    -0.337 OA
ENDROOT
BRANCH   2   9
ATOM      9  O   UNL     1      10.114  -3.215  23.940  0.00  0.00    -0.386 OA
ATOM     10  H   UNL     1      10.141  -3.098  24.906  0.00  0.00    +0.210 HD
ENDBRANCH   2   9
BRANCH   3  11
ATOM     11  O   UNL     1       9.626  -0.812  21.185  0.00  0.00    -0.386 OA
ATOM     12  H   UNL     1       9.656  -1.161  20.264  0.00  0.00    +0.210 HD
ENDBRANCH   3  11
BRANCH   1  13
ATOM     13  C   UNL     1      10.349   0.526  24.129  0.00  0.00    +0.190 C 
BRANCH  13  14
ATOM     14  O   UNL     1       9.797   1.505  25.003  0.00  0.00    -0.392 OA
ATOM     15  H   UNL     1       9.337   1.015  25.713  0.00  0.00    +0.210 HD
ENDBRANCH  13  14
ENDBRANCH   1  13
TORSDOF 4
ENDMDL
MODEL 8
REMARK VINA RESULT:      -4.3      1.756      3.455
REMARK  Name = 
REMARK  4 active torsions:
REMARK  status: ('A' for Active; 'I' for Inactive)
REMARK    1  A    between atoms: O_1  and  C_2
REMARK    2  A    between atoms: C_2  and  C_3
REMARK    3  A    between atoms: C_12  and  O_14
REMARK    4  A    between atoms: C_15  and  O_17
REMARK                            x       y       z     vdW  Elec       q    Type
REMARK                         _______ _______ _______ _____ _____    ______ ____
ROOT
ATOM      1  C   UNL     1       8.563  -0.683  24.113  0.00  0.00    +0.178 C 
ATOM      2  C   UNL     1       8.113  -0.855  22.652  0.00  0.00    +0.177 C 
ATOM      3  C   UNL     1       9.200  -0.476  21.637  0.00  0.00    +0.185 C 
ATOM      4  C   UNL     1       9.817   0.875  21.962  0.00  0.00    +0.258 C 
ATOM      5  F   UNL     1       8.928   1.856  21.622  0.00  0.00    -0.237 F 
ATOM      6  C   UNL     1      10.179   1.007  23.437  0.00  0.00    +0.334 C 
ATOM      7  F   UNL     1      11.318   0.314  23.699  0.00  0.00    -0.211 F 
ATOM      8  O   UNL     1       9.193   0.581  24.366  0.00  0.00    -0.337 OA
ENDROOT
BRANCH   2   9
ATOM      9  O   UNL     1       6.956  -0.019  22.471  0.00  0.00    -0.386 OA
ATOM     10  H   UNL     1       6.159  -0.527  22.705  0.00  0.00    +0.210 HD
ENDBRANCH   2   9
BRANCH   3  11
ATOM     11  O   UNL     1      10.193  -1.491  21.492  0.00  0.00    -0.386 OA
ATOM     12  H   UNL     1      10.431  -1.820  22.389  0.00  0.00    +0.210 HD
ENDBRANCH   3  11
BRANCH   1  13
ATOM     13  C   UNL     1       9.363  -1.870  24.678  0.00  0.00    +0.190 C 
BRANCH  13  14
ATOM     14  O   UNL     1       9.271  -3.040  23.873  0.00  0.00    -0.392 OA
ATOM     15  H   UNL     1       8.449  -2.953  23.351  0.00  0.00    +0.210 HD
ENDBRANCH  13  14
ENDBRANCH   1  13
TORSDOF 4
ENDMDL
MODEL 9
REMARK VINA RESULT:      -4.3      1.778      2.602
REMARK  Name = 
REMARK  4 active torsions:
REMARK  status: ('A' for Active; 'I' for Inactive)
REMARK    1  A    between atoms: O_1  and  C_2
REMARK    2  A    between atoms: C_2  and  C_3
REMARK    3  A    between atoms: C_12  and  O_14
REMARK    4  A    between atoms: C_15  and  O_17
REMARK                            x       y       z     vdW  Elec       q    Type
REMARK                         _______ _______ _______ _____ _____    ______ ____
ROOT
ATOM      1  C   UNL     1       8.715   0.579  22.221  0.00  0.00    +0.178 C 
ATOM      2  C   UNL     1       7.823   0.173  23.407  0.00  0.00    +0.177 C 
ATOM      3  C   UNL     1       8.331  -1.074  24.144  0.00  0.00    +0.185 C 
ATOM      4  C   UNL     1       8.658  -2.198  23.175  0.00  0.00    +0.258 C 
ATOM      5  F   UNL     1       7.487  -2.741  22.723  0.00  0.00    -0.237 F 
ATOM      6  C   UNL     1       9.485  -1.718  21.988  0.00  0.00    +0.334 C 
ATOM      7  F   UNL     1      10.777  -1.538  22.367  0.00  0.00    -0.211 F 
ATOM      8  O   UNL     1       9.049  -0.521  21.362  0.00  0.00    -0.337 OA
ENDROOT
BRANCH   2   9
ATOM      9  O   UNL     1       6.508  -0.069  22.877  0.00  0.00    -0.386 OA
ATOM     10  H   UNL     1       6.074   0.786  22.706  0.00  0.00    +0.210 HD
ENDBRANCH   2   9
BRANCH   3  11
ATOM     11  O   UNL     1       9.427  -0.789  25.014  0.00  0.00    -0.386 OA
ATOM     12  H   UNL     1      10.192  -0.506  24.463  0.00  0.00    +0.210 HD
ENDBRANCH   3  11
BRANCH   1  13
ATOM     13  C   UNL     1       9.940   1.427  22.604  0.00  0.00    +0.190 C 
BRANCH  13  14
ATOM     14  O   UNL     1      10.310   2.361  21.595  0.00  0.00    -0.392 OA
ATOM     15  H   UNL     1       9.598   2.343  20.926  0.00  0.00    +0.210 HD
ENDBRANCH  13  14
ENDBRANCH   1  13
TORSDOF 4
ENDMDL
