MODEL 1
REMARK VINA RESULT:      -7.0      0.000      0.000
REMARK  Name = 
REMARK  4 active torsions:
REMARK  status: ('A' for Active; 'I' for Inactive)
REMARK    1  A    between atoms: C_6  and  C_8
REMARK    2  A    between atoms: C_15  and  N_16
REMARK    3  A    between atoms: N_16  and  C_17
REMARK    4  A    between atoms: C_17  and  C_18
REMARK                            x       y       z     vdW  Elec       q    Type
REMARK                         _______ _______ _______ _____ _____    ______ ____
ROOT
ATOM      1  C   UNL     1       8.142  -2.111  23.037  0.00  0.00    +0.087 A 
ATOM      2  C   UNL     1       8.614  -2.984  24.032  0.00  0.00    +0.127 A 
ATOM      3  C   UNL     1       8.214  -4.315  24.087  0.00  0.00    +0.306 A 
ATOM      4  N   UNL     1       7.276  -4.702  23.026  0.00  0.00    -0.018 N 
ATOM      5  N   UNL     1       6.701  -5.848  22.761  0.00  0.00    -0.142 N 
ATOM      6  H   UNL     1       6.824  -6.719  23.270  0.00  0.00    +0.238 HD
ATOM      7  C   UNL     1       5.895  -5.616  21.646  0.00  0.00    +0.266 A 
ATOM      8  N   UNL     1       5.954  -4.318  21.191  0.00  0.00    -0.151 NA
ATOM      9  C   UNL     1       6.840  -3.766  22.088  0.00  0.00    +0.441 A 
ATOM     10  N   UNL     1       7.264  -2.472  22.076  0.00  0.00    -0.165 NA
ENDROOT
BRANCH   1  14
ATOM     11 BR   UNL     1       8.179   2.838  25.086  0.00  0.00    -0.050 Br
ATOM     12  C   UNL     1       8.705   1.573  23.784  0.00  0.00    +0.019 A 
ATOM     13  C   UNL     1       8.293   0.243  23.906  0.00  0.00    +0.025 A 
ATOM     14  C   UNL     1       8.648  -0.720  22.941  0.00  0.00    +0.002 A 
ATOM     15  C   UNL     1       9.467  -0.293  21.876  0.00  0.00    +0.010 A 
ATOM     16  C   UNL     1       9.875   1.040  21.756  0.00  0.00    +0.002 A 
ATOM     17  C   UNL     1       9.487   1.977  22.708  0.00  0.00    +0.015 A 
ENDBRANCH   1  14
BRANCH   3  18
ATOM     18  N   UNL     1       8.664  -5.250  24.981  0.00  0.00    -0.285 N 
ATOM     19  H   UNL     1       8.818  -6.197  24.672  0.00  0.00    +0.152 HD
BRANCH  18  20
ATOM     20  C   UNL     1       8.369  -5.154  26.408  0.00  0.00    +0.142 C 
BRANCH  20  21
ATOM     21  C   UNL     1       6.893  -4.954  26.623  0.00  0.00    -0.027 A 
ATOM     22  C   UNL     1       6.403  -3.755  27.152  0.00  0.00    +0.025 A 
ATOM     23  C   UNL     1       5.040  -3.630  27.374  0.00  0.00    +0.111 A 
ATOM     24  N   UNL     1       4.147  -4.607  27.107  0.00  0.00    -0.263 NA
ATOM     25  C   UNL     1       4.632  -5.758  26.608  0.00  0.00    +0.111 A 
ATOM     26  C   UNL     1       5.977  -5.977  26.353  0.00  0.00    +0.025 A 
ENDBRANCH  20  21
ENDBRANCH  18  20
ENDBRANCH   3  18
TORSDOF 4
ENDMDL
MODEL 2
REMARK VINA RESULT:      -6.9      1.778      3.072
REMARK  Name = 
REMARK  4 active torsions:
REMARK  status: ('A' for Active; 'I' for Inactive)
REMARK    1  A    between atoms: C_6  and  C_8
REMARK    2  A    between atoms: C_15  and  N_16
REMARK    3  A    between atoms: N_16  and  C_17
REMARK    4  A    between atoms: C_17  and  C_18
REMARK                            x       y       z     vdW  Elec       q    Type
REMARK                         _______ _______ _______ _____ _____    ______ ____
ROOT
ATOM      1  C   UNL     1       8.383  -2.033  23.562  0.00  0.00    +0.087 A 
ATOM      2  C   UNL     1       7.964  -3.098  22.747  0.00  0.00    +0.127 A 
ATOM      3  C   UNL     1       7.737  -4.369  23.265  0.00  0.00    +0.306 A 
ATOM      4  N   UNL     1       7.971  -4.477  24.711  0.00  0.00    -0.018 N 
ATOM      5  N   UNL     1       7.856  -5.492  25.528  0.00  0.00    -0.142 N 
ATOM      6  H   UNL     1       7.556  -6.433  25.287  0.00  0.00    +0.238 HD
ATOM      7  C   UNL     1       8.231  -5.010  26.783  0.00  0.00    +0.266 A 
ATOM      8  N   UNL     1       8.585  -3.680  26.772  0.00  0.00    -0.151 NA
ATOM      9  C   UNL     1       8.408  -3.372  25.443  0.00  0.00    +0.441 A 
ATOM     10  N   UNL     1       8.613  -2.146  24.888  0.00  0.00    -0.165 NA
ENDROOT
BRANCH   1  14
ATOM     11 BR   UNL     1       6.104   2.707  22.542  0.00  0.00    -0.050 Br
ATOM     12  C   UNL     1       7.573   1.519  22.477  0.00  0.00    +0.019 A 
ATOM     13  C   UNL     1       7.466   0.253  23.060  0.00  0.00    +0.025 A 
ATOM     14  C   UNL     1       8.533  -0.664  23.008  0.00  0.00    +0.002 A 
ATOM     15  C   UNL     1       9.721  -0.235  22.383  0.00  0.00    +0.010 A 
ATOM     16  C   UNL     1       9.824   1.032  21.798  0.00  0.00    +0.002 A 
ATOM     17  C   UNL     1       8.745   1.909  21.838  0.00  0.00    +0.015 A 
ENDBRANCH   1  14
BRANCH   3  18
ATOM     18  N   UNL     1       7.275  -5.449  22.562  0.00  0.00    -0.285 N 
ATOM     19  H   UNL     1       7.927  -6.020  22.045  0.00  0.00    +0.152 HD
BRANCH  18  20
ATOM     20  C   UNL     1       5.921  -5.491  22.017  0.00  0.00    +0.142 C 
BRANCH  20  21
ATOM     21  C   UNL     1       4.911  -5.551  23.132  0.00  0.00    -0.027 A 
ATOM     22  C   UNL     1       4.082  -4.458  23.404  0.00  0.00    +0.025 A 
ATOM     23  C   UNL     1       3.195  -4.541  24.468  0.00  0.00    +0.111 A 
ATOM     24  N   UNL     1       3.084  -5.625  25.265  0.00  0.00    -0.263 NA
ATOM     25  C   UNL     1       3.894  -6.665  24.998  0.00  0.00    +0.111 A 
ATOM     26  C   UNL     1       4.811  -6.676  23.959  0.00  0.00    +0.025 A 
ENDBRANCH  20  21
ENDBRANCH  18  20
ENDBRANCH   3  18
TORSDOF 4
ENDMDL
MODEL 3
REMARK VINA RESULT:      -6.9      2.757      4.185
REMARK  Name = 
REMARK  4 active torsions:
REMARK  status: ('A' for Active; 'I' for Inactive)
REMARK    1  A    between atoms: C_6  and  C_8
REMARK    2  A    between atoms: C_15  and  N_16
REMARK    3  A    between atoms: N_16  and  C_17
REMARK    4  A    between atoms: C_17  and  C_18
REMARK                            x       y       z     vdW  Elec       q    Type
REMARK                         _______ _______ _______ _____ _____    ______ ____
ROOT
ATOM      1  C   UNL     1       9.881   1.942  23.681  0.00  0.00    +0.087 A 
ATOM      2  C   UNL     1       9.575   1.252  24.865  0.00  0.00    +0.127 A 
ATOM      3  C   UNL     1       9.218  -0.092  24.857  0.00  0.00    +0.306 A 
ATOM      4  N   UNL     1       9.198  -0.698  23.520  0.00  0.00    -0.018 N 
ATOM      5  N   UNL     1       8.920  -1.916  23.131  0.00  0.00    -0.142 N 
ATOM      6  H   UNL     1       8.668  -2.700  23.727  0.00  0.00    +0.238 HD
ATOM      7  C   UNL     1       9.044  -1.905  21.741  0.00  0.00    +0.266 A 
ATOM      8  N   UNL     1       9.405  -0.676  21.236  0.00  0.00    -0.151 NA
ATOM      9  C   UNL     1       9.495   0.066  22.391  0.00  0.00    +0.441 A 
ATOM     10  N   UNL     1       9.842   1.381  22.453  0.00  0.00    -0.165 NA
ENDROOT
BRANCH   1  14
ATOM     11 BR   UNL     1       8.639   7.096  24.451  0.00  0.00    -0.050 Br
ATOM     12  C   UNL     1       9.870   5.728  24.022  0.00  0.00    +0.019 A 
ATOM     13  C   UNL     1       9.460   4.392  24.055  0.00  0.00    +0.025 A 
ATOM     14  C   UNL     1      10.347   3.350  23.717  0.00  0.00    +0.002 A 
ATOM     15  C   UNL     1      11.669   3.712  23.388  0.00  0.00    +0.010 A 
ATOM     16  C   UNL     1      12.075   5.050  23.352  0.00  0.00    +0.002 A 
ATOM     17  C   UNL     1      11.172   6.061  23.663  0.00  0.00    +0.015 A 
ENDBRANCH   1  14
BRANCH   3  18
ATOM     18  N   UNL     1       8.959  -0.859  25.962  0.00  0.00    -0.285 N 
ATOM     19  H   UNL     1       9.668  -1.489  26.305  0.00  0.00    +0.152 HD
BRANCH  18  20
ATOM     20  C   UNL     1       7.605  -1.279  26.307  0.00  0.00    +0.142 C 
BRANCH  20  21
ATOM     21  C   UNL     1       7.564  -2.765  26.544  0.00  0.00    -0.027 A 
ATOM     22  C   UNL     1       8.703  -3.552  26.345  0.00  0.00    +0.025 A 
ATOM     23  C   UNL     1       8.610  -4.923  26.535  0.00  0.00    +0.111 A 
ATOM     24  N   UNL     1       7.473  -5.550  26.903  0.00  0.00    -0.263 NA
ATOM     25  C   UNL     1       6.382  -4.783  27.082  0.00  0.00    +0.111 A 
ATOM     26  C   UNL     1       6.377  -3.407  26.916  0.00  0.00    +0.025 A 
ENDBRANCH  20  21
ENDBRANCH  18  20
ENDBRANCH   3  18
TORSDOF 4
ENDMDL
MODEL 4
REMARK VINA RESULT:      -6.5      3.050      4.576
REMARK  Name = 
REMARK  4 active torsions:
REMARK  status: ('A' for Active; 'I' for Inactive)
REMARK    1  A    between atoms: C_6  and  C_8
REMARK    2  A    between atoms: C_15  and  N_16
REMARK    3  A    between atoms: N_16  and  C_17
REMARK    4  A    between atoms: C_17  and  C_18
REMARK                            x       y       z     vdW  Elec       q    Type
REMARK                         _______ _______ _______ _____ _____    ______ ____
ROOT
ATOM      1  C   UNL     1       9.116   2.423  23.642  0.00  0.00    +0.087 A 
ATOM      2  C   UNL     1       9.138   1.724  24.860  0.00  0.00    +0.127 A 
ATOM      3  C   UNL     1       9.274   0.340  24.906  0.00  0.00    +0.306 A 
ATOM      4  N   UNL     1       9.388  -0.294  23.587  0.00  0.00    -0.018 N 
ATOM      5  N   UNL     1       9.532  -1.549  23.245  0.00  0.00    -0.142 N 
ATOM      6  H   UNL     1       9.603  -2.344  23.875  0.00  0.00    +0.238 HD
ATOM      7  C   UNL     1       9.564  -1.558  21.851  0.00  0.00    +0.266 A 
ATOM      8  N   UNL     1       9.443  -0.305  21.294  0.00  0.00    -0.151 NA
ATOM      9  C   UNL     1       9.335   0.474  22.424  0.00  0.00    +0.441 A 
ATOM     10  N   UNL     1       9.205   1.829  22.432  0.00  0.00    -0.165 NA
ENDROOT
BRANCH   1  14
ATOM     11 BR   UNL     1       6.408   6.824  22.228  0.00  0.00    -0.050 Br
ATOM     12  C   UNL     1       7.915   5.969  22.983  0.00  0.00    +0.019 A 
ATOM     13  C   UNL     1       7.944   4.575  23.080  0.00  0.00    +0.025 A 
ATOM     14  C   UNL     1       9.062   3.906  23.615  0.00  0.00    +0.002 A 
ATOM     15  C   UNL     1      10.125   4.703  24.085  0.00  0.00    +0.010 A 
ATOM     16  C   UNL     1      10.095   6.098  23.984  0.00  0.00    +0.002 A 
ATOM     17  C   UNL     1       8.990   6.733  23.425  0.00  0.00    +0.015 A 
ENDBRANCH   1  14
BRANCH   3  18
ATOM     18  N   UNL     1       9.363  -0.418  26.043  0.00  0.00    -0.285 N 
ATOM     19  H   UNL     1      10.190  -0.972  26.206  0.00  0.00    +0.152 HD
BRANCH  18  20
ATOM     20  C   UNL     1       8.177  -0.951  26.708  0.00  0.00    +0.142 C 
BRANCH  20  21
ATOM     21  C   UNL     1       7.840  -2.312  26.161  0.00  0.00    -0.027 A 
ATOM     22  C   UNL     1       6.636  -2.533  25.485  0.00  0.00    +0.025 A 
ATOM     23  C   UNL     1       6.347  -3.812  25.034  0.00  0.00    +0.111 A 
ATOM     24  N   UNL     1       7.167  -4.869  25.212  0.00  0.00    -0.263 NA
ATOM     25  C   UNL     1       8.318  -4.646  25.873  0.00  0.00    +0.111 A 
ATOM     26  C   UNL     1       8.693  -3.403  26.360  0.00  0.00    +0.025 A 
ENDBRANCH  20  21
ENDBRANCH  18  20
ENDBRANCH   3  18
TORSDOF 4
ENDMDL
MODEL 5
REMARK VINA RESULT:      -6.5      3.052      6.967
REMARK  Name = 
REMARK  4 active torsions:
REMARK  status: ('A' for Active; 'I' for Inactive)
REMARK    1  A    between atoms: C_6  and  C_8
REMARK    2  A    between atoms: C_15  and  N_16
REMARK    3  A    between atoms: N_16  and  C_17
REMARK    4  A    between atoms: C_17  and  C_18
REMARK                            x       y       z     vdW  Elec       q    Type
REMARK                         _______ _______ _______ _____ _____    ______ ____
ROOT
ATOM      1  C   UNL     1       6.164  -5.572  25.646  0.00  0.00    +0.087 A 
ATOM      2  C   UNL     1       7.391  -4.896  25.537  0.00  0.00    +0.127 A 
ATOM      3  C   UNL     1       7.893  -4.487  24.306  0.00  0.00    +0.306 A 
ATOM      4  N   UNL     1       7.031  -4.823  23.166  0.00  0.00    -0.018 N 
ATOM      5  N   UNL     1       7.170  -4.597  21.885  0.00  0.00    -0.142 N 
ATOM      6  H   UNL     1       7.942  -4.110  21.436  0.00  0.00    +0.238 HD
ATOM      7  C   UNL     1       6.047  -5.161  21.278  0.00  0.00    +0.266 A 
ATOM      8  N   UNL     1       5.182  -5.750  22.173  0.00  0.00    -0.151 NA
ATOM      9  C   UNL     1       5.836  -5.516  23.361  0.00  0.00    +0.441 A 
ATOM     10  N   UNL     1       5.386  -5.892  24.590  0.00  0.00    -0.165 NA
ENDROOT
BRANCH   1  14
ATOM     11 BR   UNL     1       1.905  -7.173  28.474  0.00  0.00    -0.050 Br
ATOM     12  C   UNL     1       3.708  -6.618  28.352  0.00  0.00    +0.019 A 
ATOM     13  C   UNL     1       4.269  -6.358  27.098  0.00  0.00    +0.025 A 
ATOM     14  C   UNL     1       5.602  -5.920  26.975  0.00  0.00    +0.002 A 
ATOM     15  C   UNL     1       6.353  -5.798  28.162  0.00  0.00    +0.010 A 
ATOM     16  C   UNL     1       5.787  -6.057  29.415  0.00  0.00    +0.002 A 
ATOM     17  C   UNL     1       4.460  -6.461  29.511  0.00  0.00    +0.015 A 
ENDBRANCH   1  14
BRANCH   3  18
ATOM     18  N   UNL     1       9.046  -3.776  24.108  0.00  0.00    -0.285 N 
ATOM     19  H   UNL     1       9.888  -4.261  23.836  0.00  0.00    +0.152 HD
BRANCH  18  20
ATOM     20  C   UNL     1       9.311  -2.526  24.814  0.00  0.00    +0.142 C 
BRANCH  20  21
ATOM     21  C   UNL     1       9.511  -1.403  23.832  0.00  0.00    -0.027 A 
ATOM     22  C   UNL     1       9.321  -1.610  22.462  0.00  0.00    +0.025 A 
ATOM     23  C   UNL     1       9.557  -0.559  21.588  0.00  0.00    +0.111 A 
ATOM     24  N   UNL     1       9.964   0.665  21.985  0.00  0.00    -0.263 NA
ATOM     25  C   UNL     1      10.153   0.848  23.305  0.00  0.00    +0.111 A 
ATOM     26  C   UNL     1       9.943  -0.141  24.253  0.00  0.00    +0.025 A 
ENDBRANCH  20  21
ENDBRANCH  18  20
ENDBRANCH   3  18
TORSDOF 4
ENDMDL
MODEL 6
REMARK VINA RESULT:      -6.4      3.753      7.096
REMARK  Name = 
REMARK  4 active torsions:
REMARK  status: ('A' for Active; 'I' for Inactive)
REMARK    1  A    between atoms: C_6  and  C_8
REMARK    2  A    between atoms: C_15  and  N_16
REMARK    3  A    between atoms: N_16  and  C_17
REMARK    4  A    between atoms: C_17  and  C_18
REMARK                            x       y       z     vdW  Elec       q    Type
REMARK                         _______ _______ _______ _____ _____    ______ ____
ROOT
ATOM      1  C   UNL     1       7.258  -2.292  24.894  0.00  0.00    +0.087 A 
ATOM      2  C   UNL     1       8.501  -1.653  24.751  0.00  0.00    +0.127 A 
ATOM      3  C   UNL     1       8.867  -0.577  25.553  0.00  0.00    +0.306 A 
ATOM      4  N   UNL     1       7.849  -0.191  26.537  0.00  0.00    -0.018 N 
ATOM      5  N   UNL     1       7.843   0.751  27.445  0.00  0.00    -0.142 N 
ATOM      6  H   UNL     1       8.594   1.408  27.642  0.00  0.00    +0.238 HD
ATOM      7  C   UNL     1       6.601   0.660  28.075  0.00  0.00    +0.266 A 
ATOM      8  N   UNL     1       5.807  -0.346  27.571  0.00  0.00    -0.151 NA
ATOM      9  C   UNL     1       6.629  -0.866  26.598  0.00  0.00    +0.441 A 
ATOM     10  N   UNL     1       6.320  -1.918  25.791  0.00  0.00    -0.165 NA
ENDROOT
BRANCH   1  14
ATOM     11 BR   UNL     1       4.431  -6.826  24.511  0.00  0.00    -0.050 Br
ATOM     12  C   UNL     1       5.697  -5.593  23.839  0.00  0.00    +0.019 A 
ATOM     13  C   UNL     1       5.967  -4.421  24.552  0.00  0.00    +0.025 A 
ATOM     14  C   UNL     1       6.922  -3.494  24.091  0.00  0.00    +0.002 A 
ATOM     15  C   UNL     1       7.557  -3.779  22.866  0.00  0.00    +0.010 A 
ATOM     16  C   UNL     1       7.287  -4.954  22.157  0.00  0.00    +0.002 A 
ATOM     17  C   UNL     1       6.360  -5.867  22.648  0.00  0.00    +0.015 A 
ENDBRANCH   1  14
BRANCH   3  18
ATOM     18  N   UNL     1      10.075   0.068  25.524  0.00  0.00    -0.285 N 
ATOM     19  H   UNL     1      10.393   0.560  26.345  0.00  0.00    +0.152 HD
BRANCH  18  20
ATOM     20  C   UNL     1      10.633   0.602  24.285  0.00  0.00    +0.142 C 
BRANCH  20  21
ATOM     21  C   UNL     1       9.658   1.547  23.638  0.00  0.00    -0.027 A 
ATOM     22  C   UNL     1       9.114   1.263  22.381  0.00  0.00    +0.025 A 
ATOM     23  C   UNL     1       8.251   2.183  21.802  0.00  0.00    +0.111 A 
ATOM     24  N   UNL     1       7.901   3.348  22.386  0.00  0.00    -0.263 NA
ATOM     25  C   UNL     1       8.439   3.614  23.590  0.00  0.00    +0.111 A 
ATOM     26  C   UNL     1       9.310   2.759  24.247  0.00  0.00    +0.025 A 
ENDBRANCH  20  21
ENDBRANCH  18  20
ENDBRANCH   3  18
TORSDOF 4
ENDMDL
MODEL 7
REMARK VINA RESULT:      -6.4      2.097      3.918
REMARK  Name = 
REMARK  4 active torsions:
REMARK  status: ('A' for Active; 'I' for Inactive)
REMARK    1  A    between atoms: C_6  and  C_8
REMARK    2  A    between atoms: C_15  and  N_16
REMARK    3  A    between atoms: N_16  and  C_17
REMARK    4  A    between atoms: C_17  and  C_18
REMARK                            x       y       z     vdW  Elec       q    Type
REMARK                         _______ _______ _______ _____ _____    ______ ____
ROOT
ATOM      1  C   UNL     1       8.200  -0.795  25.827  0.00  0.00    +0.087 A 
ATOM      2  C   UNL     1       8.610  -2.134  25.722  0.00  0.00    +0.127 A 
ATOM      3  C   UNL     1       7.827  -3.178  26.206  0.00  0.00    +0.306 A 
ATOM      4  N   UNL     1       6.565  -2.746  26.818  0.00  0.00    -0.018 N 
ATOM      5  N   UNL     1       5.593  -3.432  27.364  0.00  0.00    -0.142 N 
ATOM      6  H   UNL     1       5.541  -4.443  27.451  0.00  0.00    +0.238 HD
ATOM      7  C   UNL     1       4.660  -2.487  27.793  0.00  0.00    +0.266 A 
ATOM      8  N   UNL     1       5.032  -1.190  27.521  0.00  0.00    -0.151 NA
ATOM      9  C   UNL     1       6.245  -1.390  26.901  0.00  0.00    +0.441 A 
ATOM     10  N   UNL     1       7.045  -0.405  26.408  0.00  0.00    -0.165 NA
ENDROOT
BRANCH   1  14
ATOM     11 BR   UNL     1       8.360   4.265  24.075  0.00  0.00    -0.050 Br
ATOM     12  C   UNL     1       9.167   2.583  24.375  0.00  0.00    +0.019 A 
ATOM     13  C   UNL     1       8.441   1.570  25.008  0.00  0.00    +0.025 A 
ATOM     14  C   UNL     1       9.005   0.297  25.225  0.00  0.00    +0.002 A 
ATOM     15  C   UNL     1      10.340   0.107  24.817  0.00  0.00    +0.010 A 
ATOM     16  C   UNL     1      11.063   1.122  24.181  0.00  0.00    +0.002 A 
ATOM     17  C   UNL     1      10.473   2.361  23.953  0.00  0.00    +0.015 A 
ENDBRANCH   1  14
BRANCH   3  18
ATOM     18  N   UNL     1       8.117  -4.512  26.097  0.00  0.00    -0.285 N 
ATOM     19  H   UNL     1       8.568  -4.985  26.865  0.00  0.00    +0.152 HD
BRANCH  18  20
ATOM     20  C   UNL     1       8.376  -5.141  24.806  0.00  0.00    +0.142 C 
BRANCH  20  21
ATOM     21  C   UNL     1       7.212  -4.926  23.877  0.00  0.00    -0.027 A 
ATOM     22  C   UNL     1       5.962  -5.491  24.154  0.00  0.00    +0.025 A 
ATOM     23  C   UNL     1       4.928  -5.302  23.249  0.00  0.00    +0.111 A 
ATOM     24  N   UNL     1       5.056  -4.599  22.105  0.00  0.00    -0.263 NA
ATOM     25  C   UNL     1       6.266  -4.069  21.845  0.00  0.00    +0.111 A 
ATOM     26  C   UNL     1       7.358  -4.204  22.687  0.00  0.00    +0.025 A 
ENDBRANCH  20  21
ENDBRANCH  18  20
ENDBRANCH   3  18
TORSDOF 4
ENDMDL
MODEL 8
REMARK VINA RESULT:      -6.3      3.284      7.006
REMARK  Name = 
REMARK  4 active torsions:
REMARK  status: ('A' for Active; 'I' for Inactive)
REMARK    1  A    between atoms: C_6  and  C_8
REMARK    2  A    between atoms: C_15  and  N_16
REMARK    3  A    between atoms: N_16  and  C_17
REMARK    4  A    between atoms: C_17  and  C_18
REMARK                            x       y       z     vdW  Elec       q    Type
REMARK                         _______ _______ _______ _____ _____    ______ ____
ROOT
ATOM      1  C   UNL     1       7.940  -3.155  25.393  0.00  0.00    +0.087 A 
ATOM      2  C   UNL     1       7.954  -1.923  26.069  0.00  0.00    +0.127 A 
ATOM      3  C   UNL     1       8.663  -0.830  25.582  0.00  0.00    +0.306 A 
ATOM      4  N   UNL     1       9.374  -1.090  24.324  0.00  0.00    -0.018 N 
ATOM      5  N   UNL     1      10.124  -0.315  23.583  0.00  0.00    -0.142 N 
ATOM      6  H   UNL     1      10.345   0.662  23.759  0.00  0.00    +0.238 HD
ATOM      7  C   UNL     1      10.548  -1.108  22.516  0.00  0.00    +0.266 A 
ATOM      8  N   UNL     1      10.066  -2.397  22.571  0.00  0.00    -0.151 NA
ATOM      9  C   UNL     1       9.325  -2.351  23.729  0.00  0.00    +0.441 A 
ATOM     10  N   UNL     1       8.611  -3.389  24.244  0.00  0.00    -0.165 NA
ENDROOT
BRANCH   1  14
ATOM     11 BR   UNL     1       4.194  -6.817  24.272  0.00  0.00    -0.050 Br
ATOM     12  C   UNL     1       5.382  -5.965  25.471  0.00  0.00    +0.019 A 
ATOM     13  C   UNL     1       6.225  -4.952  25.007  0.00  0.00    +0.025 A 
ATOM     14  C   UNL     1       7.105  -4.281  25.879  0.00  0.00    +0.002 A 
ATOM     15  C   UNL     1       7.126  -4.705  27.223  0.00  0.00    +0.010 A 
ATOM     16  C   UNL     1       6.278  -5.717  27.685  0.00  0.00    +0.002 A 
ATOM     17  C   UNL     1       5.399  -6.344  26.809  0.00  0.00    +0.015 A 
ENDBRANCH   1  14
BRANCH   3  18
ATOM     18  N   UNL     1       8.689   0.420  26.140  0.00  0.00    -0.285 N 
ATOM     19  H   UNL     1       9.255   0.586  26.958  0.00  0.00    +0.152 HD
BRANCH  18  20
ATOM     20  C   UNL     1       7.556   1.334  26.034  0.00  0.00    +0.142 C 
BRANCH  20  21
ATOM     21  C   UNL     1       7.549   2.003  24.686  0.00  0.00    -0.027 A 
ATOM     22  C   UNL     1       8.460   3.022  24.389  0.00  0.00    +0.025 A 
ATOM     23  C   UNL     1       8.391   3.640  23.149  0.00  0.00    +0.111 A 
ATOM     24  N   UNL     1       7.487   3.314  22.202  0.00  0.00    -0.263 NA
ATOM     25  C   UNL     1       6.610   2.339  22.503  0.00  0.00    +0.111 A 
ATOM     26  C   UNL     1       6.601   1.664  23.714  0.00  0.00    +0.025 A 
ENDBRANCH  20  21
ENDBRANCH  18  20
ENDBRANCH   3  18
TORSDOF 4
ENDMDL
MODEL 9
REMARK VINA RESULT:      -6.2      2.233      3.534
REMARK  Name = 
REMARK  4 active torsions:
REMARK  status: ('A' for Active; 'I' for Inactive)
REMARK    1  A    between atoms: C_6  and  C_8
REMARK    2  A    between atoms: C_15  and  N_16
REMARK    3  A    between atoms: N_16  and  C_17
REMARK    4  A    between atoms: C_17  and  C_18
REMARK                            x       y       z     vdW  Elec       q    Type
REMARK                         _______ _______ _______ _____ _____    ______ ____
ROOT
ATOM      1  C   UNL     1       6.967  -0.579  24.111  0.00  0.00    +0.087 A 
ATOM      2  C   UNL     1       6.577  -1.829  23.604  0.00  0.00    +0.127 A 
ATOM      3  C   UNL     1       5.536  -2.556  24.172  0.00  0.00    +0.306 A 
ATOM      4  N   UNL     1       4.905  -1.898  25.324  0.00  0.00    -0.018 N 
ATOM      5  N   UNL     1       3.913  -2.271  26.091  0.00  0.00    -0.142 N 
ATOM      6  H   UNL     1       3.372  -3.127  26.008  0.00  0.00    +0.238 HD
ATOM      7  C   UNL     1       3.764  -1.255  27.035  0.00  0.00    +0.266 A 
ATOM      8  N   UNL     1       4.662  -0.224  26.872  0.00  0.00    -0.151 NA
ATOM      9  C   UNL     1       5.370  -0.663  25.777  0.00  0.00    +0.441 A 
ATOM     10  N   UNL     1       6.392   0.011  25.182  0.00  0.00    -0.165 NA
ENDROOT
BRANCH   1  14
ATOM     11 BR   UNL     1       9.628   4.062  23.827  0.00  0.00    -0.050 Br
ATOM     12  C   UNL     1       9.265   2.312  23.211  0.00  0.00    +0.019 A 
ATOM     13  C   UNL     1       8.329   1.522  23.884  0.00  0.00    +0.025 A 
ATOM     14  C   UNL     1       8.018   0.223  23.437  0.00  0.00    +0.002 A 
ATOM     15  C   UNL     1       8.721  -0.257  22.313  0.00  0.00    +0.010 A 
ATOM     16  C   UNL     1       9.655   0.538  21.640  0.00  0.00    +0.002 A 
ATOM     17  C   UNL     1       9.923   1.828  22.086  0.00  0.00    +0.015 A 
ENDBRANCH   1  14
BRANCH   3  18
ATOM     18  N   UNL     1       5.050  -3.751  23.713  0.00  0.00    -0.285 N 
ATOM     19  H   UNL     1       4.059  -3.933  23.757  0.00  0.00    +0.152 HD
BRANCH  18  20
ATOM     20  C   UNL     1       5.856  -4.969  23.734  0.00  0.00    +0.142 C 
BRANCH  20  21
ATOM     21  C   UNL     1       6.322  -5.262  25.134  0.00  0.00    -0.027 A 
ATOM     22  C   UNL     1       5.427  -5.726  26.103  0.00  0.00    +0.025 A 
ATOM     23  C   UNL     1       5.891  -5.944  27.392  0.00  0.00    +0.111 A 
ATOM     24  N   UNL     1       7.169  -5.732  27.772  0.00  0.00    -0.263 NA
ATOM     25  C   UNL     1       8.018  -5.277  26.832  0.00  0.00    +0.111 A 
ATOM     26  C   UNL     1       7.647  -5.029  25.520  0.00  0.00    +0.025 A 
ENDBRANCH  20  21
ENDBRANCH  18  20
ENDBRANCH   3  18
TORSDOF 4
ENDMDL
