MODEL 1
REMARK VINA RESULT:      -7.2      0.000      0.000
REMARK  Name = 
REMARK  4 active torsions:
REMARK  status: ('A' for Active; 'I' for Inactive)
REMARK    1  A    between atoms: N_8  and  C_9
REMARK    2  A    between atoms: C_12  and  C_14
REMARK    3  A    between atoms: C_14  and  O_15
REMARK    4  A    between atoms: N_19  and  C_20
REMARK                            x       y       z     vdW  Elec       q    Type
REMARK                         _______ _______ _______ _____ _____    ______ ____
ROOT
ATOM      1  N   UNL     1      10.360  -5.526  25.527  0.00  0.00    -0.327 N 
ATOM      2  H   UNL     1      10.004  -6.077  26.297  0.00  0.00    +0.145 HD
ATOM      3  H   UNL     1      11.194  -4.982  25.680  0.00  0.00    +0.145 HD
ATOM      4  C   UNL     1       9.344  -4.733  25.028  0.00  0.00    +0.216 A 
ATOM      5  N   UNL     1       8.096  -5.140  25.290  0.00  0.00    -0.198 NA
ATOM      6  C   UNL     1       7.029  -4.446  24.802  0.00  0.00    +0.152 A 
ATOM      7  N   UNL     1       5.725  -4.917  25.066  0.00  0.00    -0.324 N 
ATOM      8  H   UNL     1       5.016  -4.319  24.654  0.00  0.00    +0.148 HD
ATOM      9  C   UNL     1       7.302  -3.280  24.059  0.00  0.00    +0.148 A 
ATOM     10  N   UNL     1       6.507  -2.323  23.455  0.00  0.00    -0.231 NA
ATOM     11  C   UNL     1       7.348  -1.438  22.953  0.00  0.00    +0.202 A 
ATOM     12  N   UNL     1       8.651  -1.783  23.199  0.00  0.00    -0.308 N 
ATOM     13  C   UNL     1       8.638  -2.953  23.905  0.00  0.00    +0.168 A 
ATOM     14  N   UNL     1       9.702  -3.628  24.366  0.00  0.00    -0.195 NA
ENDROOT
BRANCH  12  15
ATOM     15  C   UNL     1       9.874  -1.067  22.854  0.00  0.00    +0.113 C 
ATOM     16  C   UNL     1       9.749  -0.101  21.717  0.00  0.00    -0.006 C 
ATOM     17  C   UNL     1       9.991   1.159  22.087  0.00  0.00    -0.023 C 
ATOM     18  C   UNL     1      10.281   1.275  23.558  0.00  0.00    +0.039 C 
ATOM     19  C   UNL     1      10.403  -0.192  24.008  0.00  0.00    +0.039 C 
BRANCH  18  20
ATOM     20  C   UNL     1       9.178   2.036  24.302  0.00  0.00    +0.163 C 
BRANCH  20  21
ATOM     21  O   UNL     1       8.820   1.369  25.509  0.00  0.00    -0.394 OA
ATOM     22  H   UNL     1       9.212   1.855  26.253  0.00  0.00    +0.209 HD
ENDBRANCH  20  21
ENDBRANCH  18  20
ENDBRANCH  12  15
BRANCH   7  23
ATOM     23  C   UNL     1       5.494  -5.571  26.357  0.00  0.00    +0.072 C 
ATOM     24  C   UNL     1       4.647  -6.798  26.509  0.00  0.00    +0.024 C 
ATOM     25  C   UNL     1       4.150  -5.479  27.026  0.00  0.00    +0.024 C 
ENDBRANCH   7  23
TORSDOF 4
ENDMDL
MODEL 2
REMARK VINA RESULT:      -6.5      3.396      7.532
REMARK  Name = 
REMARK  4 active torsions:
REMARK  status: ('A' for Active; 'I' for Inactive)
REMARK    1  A    between atoms: N_8  and  C_9
REMARK    2  A    between atoms: C_12  and  C_14
REMARK    3  A    between atoms: C_14  and  O_15
REMARK    4  A    between atoms: N_19  and  C_20
REMARK                            x       y       z     vdW  Elec       q    Type
REMARK                         _______ _______ _______ _____ _____    ______ ____
ROOT
ATOM      1  N   UNL     1       7.496   2.973  25.906  0.00  0.00    -0.327 N 
ATOM      2  H   UNL     1       8.090   3.685  26.309  0.00  0.00    +0.145 HD
ATOM      3  H   UNL     1       7.102   2.281  26.524  0.00  0.00    +0.145 HD
ATOM      4  C   UNL     1       8.158   2.368  24.855  0.00  0.00    +0.216 A 
ATOM      5  N   UNL     1       9.151   3.075  24.299  0.00  0.00    -0.198 NA
ATOM      6  C   UNL     1       9.833   2.579  23.228  0.00  0.00    +0.152 A 
ATOM      7  N   UNL     1      10.852   3.360  22.643  0.00  0.00    -0.324 N 
ATOM      8  H   UNL     1      11.287   2.887  21.856  0.00  0.00    +0.148 HD
ATOM      9  C   UNL     1       9.475   1.295  22.773  0.00  0.00    +0.148 A 
ATOM     10  N   UNL     1       9.950   0.469  21.770  0.00  0.00    -0.231 NA
ATOM     11  C   UNL     1       9.240  -0.640  21.867  0.00  0.00    +0.202 A 
ATOM     12  N   UNL     1       8.323  -0.566  22.882  0.00  0.00    -0.308 N 
ATOM     13  C   UNL     1       8.462   0.660  23.470  0.00  0.00    +0.168 A 
ATOM     14  N   UNL     1       7.771   1.134  24.518  0.00  0.00    -0.195 NA
ENDROOT
BRANCH  12  15
ATOM     15  C   UNL     1       7.379  -1.576  23.345  0.00  0.00    +0.113 C 
ATOM     16  C   UNL     1       7.248  -2.780  22.465  0.00  0.00    -0.006 C 
ATOM     17  C   UNL     1       7.621  -3.905  23.078  0.00  0.00    -0.023 C 
ATOM     18  C   UNL     1       8.113  -3.656  24.477  0.00  0.00    +0.039 C 
ATOM     19  C   UNL     1       7.763  -2.175  24.713  0.00  0.00    +0.039 C 
BRANCH  18  20
ATOM     20  C   UNL     1       9.611  -3.943  24.617  0.00  0.00    +0.163 C 
BRANCH  20  21
ATOM     21  O   UNL     1       9.855  -5.338  24.773  0.00  0.00    -0.394 OA
ATOM     22  H   UNL     1       9.088  -5.734  25.219  0.00  0.00    +0.209 HD
ENDBRANCH  20  21
ENDBRANCH  18  20
ENDBRANCH  12  15
BRANCH   7  23
ATOM     23  C   UNL     1      11.643   4.213  23.534  0.00  0.00    +0.072 C 
ATOM     24  C   UNL     1      11.543   5.709  23.532  0.00  0.00    +0.024 C 
ATOM     25  C   UNL     1      12.773   5.042  22.988  0.00  0.00    +0.024 C 
ENDBRANCH   7  23
TORSDOF 4
ENDMDL
MODEL 3
REMARK VINA RESULT:      -6.4      2.668      3.787
REMARK  Name = 
REMARK  4 active torsions:
REMARK  status: ('A' for Active; 'I' for Inactive)
REMARK    1  A    between atoms: N_8  and  C_9
REMARK    2  A    between atoms: C_12  and  C_14
REMARK    3  A    between atoms: C_14  and  O_15
REMARK    4  A    between atoms: N_19  and  C_20
REMARK                            x       y       z     vdW  Elec       q    Type
REMARK                         _______ _______ _______ _____ _____    ______ ____
ROOT
ATOM      1  N   UNL     1       5.538  -6.778  26.998  0.00  0.00    -0.327 N 
ATOM      2  H   UNL     1       4.657  -7.233  27.192  0.00  0.00    +0.145 HD
ATOM      3  H   UNL     1       5.927  -6.176  27.706  0.00  0.00    +0.145 HD
ATOM      4  C   UNL     1       5.452  -6.115  25.788  0.00  0.00    +0.216 A 
ATOM      5  N   UNL     1       4.502  -6.545  24.948  0.00  0.00    -0.198 NA
ATOM      6  C   UNL     1       4.369  -5.981  23.714  0.00  0.00    +0.152 A 
ATOM      7  N   UNL     1       3.381  -6.476  22.837  0.00  0.00    -0.324 N 
ATOM      8  H   UNL     1       3.376  -5.979  21.951  0.00  0.00    +0.148 HD
ATOM      9  C   UNL     1       5.236  -4.918  23.392  0.00  0.00    +0.148 A 
ATOM     10  N   UNL     1       5.374  -4.098  22.288  0.00  0.00    -0.231 NA
ATOM     11  C   UNL     1       6.335  -3.249  22.602  0.00  0.00    +0.202 A 
ATOM     12  N   UNL     1       6.831  -3.489  23.857  0.00  0.00    -0.308 N 
ATOM     13  C   UNL     1       6.139  -4.548  24.373  0.00  0.00    +0.168 A 
ATOM     14  N   UNL     1       6.294  -5.097  25.588  0.00  0.00    -0.195 NA
ENDROOT
BRANCH  12  15
ATOM     15  C   UNL     1       7.862  -2.767  24.592  0.00  0.00    +0.113 C 
ATOM     16  C   UNL     1       9.266  -3.216  24.333  0.00  0.00    -0.006 C 
ATOM     17  C   UNL     1      10.018  -2.257  23.790  0.00  0.00    -0.023 C 
ATOM     18  C   UNL     1       9.241  -0.993  23.544  0.00  0.00    +0.039 C 
ATOM     19  C   UNL     1       7.900  -1.264  24.251  0.00  0.00    +0.039 C 
BRANCH  18  20
ATOM     20  C   UNL     1       9.076  -0.703  22.049  0.00  0.00    +0.163 C 
BRANCH  20  21
ATOM     21  O   UNL     1       9.947  -1.516  21.269  0.00  0.00    -0.394 OA
ATOM     22  H   UNL     1      10.086  -1.081  20.411  0.00  0.00    +0.209 HD
ENDBRANCH  20  21
ENDBRANCH  18  20
ENDBRANCH  12  15
BRANCH   7  23
ATOM     23  C   UNL     1       2.130  -6.954  23.433  0.00  0.00    +0.072 C 
ATOM     24  C   UNL     1       1.828  -8.408  23.638  0.00  0.00    +0.024 C 
ATOM     25  C   UNL     1       1.094  -7.635  22.581  0.00  0.00    +0.024 C 
ENDBRANCH   7  23
TORSDOF 4
ENDMDL
MODEL 4
REMARK VINA RESULT:      -6.4      2.503      3.254
REMARK  Name = 
REMARK  4 active torsions:
REMARK  status: ('A' for Active; 'I' for Inactive)
REMARK    1  A    between atoms: N_8  and  C_9
REMARK    2  A    between atoms: C_12  and  C_14
REMARK    3  A    between atoms: C_14  and  O_15
REMARK    4  A    between atoms: N_19  and  C_20
REMARK                            x       y       z     vdW  Elec       q    Type
REMARK                         _______ _______ _______ _____ _____    ______ ____
ROOT
ATOM      1  N   UNL     1       7.016  -2.833  26.596  0.00  0.00    -0.327 N 
ATOM      2  H   UNL     1       6.234  -3.458  26.460  0.00  0.00    +0.145 HD
ATOM      3  H   UNL     1       6.861  -1.988  27.122  0.00  0.00    +0.145 HD
ATOM      4  C   UNL     1       7.591  -2.548  25.372  0.00  0.00    +0.216 A 
ATOM      5  N   UNL     1       7.354  -3.429  24.392  0.00  0.00    -0.198 NA
ATOM      6  C   UNL     1       7.914  -3.255  23.161  0.00  0.00    +0.152 A 
ATOM      7  N   UNL     1       7.674  -4.217  22.156  0.00  0.00    -0.324 N 
ATOM      8  H   UNL     1       8.141  -3.980  21.286  0.00  0.00    +0.148 HD
ATOM      9  C   UNL     1       8.703  -2.104  22.967  0.00  0.00    +0.148 A 
ATOM     10  N   UNL     1       9.382  -1.582  21.882  0.00  0.00    -0.231 NA
ATOM     11  C   UNL     1       9.896  -0.443  22.307  0.00  0.00    +0.202 A 
ATOM     12  N   UNL     1       9.587  -0.208  23.621  0.00  0.00    -0.308 N 
ATOM     13  C   UNL     1       8.825  -1.257  24.054  0.00  0.00    +0.168 A 
ATOM     14  N   UNL     1       8.293  -1.415  25.276  0.00  0.00    -0.195 NA
ENDROOT
BRANCH  12  15
ATOM     15  C   UNL     1       9.923   0.940  24.454  0.00  0.00    +0.113 C 
ATOM     16  C   UNL     1      10.948   1.867  23.882  0.00  0.00    -0.006 C 
ATOM     17  C   UNL     1      10.467   3.094  23.669  0.00  0.00    -0.023 C 
ATOM     18  C   UNL     1       9.010   3.204  24.021  0.00  0.00    +0.039 C 
ATOM     19  C   UNL     1       8.716   1.863  24.719  0.00  0.00    +0.039 C 
BRANCH  18  20
ATOM     20  C   UNL     1       8.136   3.434  22.784  0.00  0.00    +0.163 C 
BRANCH  20  21
ATOM     21  O   UNL     1       8.688   2.792  21.639  0.00  0.00    -0.394 OA
ATOM     22  H   UNL     1       8.872   1.866  21.867  0.00  0.00    +0.209 HD
ENDBRANCH  20  21
ENDBRANCH  18  20
ENDBRANCH  12  15
BRANCH   7  23
ATOM     23  C   UNL     1       6.361  -4.868  22.148  0.00  0.00    +0.072 C 
ATOM     24  C   UNL     1       6.165  -6.309  22.514  0.00  0.00    +0.024 C 
ATOM     25  C   UNL     1       6.020  -5.875  21.084  0.00  0.00    +0.024 C 
ENDBRANCH   7  23
TORSDOF 4
ENDMDL
MODEL 5
REMARK VINA RESULT:      -6.3      1.945      2.203
REMARK  Name = 
REMARK  4 active torsions:
REMARK  status: ('A' for Active; 'I' for Inactive)
REMARK    1  A    between atoms: N_8  and  C_9
REMARK    2  A    between atoms: C_12  and  C_14
REMARK    3  A    between atoms: C_14  and  O_15
REMARK    4  A    between atoms: N_19  and  C_20
REMARK                            x       y       z     vdW  Elec       q    Type
REMARK                         _______ _______ _______ _____ _____    ______ ____
ROOT
ATOM      1  N   UNL     1       7.943  -5.681  27.115  0.00  0.00    -0.327 N 
ATOM      2  H   UNL     1       7.178  -6.159  27.572  0.00  0.00    +0.145 HD
ATOM      3  H   UNL     1       8.420  -4.955  27.625  0.00  0.00    +0.145 HD
ATOM      4  C   UNL     1       7.520  -5.215  25.885  0.00  0.00    +0.216 A 
ATOM      5  N   UNL     1       6.452  -5.829  25.359  0.00  0.00    -0.198 NA
ATOM      6  C   UNL     1       5.988  -5.468  24.129  0.00  0.00    +0.152 A 
ATOM      7  N   UNL     1       4.881  -6.154  23.586  0.00  0.00    -0.324 N 
ATOM      8  H   UNL     1       4.626  -5.797  22.669  0.00  0.00    +0.148 HD
ATOM      9  C   UNL     1       6.649  -4.411  23.474  0.00  0.00    +0.148 A 
ATOM     10  N   UNL     1       6.450  -3.759  22.271  0.00  0.00    -0.231 NA
ATOM     11  C   UNL     1       7.369  -2.811  22.232  0.00  0.00    +0.202 A 
ATOM     12  N   UNL     1       8.157  -2.825  23.353  0.00  0.00    -0.308 N 
ATOM     13  C   UNL     1       7.709  -3.838  24.154  0.00  0.00    +0.168 A 
ATOM     14  N   UNL     1       8.189  -4.185  25.358  0.00  0.00    -0.195 NA
ENDROOT
BRANCH  12  15
ATOM     15  C   UNL     1       9.250  -1.934  23.721  0.00  0.00    +0.113 C 
ATOM     16  C   UNL     1      10.189  -1.582  22.610  0.00  0.00    -0.006 C 
ATOM     17  C   UNL     1      10.194  -0.276  22.337  0.00  0.00    -0.023 C 
ATOM     18  C   UNL     1       9.220   0.488  23.191  0.00  0.00    +0.039 C 
ATOM     19  C   UNL     1       8.761  -0.560  24.222  0.00  0.00    +0.039 C 
BRANCH  18  20
ATOM     20  C   UNL     1       8.061   1.060  22.369  0.00  0.00    +0.163 C 
BRANCH  20  21
ATOM     21  O   UNL     1       8.516   1.546  21.110  0.00  0.00    -0.394 OA
ATOM     22  H   UNL     1       8.991   0.829  20.659  0.00  0.00    +0.209 HD
ENDBRANCH  20  21
ENDBRANCH  18  20
ENDBRANCH  12  15
BRANCH   7  23
ATOM     23  C   UNL     1       3.851  -6.618  24.519  0.00  0.00    +0.072 C 
ATOM     24  C   UNL     1       2.724  -7.517  24.109  0.00  0.00    +0.024 C 
ATOM     25  C   UNL     1       2.450  -6.078  24.436  0.00  0.00    +0.024 C 
ENDBRANCH   7  23
TORSDOF 4
ENDMDL
MODEL 6
REMARK VINA RESULT:      -6.2      3.290      6.552
REMARK  Name = 
REMARK  4 active torsions:
REMARK  status: ('A' for Active; 'I' for Inactive)
REMARK    1  A    between atoms: N_8  and  C_9
REMARK    2  A    between atoms: C_12  and  C_14
REMARK    3  A    between atoms: C_14  and  O_15
REMARK    4  A    between atoms: N_19  and  C_20
REMARK                            x       y       z     vdW  Elec       q    Type
REMARK                         _______ _______ _______ _____ _____    ______ ____
ROOT
ATOM      1  N   UNL     1       9.449   1.796  21.402  0.00  0.00    -0.327 N 
ATOM      2  H   UNL     1       9.062   2.606  20.937  0.00  0.00    +0.145 HD
ATOM      3  H   UNL     1       9.943   1.120  20.843  0.00  0.00    +0.145 HD
ATOM      4  C   UNL     1       8.461   1.184  22.149  0.00  0.00    +0.216 A 
ATOM      5  N   UNL     1       7.416   1.951  22.485  0.00  0.00    -0.198 NA
ATOM      6  C   UNL     1       6.412   1.446  23.257  0.00  0.00    +0.152 A 
ATOM      7  N   UNL     1       5.339   2.287  23.623  0.00  0.00    -0.324 N 
ATOM      8  H   UNL     1       4.655   1.802  24.196  0.00  0.00    +0.148 HD
ATOM      9  C   UNL     1       6.509   0.094  23.640  0.00  0.00    +0.148 A 
ATOM     10  N   UNL     1       5.694  -0.754  24.367  0.00  0.00    -0.231 NA
ATOM     11  C   UNL     1       6.302  -1.926  24.343  0.00  0.00    +0.202 A 
ATOM     12  N   UNL     1       7.476  -1.872  23.639  0.00  0.00    -0.308 N 
ATOM     13  C   UNL     1       7.621  -0.592  23.184  0.00  0.00    +0.168 A 
ATOM     14  N   UNL     1       8.624  -0.112  22.434  0.00  0.00    -0.195 NA
ENDROOT
BRANCH  12  15
ATOM     15  C   UNL     1       8.422  -2.942  23.343  0.00  0.00    +0.113 C 
ATOM     16  C   UNL     1       9.581  -3.049  24.284  0.00  0.00    -0.006 C 
ATOM     17  C   UNL     1       9.602  -4.211  24.940  0.00  0.00    -0.023 C 
ATOM     18  C   UNL     1       8.430  -5.085  24.590  0.00  0.00    +0.039 C 
ATOM     19  C   UNL     1       7.781  -4.343  23.407  0.00  0.00    +0.039 C 
BRANCH  18  20
ATOM     20  C   UNL     1       7.474  -5.266  25.774  0.00  0.00    +0.163 C 
BRANCH  20  21
ATOM     21  O   UNL     1       8.155  -5.802  26.905  0.00  0.00    -0.394 OA
ATOM     22  H   UNL     1       7.490  -6.125  27.536  0.00  0.00    +0.209 HD
ENDBRANCH  20  21
ENDBRANCH  18  20
ENDBRANCH  12  15
BRANCH   7  23
ATOM     23  C   UNL     1       4.918   3.302  22.653  0.00  0.00    +0.072 C 
ATOM     24  C   UNL     1       5.127   4.771  22.866  0.00  0.00    +0.024 C 
ATOM     25  C   UNL     1       3.744   4.194  22.947  0.00  0.00    +0.024 C 
ENDBRANCH   7  23
TORSDOF 4
ENDMDL
MODEL 7
REMARK VINA RESULT:      -6.1      1.786      2.003
REMARK  Name = 
REMARK  4 active torsions:
REMARK  status: ('A' for Active; 'I' for Inactive)
REMARK    1  A    between atoms: N_8  and  C_9
REMARK    2  A    between atoms: C_12  and  C_14
REMARK    3  A    between atoms: C_14  and  O_15
REMARK    4  A    between atoms: N_19  and  C_20
REMARK                            x       y       z     vdW  Elec       q    Type
REMARK                         _______ _______ _______ _____ _____    ______ ____
ROOT
ATOM      1  N   UNL     1       7.801  -5.769  22.942  0.00  0.00    -0.327 N 
ATOM      2  H   UNL     1       7.588  -6.630  23.427  0.00  0.00    +0.145 HD
ATOM      3  H   UNL     1       8.595  -5.758  22.322  0.00  0.00    +0.145 HD
ATOM      4  C   UNL     1       7.884  -4.738  23.858  0.00  0.00    +0.216 A 
ATOM      5  N   UNL     1       7.258  -4.936  25.025  0.00  0.00    -0.198 NA
ATOM      6  C   UNL     1       7.248  -3.958  25.975  0.00  0.00    +0.152 A 
ATOM      7  N   UNL     1       6.552  -4.181  27.182  0.00  0.00    -0.324 N 
ATOM      8  H   UNL     1       6.616  -3.385  27.810  0.00  0.00    +0.148 HD
ATOM      9  C   UNL     1       7.951  -2.771  25.688  0.00  0.00    +0.148 A 
ATOM     10  N   UNL     1       8.193  -1.608  26.396  0.00  0.00    -0.231 NA
ATOM     11  C   UNL     1       8.966  -0.878  25.613  0.00  0.00    +0.202 A 
ATOM     12  N   UNL     1       9.229  -1.514  24.428  0.00  0.00    -0.308 N 
ATOM     13  C   UNL     1       8.591  -2.722  24.462  0.00  0.00    +0.168 A 
ATOM     14  N   UNL     1       8.603  -3.666  23.509  0.00  0.00    -0.195 NA
ENDROOT
BRANCH  12  15
ATOM     15  C   UNL     1      10.061  -1.076  23.314  0.00  0.00    +0.113 C 
ATOM     16  C   UNL     1       9.346  -0.899  22.011  0.00  0.00    -0.006 C 
ATOM     17  C   UNL     1       9.381   0.361  21.574  0.00  0.00    -0.023 C 
ATOM     18  C   UNL     1      10.095   1.277  22.530  0.00  0.00    +0.039 C 
ATOM     19  C   UNL     1      10.708   0.303  23.554  0.00  0.00    +0.039 C 
BRANCH  18  20
ATOM     20  C   UNL     1       9.144   2.292  23.171  0.00  0.00    +0.163 C 
BRANCH  20  21
ATOM     21  O   UNL     1       9.553   3.627  22.887  0.00  0.00    -0.394 OA
ATOM     22  H   UNL     1       8.806   4.095  22.479  0.00  0.00    +0.209 HD
ENDBRANCH  20  21
ENDBRANCH  18  20
ENDBRANCH  12  15
BRANCH   7  23
ATOM     23  C   UNL     1       6.538  -5.549  27.708  0.00  0.00    +0.072 C 
ATOM     24  C   UNL     1       5.310  -6.409  27.709  0.00  0.00    +0.024 C 
ATOM     25  C   UNL     1       5.837  -5.859  29.002  0.00  0.00    +0.024 C 
ENDBRANCH   7  23
TORSDOF 4
ENDMDL
MODEL 8
REMARK VINA RESULT:      -6.1      2.308      2.458
REMARK  Name = 
REMARK  4 active torsions:
REMARK  status: ('A' for Active; 'I' for Inactive)
REMARK    1  A    between atoms: N_8  and  C_9
REMARK    2  A    between atoms: C_12  and  C_14
REMARK    3  A    between atoms: C_14  and  O_15
REMARK    4  A    between atoms: N_19  and  C_20
REMARK                            x       y       z     vdW  Elec       q    Type
REMARK                         _______ _______ _______ _____ _____    ______ ____
ROOT
ATOM      1  N   UNL     1       6.724  -5.766  21.300  0.00  0.00    -0.327 N 
ATOM      2  H   UNL     1       6.238  -6.561  21.693  0.00  0.00    +0.145 HD
ATOM      3  H   UNL     1       7.710  -5.859  21.116  0.00  0.00    +0.145 HD
ATOM      4  C   UNL     1       6.474  -4.649  22.074  0.00  0.00    +0.216 A 
ATOM      5  N   UNL     1       5.372  -4.693  22.833  0.00  0.00    -0.198 NA
ATOM      6  C   UNL     1       5.020  -3.621  23.597  0.00  0.00    +0.152 A 
ATOM      7  N   UNL     1       3.835  -3.683  24.361  0.00  0.00    -0.324 N 
ATOM      8  H   UNL     1       3.679  -2.828  24.888  0.00  0.00    +0.148 HD
ATOM      9  C   UNL     1       5.880  -2.505  23.581  0.00  0.00    +0.148 A 
ATOM     10  N   UNL     1       5.878  -1.287  24.234  0.00  0.00    -0.231 NA
ATOM     11  C   UNL     1       6.984  -0.680  23.843  0.00  0.00    +0.202 A 
ATOM     12  N   UNL     1       7.698  -1.449  22.962  0.00  0.00    -0.308 N 
ATOM     13  C   UNL     1       7.008  -2.616  22.787  0.00  0.00    +0.168 A 
ATOM     14  N   UNL     1       7.367  -3.655  22.018  0.00  0.00    -0.195 NA
ENDROOT
BRANCH  12  15
ATOM     15  C   UNL     1       8.981  -1.171  22.328  0.00  0.00    +0.113 C 
ATOM     16  C   UNL     1       9.046   0.105  21.549  0.00  0.00    -0.006 C 
ATOM     17  C   UNL     1       9.939   0.964  22.046  0.00  0.00    -0.023 C 
ATOM     18  C   UNL     1      10.610   0.435  23.284  0.00  0.00    +0.039 C 
ATOM     19  C   UNL     1      10.133  -1.028  23.343  0.00  0.00    +0.039 C 
BRANCH  18  20
ATOM     20  C   UNL     1      10.227   1.237  24.532  0.00  0.00    +0.163 C 
BRANCH  20  21
ATOM     21  O   UNL     1       9.968   0.374  25.636  0.00  0.00    -0.394 OA
ATOM     22  H   UNL     1      10.413  -0.474  25.472  0.00  0.00    +0.209 HD
ENDBRANCH  20  21
ENDBRANCH  18  20
ENDBRANCH  12  15
BRANCH   7  23
ATOM     23  C   UNL     1       3.461  -4.985  24.920  0.00  0.00    +0.072 C 
ATOM     24  C   UNL     1       2.292  -5.780  24.421  0.00  0.00    +0.024 C 
ATOM     25  C   UNL     1       2.227  -5.122  25.768  0.00  0.00    +0.024 C 
ENDBRANCH   7  23
TORSDOF 4
ENDMDL
MODEL 9
REMARK VINA RESULT:      -6.1      2.569      6.954
REMARK  Name = 
REMARK  4 active torsions:
REMARK  status: ('A' for Active; 'I' for Inactive)
REMARK    1  A    between atoms: N_8  and  C_9
REMARK    2  A    between atoms: C_12  and  C_14
REMARK    3  A    between atoms: C_14  and  O_15
REMARK    4  A    between atoms: N_19  and  C_20
REMARK                            x       y       z     vdW  Elec       q    Type
REMARK                         _______ _______ _______ _____ _____    ______ ____
ROOT
ATOM      1  N   UNL     1      10.197  -5.443  25.620  0.00  0.00    -0.327 N 
ATOM      2  H   UNL     1      10.978  -5.097  25.080  0.00  0.00    +0.145 HD
ATOM      3  H   UNL     1      10.021  -6.435  25.616  0.00  0.00    +0.145 HD
ATOM      4  C   UNL     1       9.057  -4.744  25.274  0.00  0.00    +0.216 A 
ATOM      5  N   UNL     1       9.250  -3.543  24.714  0.00  0.00    -0.198 NA
ATOM      6  C   UNL     1       8.185  -2.761  24.378  0.00  0.00    +0.152 A 
ATOM      7  N   UNL     1       8.419  -1.486  23.820  0.00  0.00    -0.324 N 
ATOM      8  H   UNL     1       7.553  -0.999  23.611  0.00  0.00    +0.148 HD
ATOM      9  C   UNL     1       6.899  -3.289  24.607  0.00  0.00    +0.148 A 
ATOM     10  N   UNL     1       5.619  -2.824  24.368  0.00  0.00    -0.231 NA
ATOM     11  C   UNL     1       4.817  -3.798  24.754  0.00  0.00    +0.202 A 
ATOM     12  N   UNL     1       5.520  -4.870  25.239  0.00  0.00    -0.308 N 
ATOM     13  C   UNL     1       6.848  -4.561  25.149  0.00  0.00    +0.168 A 
ATOM     14  N   UNL     1       7.882  -5.341  25.497  0.00  0.00    -0.195 NA
ENDROOT
BRANCH  12  15
ATOM     15  C   UNL     1       5.024  -6.151  25.727  0.00  0.00    +0.113 C 
ATOM     16  C   UNL     1       3.795  -6.080  26.577  0.00  0.00    -0.006 C 
ATOM     17  C   UNL     1       2.758  -6.720  26.033  0.00  0.00    -0.023 C 
ATOM     18  C   UNL     1       3.092  -7.306  24.689  0.00  0.00    +0.039 C 
ATOM     19  C   UNL     1       4.615  -7.109  24.589  0.00  0.00    +0.039 C 
BRANCH  18  20
ATOM     20  C   UNL     1       2.327  -6.615  23.555  0.00  0.00    +0.163 C 
BRANCH  20  21
ATOM     21  O   UNL     1       3.210  -6.213  22.512  0.00  0.00    -0.394 OA
ATOM     22  H   UNL     1       2.750  -5.560  21.958  0.00  0.00    +0.209 HD
ENDBRANCH  20  21
ENDBRANCH  18  20
ENDBRANCH  12  15
BRANCH   7  23
ATOM     23  C   UNL     1       9.590  -1.336  22.951  0.00  0.00    +0.072 C 
ATOM     24  C   UNL     1      10.294  -0.027  22.751  0.00  0.00    +0.024 C 
ATOM     25  C   UNL     1       9.475  -0.612  21.638  0.00  0.00    +0.024 C 
ENDBRANCH   7  23
TORSDOF 4
ENDMDL
