MODEL 1
REMARK VINA RESULT:      -5.9      0.000      0.000
REMARK  Name = 
REMARK  5 active torsions:
REMARK  status: ('A' for Active; 'I' for Inactive)
REMARK    1  A    between atoms: C_1  and  C_2
REMARK    2  A    between atoms: C_2  and  O_3
REMARK    3  A    between atoms: O_3  and  C_4
REMARK    4  A    between atoms: C_11  and  S_13
REMARK    5  A    between atoms: S_13  and  N_14
REMARK                            x       y       z     vdW  Elec       q    Type
REMARK                         _______ _______ _______ _____ _____    ______ ____
ROOT
ATOM      1  C   UNL     1       8.539   0.684  22.069  0.00  0.00    +0.122 A 
ATOM      2  C   UNL     1       9.767   0.158  21.673  0.00  0.00    +0.048 A 
ATOM      3  C   UNL     1      10.238  -1.061  22.194  0.00  0.00    +0.032 A 
ATOM      4  C   UNL     1       9.461  -1.765  23.139  0.00  0.00    +0.081 A 
ATOM      5  N   UNL     1       9.788  -2.961  23.769  0.00  0.00    -0.221 NA
ATOM      6  C   UNL     1       8.806  -3.286  24.591  0.00  0.00    +0.233 A 
ATOM      7  S   UNL     1       7.460  -2.251  24.652  0.00  0.00    -0.047 S 
ATOM      8  C   UNL     1       8.225  -1.225  23.510  0.00  0.00    +0.044 A 
ATOM      9  C   UNL     1       7.749  -0.016  22.985  0.00  0.00    +0.063 A 
ENDROOT
BRANCH   6  10
ATOM     10  S   UNL     1       8.765  -4.708  25.657  0.00  0.00    +0.080 S 
ATOM     11  O   UNL     1       7.596  -5.463  25.262  0.00  0.00    -0.151 OA
ATOM     12  O   UNL     1       8.966  -4.204  26.996  0.00  0.00    -0.151 OA
BRANCH  10  13
ATOM     13  N   UNL     1      10.108  -5.658  25.281  0.00  0.00    -0.202 NA
ATOM     14  H   UNL     1       9.849  -6.644  25.250  0.00  0.00    +0.144 HD
ATOM     15  H   UNL     1      10.548  -5.330  24.421  0.00  0.00    +0.144 HD
ENDBRANCH  10  13
ENDBRANCH   6  10
BRANCH   1  16
ATOM     16  O   UNL     1       8.189   1.893  21.514  0.00  0.00    -0.492 OA
BRANCH  16  18
ATOM     17  C   UNL     1       7.234   3.990  22.240  0.00  0.00    +0.048 C 
ATOM     18  C   UNL     1       7.016   2.502  22.063  0.00  0.00    +0.225 C 
ENDBRANCH  16  18
ENDBRANCH   1  16
TORSDOF 4
ENDMDL
MODEL 2
REMARK VINA RESULT:      -5.8      1.504      1.546
REMARK  Name = 
REMARK  5 active torsions:
REMARK  status: ('A' for Active; 'I' for Inactive)
REMARK    1  A    between atoms: C_1  and  C_2
REMARK    2  A    between atoms: C_2  and  O_3
REMARK    3  A    between atoms: O_3  and  C_4
REMARK    4  A    between atoms: C_11  and  S_13
REMARK    5  A    between atoms: S_13  and  N_14
REMARK                            x       y       z     vdW  Elec       q    Type
REMARK                         _______ _______ _______ _____ _____    ______ ____
ROOT
ATOM      1  C   UNL     1       9.268   1.186  22.897  0.00  0.00    +0.122 A 
ATOM      2  C   UNL     1       9.886   0.399  21.927  0.00  0.00    +0.048 A 
ATOM      3  C   UNL     1      10.007  -0.993  22.089  0.00  0.00    +0.032 A 
ATOM      4  C   UNL     1       9.501  -1.608  23.255  0.00  0.00    +0.081 A 
ATOM      5  N   UNL     1       9.561  -2.959  23.583  0.00  0.00    -0.221 NA
ATOM      6  C   UNL     1       8.986  -3.131  24.760  0.00  0.00    +0.233 A 
ATOM      7  S   UNL     1       8.331  -1.762  25.520  0.00  0.00    -0.047 S 
ATOM      8  C   UNL     1       8.871  -0.800  24.206  0.00  0.00    +0.044 A 
ATOM      9  C   UNL     1       8.740   0.586  24.043  0.00  0.00    +0.063 A 
ENDROOT
BRANCH   6  10
ATOM     10  S   UNL     1       8.843  -4.672  25.636  0.00  0.00    +0.080 S 
ATOM     11  O   UNL     1       7.743  -5.377  25.016  0.00  0.00    -0.151 OA
ATOM     12  O   UNL     1       8.874  -4.332  27.040  0.00  0.00    -0.151 OA
BRANCH  10  13
ATOM     13  N   UNL     1      10.238  -5.565  25.313  0.00  0.00    -0.202 NA
ATOM     14  H   UNL     1      11.056  -4.956  25.307  0.00  0.00    +0.144 HD
ATOM     15  H   UNL     1      10.322  -6.346  25.964  0.00  0.00    +0.144 HD
ENDBRANCH  10  13
ENDBRANCH   6  10
BRANCH   1  16
ATOM     16  O   UNL     1       9.227   2.537  22.646  0.00  0.00    -0.492 OA
BRANCH  16  18
ATOM     17  C   UNL     1      11.209   3.684  23.417  0.00  0.00    +0.048 C 
ATOM     18  C   UNL     1       9.752   3.369  23.686  0.00  0.00    +0.225 C 
ENDBRANCH  16  18
ENDBRANCH   1  16
TORSDOF 4
ENDMDL
MODEL 3
REMARK VINA RESULT:      -5.7      2.602      2.810
REMARK  Name = 
REMARK  5 active torsions:
REMARK  status: ('A' for Active; 'I' for Inactive)
REMARK    1  A    between atoms: C_1  and  C_2
REMARK    2  A    between atoms: C_2  and  O_3
REMARK    3  A    between atoms: O_3  and  C_4
REMARK    4  A    between atoms: C_11  and  S_13
REMARK    5  A    between atoms: S_13  and  N_14
REMARK                            x       y       z     vdW  Elec       q    Type
REMARK                         _______ _______ _______ _____ _____    ______ ____
ROOT
ATOM      1  C   UNL     1      10.013   2.343  23.346  0.00  0.00    +0.122 A 
ATOM      2  C   UNL     1      10.043   1.809  22.059  0.00  0.00    +0.048 A 
ATOM      3  C   UNL     1       9.807   0.440  21.833  0.00  0.00    +0.032 A 
ATOM      4  C   UNL     1       9.541  -0.413  22.926  0.00  0.00    +0.081 A 
ATOM      5  N   UNL     1       9.313  -1.785  22.882  0.00  0.00    -0.221 NA
ATOM      6  C   UNL     1       9.114  -2.217  24.115  0.00  0.00    +0.233 A 
ATOM      7  S   UNL     1       9.151  -1.068  25.364  0.00  0.00    -0.047 S 
ATOM      8  C   UNL     1       9.501   0.148  24.206  0.00  0.00    +0.044 A 
ATOM      9  C   UNL     1       9.725   1.513  24.433  0.00  0.00    +0.063 A 
ENDROOT
BRANCH   6  10
ATOM     10  S   UNL     1       8.822  -3.905  24.594  0.00  0.00    +0.080 S 
ATOM     11  O   UNL     1      10.127  -4.521  24.680  0.00  0.00    -0.151 OA
ATOM     12  O   UNL     1       7.774  -4.386  23.723  0.00  0.00    -0.151 OA
BRANCH  10  13
ATOM     13  N   UNL     1       8.190  -3.881  26.159  0.00  0.00    -0.202 NA
ATOM     14  H   UNL     1       7.178  -3.757  26.132  0.00  0.00    +0.144 HD
ATOM     15  H   UNL     1       8.481  -4.711  26.675  0.00  0.00    +0.144 HD
ENDBRANCH  10  13
ENDBRANCH   6  10
BRANCH   1  16
ATOM     16  O   UNL     1      10.282   3.687  23.451  0.00  0.00    -0.492 OA
BRANCH  16  18
ATOM     17  C   UNL     1      11.834   5.537  23.539  0.00  0.00    +0.048 C 
ATOM     18  C   UNL     1      11.663   4.045  23.335  0.00  0.00    +0.225 C 
ENDBRANCH  16  18
ENDBRANCH   1  16
TORSDOF 4
ENDMDL
MODEL 4
REMARK VINA RESULT:      -5.5      2.480      3.050
REMARK  Name = 
REMARK  5 active torsions:
REMARK  status: ('A' for Active; 'I' for Inactive)
REMARK    1  A    between atoms: C_1  and  C_2
REMARK    2  A    between atoms: C_2  and  O_3
REMARK    3  A    between atoms: O_3  and  C_4
REMARK    4  A    between atoms: C_11  and  S_13
REMARK    5  A    between atoms: S_13  and  N_14
REMARK                            x       y       z     vdW  Elec       q    Type
REMARK                         _______ _______ _______ _____ _____    ______ ____
ROOT
ATOM      1  C   UNL     1       9.306  -1.498  23.024  0.00  0.00    +0.122 A 
ATOM      2  C   UNL     1       8.323  -2.002  22.174  0.00  0.00    +0.048 A 
ATOM      3  C   UNL     1       7.368  -2.927  22.634  0.00  0.00    +0.032 A 
ATOM      4  C   UNL     1       7.405  -3.362  23.977  0.00  0.00    +0.081 A 
ATOM      5  N   UNL     1       6.558  -4.285  24.583  0.00  0.00    -0.221 NA
ATOM      6  C   UNL     1       6.926  -4.428  25.843  0.00  0.00    +0.233 A 
ATOM      7  S   UNL     1       8.233  -3.491  26.390  0.00  0.00    -0.047 S 
ATOM      8  C   UNL     1       8.390  -2.831  24.815  0.00  0.00    +0.044 A 
ATOM      9  C   UNL     1       9.337  -1.901  24.362  0.00  0.00    +0.063 A 
ENDROOT
BRANCH   6  10
ATOM     10  S   UNL     1       6.184  -5.526  27.028  0.00  0.00    +0.080 S 
ATOM     11  O   UNL     1       5.619  -6.613  26.258  0.00  0.00    -0.151 OA
ATOM     12  O   UNL     1       5.400  -4.688  27.907  0.00  0.00    -0.151 OA
BRANCH  10  13
ATOM     13  N   UNL     1       7.431  -6.183  27.956  0.00  0.00    -0.202 NA
ATOM     14  H   UNL     1       7.052  -6.672  28.766  0.00  0.00    +0.144 HD
ATOM     15  H   UNL     1       8.037  -6.766  27.380  0.00  0.00    +0.144 HD
ENDBRANCH  10  13
ENDBRANCH   6  10
BRANCH   1  16
ATOM     16  O   UNL     1      10.201  -0.619  22.463  0.00  0.00    -0.492 OA
BRANCH  16  18
ATOM     17  C   UNL     1      10.011   1.753  22.041  0.00  0.00    +0.048 C 
ATOM     18  C   UNL     1       9.631   0.359  21.586  0.00  0.00    +0.225 C 
ENDBRANCH  16  18
ENDBRANCH   1  16
TORSDOF 4
ENDMDL
MODEL 5
REMARK VINA RESULT:      -5.4      2.952      6.008
REMARK  Name = 
REMARK  5 active torsions:
REMARK  status: ('A' for Active; 'I' for Inactive)
REMARK    1  A    between atoms: C_1  and  C_2
REMARK    2  A    between atoms: C_2  and  O_3
REMARK    3  A    between atoms: O_3  and  C_4
REMARK    4  A    between atoms: C_11  and  S_13
REMARK    5  A    between atoms: S_13  and  N_14
REMARK                            x       y       z     vdW  Elec       q    Type
REMARK                         _______ _______ _______ _____ _____    ______ ____
ROOT
ATOM      1  C   UNL     1       7.329  -4.159  23.851  0.00  0.00    +0.122 A 
ATOM      2  C   UNL     1       8.635  -4.336  24.306  0.00  0.00    +0.048 A 
ATOM      3  C   UNL     1       9.532  -3.255  24.381  0.00  0.00    +0.032 A 
ATOM      4  C   UNL     1       9.110  -1.967  23.986  0.00  0.00    +0.081 A 
ATOM      5  N   UNL     1       9.872  -0.803  23.972  0.00  0.00    -0.221 NA
ATOM      6  C   UNL     1       9.119   0.186  23.527  0.00  0.00    +0.233 A 
ATOM      7  S   UNL     1       7.506  -0.171  23.135  0.00  0.00    -0.047 S 
ATOM      8  C   UNL     1       7.791  -1.811  23.548  0.00  0.00    +0.044 A 
ATOM      9  C   UNL     1       6.892  -2.885  23.482  0.00  0.00    +0.063 A 
ENDROOT
BRANCH   6  10
ATOM     10  S   UNL     1       9.642   1.869  23.285  0.00  0.00    +0.080 S 
ATOM     11  O   UNL     1      10.917   1.985  23.958  0.00  0.00    -0.151 OA
ATOM     12  O   UNL     1       8.497   2.689  23.610  0.00  0.00    -0.151 OA
BRANCH  10  13
ATOM     13  N   UNL     1       9.942   2.070  21.636  0.00  0.00    -0.202 NA
ATOM     14  H   UNL     1       9.203   2.626  21.206  0.00  0.00    +0.144 HD
ATOM     15  H   UNL     1      10.874   2.454  21.486  0.00  0.00    +0.144 HD
ENDBRANCH  10  13
ENDBRANCH   6  10
BRANCH   1  16
ATOM     16  O   UNL     1       6.548  -5.289  23.796  0.00  0.00    -0.492 OA
BRANCH  16  18
ATOM     17  C   UNL     1       6.674  -6.022  21.497  0.00  0.00    +0.048 C 
ATOM     18  C   UNL     1       5.793  -5.453  22.591  0.00  0.00    +0.225 C 
ENDBRANCH  16  18
ENDBRANCH   1  16
TORSDOF 4
ENDMDL
MODEL 6
REMARK VINA RESULT:      -5.3      3.254      6.414
REMARK  Name = 
REMARK  5 active torsions:
REMARK  status: ('A' for Active; 'I' for Inactive)
REMARK    1  A    between atoms: C_1  and  C_2
REMARK    2  A    between atoms: C_2  and  O_3
REMARK    3  A    between atoms: O_3  and  C_4
REMARK    4  A    between atoms: C_11  and  S_13
REMARK    5  A    between atoms: S_13  and  N_14
REMARK                            x       y       z     vdW  Elec       q    Type
REMARK                         _______ _______ _______ _____ _____    ______ ____
ROOT
ATOM      1  C   UNL     1       8.769  -3.470  23.874  0.00  0.00    +0.122 A 
ATOM      2  C   UNL     1       7.577  -3.099  23.255  0.00  0.00    +0.048 A 
ATOM      3  C   UNL     1       7.289  -1.749  22.981  0.00  0.00    +0.032 A 
ATOM      4  C   UNL     1       8.218  -0.749  23.341  0.00  0.00    +0.081 A 
ATOM      5  N   UNL     1       8.081   0.625  23.167  0.00  0.00    -0.221 NA
ATOM      6  C   UNL     1       9.161   1.218  23.643  0.00  0.00    +0.233 A 
ATOM      7  S   UNL     1      10.384   0.228  24.280  0.00  0.00    -0.047 S 
ATOM      8  C   UNL     1       9.415  -1.148  23.946  0.00  0.00    +0.044 A 
ATOM      9  C   UNL     1       9.708  -2.492  24.212  0.00  0.00    +0.063 A 
ENDROOT
BRANCH   6  10
ATOM     10  S   UNL     1       9.451   2.972  23.692  0.00  0.00    +0.080 S 
ATOM     11  O   UNL     1      10.854   3.148  23.388  0.00  0.00    -0.151 OA
ATOM     12  O   UNL     1       8.842   3.439  24.917  0.00  0.00    -0.151 OA
BRANCH  10  13
ATOM     13  N   UNL     1       8.586   3.660  22.417  0.00  0.00    -0.202 NA
ATOM     14  H   UNL     1       8.456   2.981  21.668  0.00  0.00    +0.144 HD
ATOM     15  H   UNL     1       7.711   4.061  22.754  0.00  0.00    +0.144 HD
ENDBRANCH  10  13
ENDBRANCH   6  10
BRANCH   1  16
ATOM     16  O   UNL     1       8.934  -4.814  24.116  0.00  0.00    -0.492 OA
BRANCH  16  18
ATOM     17  C   UNL     1       8.193  -5.202  26.383  0.00  0.00    +0.048 C 
ATOM     18  C   UNL     1       9.375  -5.148  25.436  0.00  0.00    +0.225 C 
ENDBRANCH  16  18
ENDBRANCH   1  16
TORSDOF 4
ENDMDL
MODEL 7
REMARK VINA RESULT:      -5.3      3.282      6.179
REMARK  Name = 
REMARK  5 active torsions:
REMARK  status: ('A' for Active; 'I' for Inactive)
REMARK    1  A    between atoms: C_1  and  C_2
REMARK    2  A    between atoms: C_2  and  O_3
REMARK    3  A    between atoms: O_3  and  C_4
REMARK    4  A    between atoms: C_11  and  S_13
REMARK    5  A    between atoms: S_13  and  N_14
REMARK                            x       y       z     vdW  Elec       q    Type
REMARK                         _______ _______ _______ _____ _____    ______ ____
ROOT
ATOM      1  C   UNL     1       7.040  -3.902  23.348  0.00  0.00    +0.122 A 
ATOM      2  C   UNL     1       5.930  -3.102  23.611  0.00  0.00    +0.048 A 
ATOM      3  C   UNL     1       6.043  -1.701  23.678  0.00  0.00    +0.032 A 
ATOM      4  C   UNL     1       7.301  -1.090  23.483  0.00  0.00    +0.081 A 
ATOM      5  N   UNL     1       7.591   0.270  23.541  0.00  0.00    -0.221 NA
ATOM      6  C   UNL     1       8.881   0.434  23.313  0.00  0.00    +0.233 A 
ATOM      7  S   UNL     1       9.805  -0.955  22.995  0.00  0.00    -0.047 S 
ATOM      8  C   UNL     1       8.397  -1.913  23.205  0.00  0.00    +0.044 A 
ATOM      9  C   UNL     1       8.286  -3.308  23.127  0.00  0.00    +0.063 A 
ENDROOT
BRANCH   6  10
ATOM     10  S   UNL     1       9.752   1.984  23.320  0.00  0.00    +0.080 S 
ATOM     11  O   UNL     1      10.971   1.748  24.060  0.00  0.00    -0.151 OA
ATOM     12  O   UNL     1       8.778   2.983  23.697  0.00  0.00    -0.151 OA
BRANCH  10  13
ATOM     13  N   UNL     1      10.205   2.313  21.728  0.00  0.00    -0.202 NA
ATOM     14  H   UNL     1       9.607   1.807  21.076  0.00  0.00    +0.144 HD
ATOM     15  H   UNL     1      10.221   3.319  21.561  0.00  0.00    +0.144 HD
ENDBRANCH  10  13
ENDBRANCH   6  10
BRANCH   1  16
ATOM     16  O   UNL     1       6.819  -5.259  23.330  0.00  0.00    -0.492 OA
BRANCH  16  18
ATOM     17  C   UNL     1       6.220  -5.716  21.034  0.00  0.00    +0.048 C 
ATOM     18  C   UNL     1       7.237  -5.931  22.137  0.00  0.00    +0.225 C 
ENDBRANCH  16  18
ENDBRANCH   1  16
TORSDOF 4
ENDMDL
MODEL 8
REMARK VINA RESULT:      -5.2      1.987      2.336
REMARK  Name = 
REMARK  5 active torsions:
REMARK  status: ('A' for Active; 'I' for Inactive)
REMARK    1  A    between atoms: C_1  and  C_2
REMARK    2  A    between atoms: C_2  and  O_3
REMARK    3  A    between atoms: O_3  and  C_4
REMARK    4  A    between atoms: C_11  and  S_13
REMARK    5  A    between atoms: S_13  and  N_14
REMARK                            x       y       z     vdW  Elec       q    Type
REMARK                         _______ _______ _______ _____ _____    ______ ____
ROOT
ATOM      1  C   UNL     1       8.404   1.771  22.410  0.00  0.00    +0.122 A 
ATOM      2  C   UNL     1       9.525   1.259  21.758  0.00  0.00    +0.048 A 
ATOM      3  C   UNL     1       9.723  -0.128  21.631  0.00  0.00    +0.032 A 
ATOM      4  C   UNL     1       8.776  -1.022  22.175  0.00  0.00    +0.081 A 
ATOM      5  N   UNL     1       8.830  -2.413  22.160  0.00  0.00    -0.221 NA
ATOM      6  C   UNL     1       7.763  -2.882  22.781  0.00  0.00    +0.233 A 
ATOM      7  S   UNL     1       6.644  -1.753  23.378  0.00  0.00    -0.047 S 
ATOM      8  C   UNL     1       7.651  -0.486  22.811  0.00  0.00    +0.044 A 
ATOM      9  C   UNL     1       7.447   0.896  22.931  0.00  0.00    +0.063 A 
ENDROOT
BRANCH   6  10
ATOM     10  S   UNL     1       7.391  -4.597  23.064  0.00  0.00    +0.080 S 
ATOM     11  O   UNL     1       8.504  -5.122  23.824  0.00  0.00    -0.151 OA
ATOM     12  O   UNL     1       6.986  -5.130  21.782  0.00  0.00    -0.151 OA
BRANCH  10  13
ATOM     13  N   UNL     1       6.039  -4.659  24.073  0.00  0.00    -0.202 NA
ATOM     14  H   UNL     1       5.959  -5.580  24.504  0.00  0.00    +0.144 HD
ATOM     15  H   UNL     1       6.064  -3.898  24.750  0.00  0.00    +0.144 HD
ENDBRANCH  10  13
ENDBRANCH   6  10
BRANCH   1  16
ATOM     16  O   UNL     1       8.326   3.140  22.498  0.00  0.00    -0.492 OA
BRANCH  16  18
ATOM     17  C   UNL     1       7.123   5.218  22.219  0.00  0.00    +0.048 C 
ATOM     18  C   UNL     1       7.079   3.709  22.083  0.00  0.00    +0.225 C 
ENDBRANCH  16  18
ENDBRANCH   1  16
TORSDOF 4
ENDMDL
MODEL 9
REMARK VINA RESULT:      -5.2      3.782      6.738
REMARK  Name = 
REMARK  5 active torsions:
REMARK  status: ('A' for Active; 'I' for Inactive)
REMARK    1  A    between atoms: C_1  and  C_2
REMARK    2  A    between atoms: C_2  and  O_3
REMARK    3  A    between atoms: O_3  and  C_4
REMARK    4  A    between atoms: C_11  and  S_13
REMARK    5  A    between atoms: S_13  and  N_14
REMARK                            x       y       z     vdW  Elec       q    Type
REMARK                         _______ _______ _______ _____ _____    ______ ____
ROOT
ATOM      1  C   UNL     1       9.736  -1.699  23.486  0.00  0.00    +0.122 A 
ATOM      2  C   UNL     1       9.854  -1.429  22.123  0.00  0.00    +0.048 A 
ATOM      3  C   UNL     1       9.583  -0.148  21.610  0.00  0.00    +0.032 A 
ATOM      4  C   UNL     1       9.181   0.886  22.483  0.00  0.00    +0.081 A 
ATOM      5  N   UNL     1       8.852   2.194  22.140  0.00  0.00    -0.221 NA
ATOM      6  C   UNL     1       8.517   2.845  23.239  0.00  0.00    +0.233 A 
ATOM      7  S   UNL     1       8.594   1.997  24.708  0.00  0.00    -0.047 S 
ATOM      8  C   UNL     1       9.085   0.596  23.848  0.00  0.00    +0.044 A 
ATOM      9  C   UNL     1       9.363  -0.677  24.364  0.00  0.00    +0.063 A 
ENDROOT
BRANCH   6  10
ATOM     10  S   UNL     1       7.978   4.537  23.325  0.00  0.00    +0.080 S 
ATOM     11  O   UNL     1       9.172   5.320  23.553  0.00  0.00    -0.151 OA
ATOM     12  O   UNL     1       6.843   4.544  24.220  0.00  0.00    -0.151 OA
BRANCH  10  13
ATOM     13  N   UNL     1       7.403   4.960  21.796  0.00  0.00    -0.202 NA
ATOM     14  H   UNL     1       8.117   5.467  21.275  0.00  0.00    +0.144 HD
ATOM     15  H   UNL     1       7.055   4.137  21.304  0.00  0.00    +0.144 HD
ENDBRANCH  10  13
ENDBRANCH   6  10
BRANCH   1  16
ATOM     16  O   UNL     1      10.000  -2.991  23.873  0.00  0.00    -0.492 OA
BRANCH  16  18
ATOM     17  C   UNL     1       9.139  -4.984  24.935  0.00  0.00    +0.048 C 
ATOM     18  C   UNL     1       9.221  -3.471  24.974  0.00  0.00    +0.225 C 
ENDBRANCH  16  18
ENDBRANCH   1  16
TORSDOF 4
ENDMDL
