MODEL 1
REMARK VINA RESULT:      -6.7      0.000      0.000
REMARK  Name = 
REMARK  11 active torsions:
REMARK  status: ('A' for Active; 'I' for Inactive)
REMARK    1  A    between atoms: C_2  and  C_3
REMARK    2  A    between atoms: C_2  and  N_13
REMARK    3  A    between atoms: C_2  and  C_27
REMARK    4  A    between atoms: C_3  and  S_4
REMARK    5  A    between atoms: S_4  and  N_7
REMARK    6  A    between atoms: N_13  and  C_14
REMARK    7  A    between atoms: C_14  and  C_16
REMARK    8  A    between atoms: C_14  and  C_23
REMARK    9  A    between atoms: N_29  and  C_30
REMARK   10  A    between atoms: C_30  and  C_31
REMARK   11  A    between atoms: C_31  and  N_32
REMARK                            x       y       z     vdW  Elec       q    Type
REMARK                         _______ _______ _______ _____ _____    ______ ____
ROOT
ATOM      1  C   UNL     1       7.496  -4.255  25.167  0.00  0.00    +0.164 C 
ENDROOT
BRANCH   1   2
ATOM      2  C   UNL     1       6.910  -5.039  26.362  0.00  0.00    +0.232 C 
ATOM      3  N   UNL     1       5.631  -4.643  26.694  0.00  0.00    -0.307 N 
ATOM      4  H   UNL     1       5.279  -3.775  26.303  0.00  0.00    +0.149 HD
ATOM      5  O   UNL     1       7.576  -5.857  26.997  0.00  0.00    -0.274 OA
BRANCH   3   6
ATOM      6  C   UNL     1       4.877  -5.201  27.792  0.00  0.00    +0.047 C 
ATOM      7  C   UNL     1       4.348  -6.617  27.701  0.00  0.00    +0.029 C 
ATOM      8  C   UNL     1       3.410  -5.466  27.512  0.00  0.00    +0.029 C 
BRANCH   6   9
ATOM      9  C   UNL     1       5.274  -4.708  29.175  0.00  0.00    +0.103 C 
BRANCH   9  10
ATOM     10  N   UNL     1       6.162  -5.682  29.810  0.00  0.00    -0.328 NA
ATOM     11  H   UNL     1       6.602  -5.236  30.613  0.00  0.00    +0.118 HD
ATOM     12  H   UNL     1       5.583  -6.428  30.193  0.00  0.00    +0.118 HD
ENDBRANCH   9  10
ENDBRANCH   6   9
ENDBRANCH   3   6
ENDBRANCH   1   2
BRANCH   1  13
ATOM     13  N   UNL     1       6.400  -4.222  24.155  0.00  0.00    -0.290 NA
ATOM     14  H   UNL     1       6.612  -3.507  23.450  0.00  0.00    +0.124 HD
BRANCH  13  15
ATOM     15  C   UNL     1       6.100  -5.512  23.467  0.00  0.00    +0.190 C 
BRANCH  15  16
ATOM     16  C   UNL     1       4.625  -5.859  23.623  0.00  0.00    -0.022 A 
ATOM     17  C   UNL     1       4.242  -7.122  24.107  0.00  0.00    +0.008 A 
ATOM     18  C   UNL     1       2.896  -7.411  24.332  0.00  0.00    +0.038 A 
ATOM     19  C   UNL     1       1.932  -6.448  24.069  0.00  0.00    +0.123 A 
ATOM     20  F   UNL     1       0.643  -6.723  24.306  0.00  0.00    -0.205 F 
ATOM     21  C   UNL     1       2.284  -5.199  23.574  0.00  0.00    +0.038 A 
ATOM     22  C   UNL     1       3.629  -4.903  23.350  0.00  0.00    +0.008 A 
ENDBRANCH  15  16
BRANCH  15  23
ATOM     23  C   UNL     1       6.587  -5.595  21.973  0.00  0.00    +0.409 C 
ATOM     24  F   UNL     1       5.705  -6.175  21.134  0.00  0.00    -0.169 F 
ATOM     25  F   UNL     1       7.743  -6.303  21.899  0.00  0.00    -0.169 F 
ATOM     26  F   UNL     1       6.861  -4.359  21.481  0.00  0.00    -0.169 F 
ENDBRANCH  15  23
ENDBRANCH  13  15
ENDBRANCH   1  13
BRANCH   1  27
ATOM     27  C   UNL     1       7.961  -2.880  25.642  0.00  0.00    +0.213 C 
BRANCH  27  28
ATOM     28  S   UNL     1       9.184  -2.190  24.525  0.00  0.00    +0.034 S 
ATOM     29  O   UNL     1      10.067  -3.273  24.150  0.00  0.00    -0.158 OA
ATOM     30  O   UNL     1       9.713  -0.949  25.035  0.00  0.00    -0.158 OA
BRANCH  28  31
ATOM     31  N   UNL     1       8.199  -1.832  23.184  0.00  0.00    -0.177 NA
ATOM     32  C   UNL     1       8.893  -1.694  21.865  0.00  0.00    +0.137 C 
ATOM     33  C   UNL     1       9.492  -0.296  21.707  0.00  0.00    +0.177 C 
ATOM     34  O   UNL     1       8.463   0.701  21.799  0.00  0.00    -0.377 OA
ATOM     35  C   UNL     1       7.834   0.656  23.088  0.00  0.00    +0.177 C 
ATOM     36  C   UNL     1       7.204  -0.719  23.360  0.00  0.00    +0.137 C 
ENDBRANCH  28  31
ENDBRANCH  27  28
ENDBRANCH   1  27
TORSDOF 11
ENDMDL
MODEL 2
REMARK VINA RESULT:      -6.5      4.283      8.067
REMARK  Name = 
REMARK  11 active torsions:
REMARK  status: ('A' for Active; 'I' for Inactive)
REMARK    1  A    between atoms: C_2  and  C_3
REMARK    2  A    between atoms: C_2  and  N_13
REMARK    3  A    between atoms: C_2  and  C_27
REMARK    4  A    between atoms: C_3  and  S_4
REMARK    5  A    between atoms: S_4  and  N_7
REMARK    6  A    between atoms: N_13  and  C_14
REMARK    7  A    between atoms: C_14  and  C_16
REMARK    8  A    between atoms: C_14  and  C_23
REMARK    9  A    between atoms: N_29  and  C_30
REMARK   10  A    between atoms: C_30  and  C_31
REMARK   11  A    between atoms: C_31  and  N_32
REMARK                            x       y       z     vdW  Elec       q    Type
REMARK                         _______ _______ _______ _____ _____    ______ ____
ROOT
ATOM      1  C   UNL     1       6.796   0.036  24.148  0.00  0.00    +0.164 C 
ENDROOT
BRANCH   1   2
ATOM      2  C   UNL     1       6.098   0.925  25.200  0.00  0.00    +0.232 C 
ATOM      3  N   UNL     1       6.985   1.656  25.965  0.00  0.00    -0.307 N 
ATOM      4  H   UNL     1       7.967   1.405  25.934  0.00  0.00    +0.149 HD
ATOM      5  O   UNL     1       4.882   0.890  25.383  0.00  0.00    -0.274 OA
BRANCH   3   6
ATOM      6  C   UNL     1       6.584   2.541  27.034  0.00  0.00    +0.047 C 
ATOM      7  C   UNL     1       5.666   3.708  26.743  0.00  0.00    +0.029 C 
ATOM      8  C   UNL     1       7.127   3.954  26.953  0.00  0.00    +0.029 C 
BRANCH   6   9
ATOM      9  C   UNL     1       6.450   1.892  28.402  0.00  0.00    +0.103 C 
BRANCH   9  10
ATOM     10  N   UNL     1       7.575   0.984  28.631  0.00  0.00    -0.328 NA
ATOM     11  H   UNL     1       8.077   0.872  27.751  0.00  0.00    +0.118 HD
ATOM     12  H   UNL     1       8.227   1.448  29.262  0.00  0.00    +0.118 HD
ENDBRANCH   9  10
ENDBRANCH   6   9
ENDBRANCH   3   6
ENDBRANCH   1   2
BRANCH   1  13
ATOM     13  N   UNL     1       8.181   0.583  24.040  0.00  0.00    -0.290 NA
ATOM     14  H   UNL     1       8.856  -0.180  24.164  0.00  0.00    +0.124 HD
BRANCH  13  15
ATOM     15  C   UNL     1       8.500   1.318  22.780  0.00  0.00    +0.190 C 
BRANCH  15  16
ATOM     16  C   UNL     1       8.417   2.820  23.016  0.00  0.00    -0.022 A 
ATOM     17  C   UNL     1       9.318   3.450  23.892  0.00  0.00    +0.008 A 
ATOM     18  C   UNL     1       9.300   4.837  24.044  0.00  0.00    +0.038 A 
ATOM     19  C   UNL     1       8.382   5.595  23.330  0.00  0.00    +0.123 A 
ATOM     20  F   UNL     1       8.381   6.928  23.464  0.00  0.00    -0.205 F 
ATOM     21  C   UNL     1       7.470   4.994  22.473  0.00  0.00    +0.038 A 
ATOM     22  C   UNL     1       7.485   3.608  22.314  0.00  0.00    +0.008 A 
ENDBRANCH  15  16
BRANCH  15  23
ATOM     23  C   UNL     1       9.844   0.887  22.085  0.00  0.00    +0.409 C 
ATOM     24  F   UNL     1       9.698  -0.061  21.136  0.00  0.00    -0.169 F 
ATOM     25  F   UNL     1      10.712   0.404  23.009  0.00  0.00    -0.169 F 
ATOM     26  F   UNL     1      10.455   1.951  21.503  0.00  0.00    -0.169 F 
ENDBRANCH  15  23
ENDBRANCH  13  15
ENDBRANCH   1  13
BRANCH   1  27
ATOM     27  C   UNL     1       6.726  -1.424  24.593  0.00  0.00    +0.213 C 
BRANCH  27  28
ATOM     28  S   UNL     1       8.232  -1.917  25.435  0.00  0.00    +0.034 S 
ATOM     29  O   UNL     1       8.302  -1.141  26.655  0.00  0.00    -0.158 OA
ATOM     30  O   UNL     1       9.348  -1.961  24.523  0.00  0.00    -0.158 OA
BRANCH  28  31
ATOM     31  N   UNL     1       7.831  -3.517  25.856  0.00  0.00    -0.177 NA
ATOM     32  C   UNL     1       8.919  -4.333  26.481  0.00  0.00    +0.137 C 
ATOM     33  C   UNL     1       9.842  -4.921  25.413  0.00  0.00    +0.177 C 
ATOM     34  O   UNL     1       9.096  -5.752  24.511  0.00  0.00    -0.377 OA
ATOM     35  C   UNL     1       8.098  -4.979  23.826  0.00  0.00    +0.177 C 
ATOM     36  C   UNL     1       7.116  -4.327  24.812  0.00  0.00    +0.137 C 
ENDBRANCH  28  31
ENDBRANCH  27  28
ENDBRANCH   1  27
TORSDOF 11
ENDMDL
MODEL 3
REMARK VINA RESULT:      -6.4      1.325      1.829
REMARK  Name = 
REMARK  11 active torsions:
REMARK  status: ('A' for Active; 'I' for Inactive)
REMARK    1  A    between atoms: C_2  and  C_3
REMARK    2  A    between atoms: C_2  and  N_13
REMARK    3  A    between atoms: C_2  and  C_27
REMARK    4  A    between atoms: C_3  and  S_4
REMARK    5  A    between atoms: S_4  and  N_7
REMARK    6  A    between atoms: N_13  and  C_14
REMARK    7  A    between atoms: C_14  and  C_16
REMARK    8  A    between atoms: C_14  and  C_23
REMARK    9  A    between atoms: N_29  and  C_30
REMARK   10  A    between atoms: C_30  and  C_31
REMARK   11  A    between atoms: C_31  and  N_32
REMARK                            x       y       z     vdW  Elec       q    Type
REMARK                         _______ _______ _______ _____ _____    ______ ____
ROOT
ATOM      1  C   UNL     1       7.941  -4.915  24.734  0.00  0.00    +0.164 C 
ENDROOT
BRANCH   1   2
ATOM      2  C   UNL     1       7.505  -4.934  26.215  0.00  0.00    +0.232 C 
ATOM      3  N   UNL     1       6.159  -5.188  26.380  0.00  0.00    -0.307 N 
ATOM      4  H   UNL     1       5.555  -5.126  25.567  0.00  0.00    +0.149 HD
ATOM      5  O   UNL     1       8.279  -4.649  27.128  0.00  0.00    -0.274 OA
BRANCH   3   6
ATOM      6  C   UNL     1       5.500  -5.229  27.665  0.00  0.00    +0.047 C 
ATOM      7  C   UNL     1       4.005  -5.007  27.753  0.00  0.00    +0.029 C 
ATOM      8  C   UNL     1       4.939  -3.909  28.156  0.00  0.00    +0.029 C 
BRANCH   6   9
ATOM      9  C   UNL     1       6.110  -6.181  28.681  0.00  0.00    +0.103 C 
BRANCH   9  10
ATOM     10  N   UNL     1       5.515  -7.510  28.532  0.00  0.00    -0.328 NA
ATOM     11  H   UNL     1       6.237  -8.204  28.719  0.00  0.00    +0.118 HD
ATOM     12  H   UNL     1       4.824  -7.626  29.271  0.00  0.00    +0.118 HD
ENDBRANCH   9  10
ENDBRANCH   6   9
ENDBRANCH   3   6
ENDBRANCH   1   2
BRANCH   1  13
ATOM     13  N   UNL     1       6.702  -4.581  23.972  0.00  0.00    -0.290 NA
ATOM     14  H   UNL     1       6.887  -3.779  23.361  0.00  0.00    +0.124 HD
BRANCH  13  15
ATOM     15  C   UNL     1       6.110  -5.687  23.162  0.00  0.00    +0.190 C 
BRANCH  15  16
ATOM     16  C   UNL     1       4.656  -5.906  23.558  0.00  0.00    -0.022 A 
ATOM     17  C   UNL     1       4.268  -7.100  24.192  0.00  0.00    +0.008 A 
ATOM     18  C   UNL     1       2.955  -7.268  24.634  0.00  0.00    +0.038 A 
ATOM     19  C   UNL     1       2.028  -6.253  24.439  0.00  0.00    +0.123 A 
ATOM     20  F   UNL     1       0.774  -6.412  24.882  0.00  0.00    -0.205 F 
ATOM     21  C   UNL     1       2.383  -5.073  23.799  0.00  0.00    +0.038 A 
ATOM     22  C   UNL     1       3.696  -4.898  23.358  0.00  0.00    +0.008 A 
ENDBRANCH  15  16
BRANCH  15  23
ATOM     23  C   UNL     1       6.299  -5.541  21.606  0.00  0.00    +0.409 C 
ATOM     24  F   UNL     1       7.556  -5.776  21.177  0.00  0.00    -0.169 F 
ATOM     25  F   UNL     1       5.963  -4.287  21.212  0.00  0.00    -0.169 F 
ATOM     26  F   UNL     1       5.478  -6.389  20.934  0.00  0.00    -0.169 F 
ENDBRANCH  15  23
ENDBRANCH  13  15
ENDBRANCH   1  13
BRANCH   1  27
ATOM     27  C   UNL     1       9.082  -3.916  24.554  0.00  0.00    +0.213 C 
BRANCH  27  28
ATOM     28  S   UNL     1       8.491  -2.382  23.835  0.00  0.00    +0.034 S 
ATOM     29  O   UNL     1       7.655  -1.748  24.833  0.00  0.00    -0.158 OA
ATOM     30  O   UNL     1       8.011  -2.587  22.491  0.00  0.00    -0.158 OA
BRANCH  28  31
ATOM     31  N   UNL     1       9.950  -1.509  23.747  0.00  0.00    -0.177 NA
ATOM     32  C   UNL     1      10.064  -0.310  24.635  0.00  0.00    +0.137 C 
ATOM     33  C   UNL     1       9.382   0.904  24.003  0.00  0.00    +0.177 C 
ATOM     34  O   UNL     1       9.980   1.206  22.733  0.00  0.00    -0.377 OA
ATOM     35  C   UNL     1       9.811   0.107  21.825  0.00  0.00    +0.177 C 
ATOM     36  C   UNL     1      10.452  -1.178  22.370  0.00  0.00    +0.137 C 
ENDBRANCH  28  31
ENDBRANCH  27  28
ENDBRANCH   1  27
TORSDOF 11
ENDMDL
MODEL 4
REMARK VINA RESULT:      -6.3      4.262      7.817
REMARK  Name = 
REMARK  11 active torsions:
REMARK  status: ('A' for Active; 'I' for Inactive)
REMARK    1  A    between atoms: C_2  and  C_3
REMARK    2  A    between atoms: C_2  and  N_13
REMARK    3  A    between atoms: C_2  and  C_27
REMARK    4  A    between atoms: C_3  and  S_4
REMARK    5  A    between atoms: S_4  and  N_7
REMARK    6  A    between atoms: N_13  and  C_14
REMARK    7  A    between atoms: C_14  and  C_16
REMARK    8  A    between atoms: C_14  and  C_23
REMARK    9  A    between atoms: N_29  and  C_30
REMARK   10  A    between atoms: C_30  and  C_31
REMARK   11  A    between atoms: C_31  and  N_32
REMARK                            x       y       z     vdW  Elec       q    Type
REMARK                         _______ _______ _______ _____ _____    ______ ____
ROOT
ATOM      1  C   UNL     1       7.630  -0.394  24.607  0.00  0.00    +0.164 C 
ENDROOT
BRANCH   1   2
ATOM      2  C   UNL     1       6.798   0.309  25.701  0.00  0.00    +0.232 C 
ATOM      3  N   UNL     1       7.466   1.357  26.300  0.00  0.00    -0.307 N 
ATOM      4  H   UNL     1       8.465   1.441  26.147  0.00  0.00    +0.149 HD
ATOM      5  O   UNL     1       5.693  -0.107  26.051  0.00  0.00    -0.274 OA
BRANCH   3   6
ATOM      6  C   UNL     1       6.915   2.155  27.371  0.00  0.00    +0.047 C 
ATOM      7  C   UNL     1       5.722   3.049  27.107  0.00  0.00    +0.029 C 
ATOM      8  C   UNL     1       7.086   3.654  27.226  0.00  0.00    +0.029 C 
BRANCH   6   9
ATOM      9  C   UNL     1       7.016   1.543  28.759  0.00  0.00    +0.103 C 
BRANCH   9  10
ATOM     10  N   UNL     1       5.765   0.861  29.091  0.00  0.00    -0.328 NA
ATOM     11  H   UNL     1       5.950  -0.140  29.131  0.00  0.00    +0.118 HD
ATOM     12  H   UNL     1       5.505   1.131  30.038  0.00  0.00    +0.118 HD
ENDBRANCH   9  10
ENDBRANCH   6   9
ENDBRANCH   3   6
ENDBRANCH   1   2
BRANCH   1  13
ATOM     13  N   UNL     1       8.712   0.576  24.264  0.00  0.00    -0.290 NA
ATOM     14  H   UNL     1       9.620   0.100  24.311  0.00  0.00    +0.124 HD
BRANCH  13  15
ATOM     15  C   UNL     1       8.586   1.261  22.943  0.00  0.00    +0.190 C 
BRANCH  15  16
ATOM     16  C   UNL     1       8.440   2.763  23.145  0.00  0.00    -0.022 A 
ATOM     17  C   UNL     1       9.258   3.436  24.070  0.00  0.00    +0.008 A 
ATOM     18  C   UNL     1       9.186   4.824  24.194  0.00  0.00    +0.038 A 
ATOM     19  C   UNL     1       8.297   5.540  23.404  0.00  0.00    +0.123 A 
ATOM     20  F   UNL     1       8.246   6.874  23.513  0.00  0.00    -0.205 F 
ATOM     21  C   UNL     1       7.467   4.897  22.497  0.00  0.00    +0.038 A 
ATOM     22  C   UNL     1       7.536   3.509  22.366  0.00  0.00    +0.008 A 
ENDBRANCH  15  16
BRANCH  15  23
ATOM     23  C   UNL     1       9.705   0.895  21.899  0.00  0.00    +0.409 C 
ATOM     24  F   UNL     1      10.474   1.938  21.523  0.00  0.00    -0.169 F 
ATOM     25  F   UNL     1       9.144   0.380  20.777  0.00  0.00    -0.169 F 
ATOM     26  F   UNL     1      10.535  -0.062  22.389  0.00  0.00    -0.169 F 
ENDBRANCH  15  23
ENDBRANCH  13  15
ENDBRANCH   1  13
BRANCH   1  27
ATOM     27  C   UNL     1       8.130  -1.737  25.135  0.00  0.00    +0.213 C 
BRANCH  27  28
ATOM     28  S   UNL     1       8.548  -2.847  23.788  0.00  0.00    +0.034 S 
ATOM     29  O   UNL     1       9.851  -3.400  24.091  0.00  0.00    -0.158 OA
ATOM     30  O   UNL     1       8.285  -2.235  22.509  0.00  0.00    -0.158 OA
BRANCH  28  31
ATOM     31  N   UNL     1       7.391  -4.071  24.036  0.00  0.00    -0.177 NA
ATOM     32  C   UNL     1       7.402  -5.205  23.060  0.00  0.00    +0.137 C 
ATOM     33  C   UNL     1       6.637  -4.839  21.788  0.00  0.00    +0.177 C 
ATOM     34  O   UNL     1       5.276  -4.508  22.103  0.00  0.00    -0.377 OA
ATOM     35  C   UNL     1       5.225  -3.364  22.970  0.00  0.00    +0.177 C 
ATOM     36  C   UNL     1       5.979  -3.619  24.283  0.00  0.00    +0.137 C 
ENDBRANCH  28  31
ENDBRANCH  27  28
ENDBRANCH   1  27
TORSDOF 11
ENDMDL
MODEL 5
REMARK VINA RESULT:      -6.2      3.984      7.320
REMARK  Name = 
REMARK  11 active torsions:
REMARK  status: ('A' for Active; 'I' for Inactive)
REMARK    1  A    between atoms: C_2  and  C_3
REMARK    2  A    between atoms: C_2  and  N_13
REMARK    3  A    between atoms: C_2  and  C_27
REMARK    4  A    between atoms: C_3  and  S_4
REMARK    5  A    between atoms: S_4  and  N_7
REMARK    6  A    between atoms: N_13  and  C_14
REMARK    7  A    between atoms: C_14  and  C_16
REMARK    8  A    between atoms: C_14  and  C_23
REMARK    9  A    between atoms: N_29  and  C_30
REMARK   10  A    between atoms: C_30  and  C_31
REMARK   11  A    between atoms: C_31  and  N_32
REMARK                            x       y       z     vdW  Elec       q    Type
REMARK                         _______ _______ _______ _____ _____    ______ ____
ROOT
ATOM      1  C   UNL     1       7.070  -1.086  23.290  0.00  0.00    +0.164 C 
ENDROOT
BRANCH   1   2
ATOM      2  C   UNL     1       6.010  -1.085  24.413  0.00  0.00    +0.232 C 
ATOM      3  N   UNL     1       6.312  -0.216  25.442  0.00  0.00    -0.307 N 
ATOM      4  H   UNL     1       7.251   0.164  25.490  0.00  0.00    +0.149 HD
ATOM      5  O   UNL     1       5.056  -1.863  24.413  0.00  0.00    -0.274 OA
BRANCH   3   6
ATOM      6  C   UNL     1       5.495  -0.053  26.622  0.00  0.00    +0.047 C 
ATOM      7  C   UNL     1       4.289   0.861  26.583  0.00  0.00    +0.029 C 
ATOM      8  C   UNL     1       5.540   1.319  27.265  0.00  0.00    +0.029 C 
BRANCH   6   9
ATOM      9  C   UNL     1       5.399  -1.274  27.523  0.00  0.00    +0.103 C 
BRANCH   9  10
ATOM     10  N   UNL     1       4.106  -1.932  27.326  0.00  0.00    -0.328 NA
ATOM     11  H   UNL     1       3.841  -1.827  26.348  0.00  0.00    +0.118 HD
ATOM     12  H   UNL     1       4.240  -2.932  27.470  0.00  0.00    +0.118 HD
ENDBRANCH   9  10
ENDBRANCH   6   9
ENDBRANCH   3   6
ENDBRANCH   1   2
BRANCH   1  13
ATOM     13  N   UNL     1       8.118  -0.127  23.750  0.00  0.00    -0.290 NA
ATOM     14  H   UNL     1       8.946  -0.652  24.053  0.00  0.00    +0.124 HD
BRANCH  13  15
ATOM     15  C   UNL     1       8.533   0.915  22.764  0.00  0.00    +0.190 C 
BRANCH  15  16
ATOM     16  C   UNL     1       8.234   2.303  23.314  0.00  0.00    -0.022 A 
ATOM     17  C   UNL     1       7.560   3.249  22.521  0.00  0.00    +0.008 A 
ATOM     18  C   UNL     1       7.209   4.490  23.050  0.00  0.00    +0.038 A 
ATOM     19  C   UNL     1       7.535   4.794  24.365  0.00  0.00    +0.123 A 
ATOM     20  F   UNL     1       7.179   5.980  24.875  0.00  0.00    -0.205 F 
ATOM     21  C   UNL     1       8.216   3.884  25.163  0.00  0.00    +0.038 A 
ATOM     22  C   UNL     1       8.567   2.639  24.639  0.00  0.00    +0.008 A 
ENDBRANCH  15  16
BRANCH  15  23
ATOM     23  C   UNL     1      10.009   0.776  22.237  0.00  0.00    +0.409 C 
ATOM     24  F   UNL     1      10.912   0.471  23.192  0.00  0.00    -0.169 F 
ATOM     25  F   UNL     1      10.407   1.937  21.658  0.00  0.00    -0.169 F 
ATOM     26  F   UNL     1      10.096  -0.182  21.278  0.00  0.00    -0.169 F 
ENDBRANCH  15  23
ENDBRANCH  13  15
ENDBRANCH   1  13
BRANCH   1  27
ATOM     27  C   UNL     1       7.571  -2.512  23.067  0.00  0.00    +0.213 C 
BRANCH  27  28
ATOM     28  S   UNL     1       8.983  -2.872  24.114  0.00  0.00    +0.034 S 
ATOM     29  O   UNL     1       8.693  -2.310  25.416  0.00  0.00    -0.158 OA
ATOM     30  O   UNL     1      10.222  -2.570  23.439  0.00  0.00    -0.158 OA
BRANCH  28  31
ATOM     31  N   UNL     1       8.846  -4.564  24.233  0.00  0.00    -0.177 NA
ATOM     32  C   UNL     1       7.489  -5.141  23.979  0.00  0.00    +0.137 C 
ATOM     33  C   UNL     1       6.615  -5.054  25.231  0.00  0.00    +0.177 C 
ATOM     34  O   UNL     1       7.228  -5.764  26.318  0.00  0.00    -0.377 OA
ATOM     35  C   UNL     1       8.497  -5.179  26.648  0.00  0.00    +0.177 C 
ATOM     36  C   UNL     1       9.457  -5.203  25.449  0.00  0.00    +0.137 C 
ENDBRANCH  28  31
ENDBRANCH  27  28
ENDBRANCH   1  27
TORSDOF 11
ENDMDL
MODEL 6
REMARK VINA RESULT:      -6.2      3.251      5.724
REMARK  Name = 
REMARK  11 active torsions:
REMARK  status: ('A' for Active; 'I' for Inactive)
REMARK    1  A    between atoms: C_2  and  C_3
REMARK    2  A    between atoms: C_2  and  N_13
REMARK    3  A    between atoms: C_2  and  C_27
REMARK    4  A    between atoms: C_3  and  S_4
REMARK    5  A    between atoms: S_4  and  N_7
REMARK    6  A    between atoms: N_13  and  C_14
REMARK    7  A    between atoms: C_14  and  C_16
REMARK    8  A    between atoms: C_14  and  C_23
REMARK    9  A    between atoms: N_29  and  C_30
REMARK   10  A    between atoms: C_30  and  C_31
REMARK   11  A    between atoms: C_31  and  N_32
REMARK                            x       y       z     vdW  Elec       q    Type
REMARK                         _______ _______ _______ _____ _____    ______ ____
ROOT
ATOM      1  C   UNL     1       6.009  -3.180  25.943  0.00  0.00    +0.164 C 
ENDROOT
BRANCH   1   2
ATOM      2  C   UNL     1       5.824  -4.501  25.163  0.00  0.00    +0.232 C 
ATOM      3  N   UNL     1       5.581  -4.306  23.819  0.00  0.00    -0.307 N 
ATOM      4  H   UNL     1       5.336  -3.373  23.504  0.00  0.00    +0.149 HD
ATOM      5  O   UNL     1       5.800  -5.595  25.727  0.00  0.00    -0.274 OA
BRANCH   3   6
ATOM      6  C   UNL     1       5.344  -5.380  22.882  0.00  0.00    +0.047 C 
ATOM      7  C   UNL     1       6.500  -6.232  22.404  0.00  0.00    +0.029 C 
ATOM      8  C   UNL     1       5.934  -5.184  21.499  0.00  0.00    +0.029 C 
BRANCH   6   9
ATOM      9  C   UNL     1       3.994  -6.067  23.004  0.00  0.00    +0.103 C 
BRANCH   9  10
ATOM     10  N   UNL     1       4.140  -7.313  23.758  0.00  0.00    -0.328 NA
ATOM     11  H   UNL     1       4.461  -7.080  24.697  0.00  0.00    +0.118 HD
ATOM     12  H   UNL     1       3.212  -7.716  23.877  0.00  0.00    +0.118 HD
ENDBRANCH   9  10
ENDBRANCH   6   9
ENDBRANCH   3   6
ENDBRANCH   1   2
BRANCH   1  13
ATOM     13  N   UNL     1       7.487  -2.982  26.016  0.00  0.00    -0.290 NA
ATOM     14  H   UNL     1       7.830  -3.324  26.920  0.00  0.00    +0.124 HD
BRANCH  13  15
ATOM     15  C   UNL     1       8.289  -3.606  24.922  0.00  0.00    +0.190 C 
BRANCH  15  16
ATOM     16  C   UNL     1       8.874  -2.528  24.020  0.00  0.00    -0.022 A 
ATOM     17  C   UNL     1       8.532  -2.483  22.657  0.00  0.00    +0.008 A 
ATOM     18  C   UNL     1       8.997  -1.447  21.848  0.00  0.00    +0.038 A 
ATOM     19  C   UNL     1       9.808  -0.459  22.392  0.00  0.00    +0.123 A 
ATOM     20  F   UNL     1      10.236   0.544  21.616  0.00  0.00    -0.205 F 
ATOM     21  C   UNL     1      10.173  -0.492  23.731  0.00  0.00    +0.038 A 
ATOM     22  C   UNL     1       9.708  -1.525  24.547  0.00  0.00    +0.008 A 
ENDBRANCH  15  16
BRANCH  15  23
ATOM     23  C   UNL     1       9.369  -4.645  25.403  0.00  0.00    +0.409 C 
ATOM     24  F   UNL     1       9.027  -5.934  25.199  0.00  0.00    -0.169 F 
ATOM     25  F   UNL     1       9.601  -4.493  26.732  0.00  0.00    -0.169 F 
ATOM     26  F   UNL     1      10.557  -4.438  24.778  0.00  0.00    -0.169 F 
ENDBRANCH  15  23
ENDBRANCH  13  15
ENDBRANCH   1  13
BRANCH   1  27
ATOM     27  C   UNL     1       5.255  -2.060  25.229  0.00  0.00    +0.213 C 
BRANCH  27  28
ATOM     28  S   UNL     1       5.438  -0.502  26.099  0.00  0.00    +0.034 S 
ATOM     29  O   UNL     1       5.872  -0.821  27.442  0.00  0.00    -0.158 OA
ATOM     30  O   UNL     1       4.300   0.356  25.874  0.00  0.00    -0.158 OA
BRANCH  28  31
ATOM     31  N   UNL     1       6.768   0.156  25.264  0.00  0.00    -0.177 NA
ATOM     32  C   UNL     1       7.572   1.184  25.996  0.00  0.00    +0.137 C 
ATOM     33  C   UNL     1       6.918   2.562  25.894  0.00  0.00    +0.177 C 
ATOM     34  O   UNL     1       6.797   2.957  24.519  0.00  0.00    -0.377 OA
ATOM     35  C   UNL     1       5.957   2.038  23.805  0.00  0.00    +0.177 C 
ATOM     36  C   UNL     1       6.517   0.608  23.853  0.00  0.00    +0.137 C 
ENDBRANCH  28  31
ENDBRANCH  27  28
ENDBRANCH   1  27
TORSDOF 11
ENDMDL
MODEL 7
REMARK VINA RESULT:      -6.2      4.252      7.603
REMARK  Name = 
REMARK  11 active torsions:
REMARK  status: ('A' for Active; 'I' for Inactive)
REMARK    1  A    between atoms: C_2  and  C_3
REMARK    2  A    between atoms: C_2  and  N_13
REMARK    3  A    between atoms: C_2  and  C_27
REMARK    4  A    between atoms: C_3  and  S_4
REMARK    5  A    between atoms: S_4  and  N_7
REMARK    6  A    between atoms: N_13  and  C_14
REMARK    7  A    between atoms: C_14  and  C_16
REMARK    8  A    between atoms: C_14  and  C_23
REMARK    9  A    between atoms: N_29  and  C_30
REMARK   10  A    between atoms: C_30  and  C_31
REMARK   11  A    between atoms: C_31  and  N_32
REMARK                            x       y       z     vdW  Elec       q    Type
REMARK                         _______ _______ _______ _____ _____    ______ ____
ROOT
ATOM      1  C   UNL     1       8.003  -0.569  24.763  0.00  0.00    +0.164 C 
ENDROOT
BRANCH   1   2
ATOM      2  C   UNL     1       8.558  -1.992  24.532  0.00  0.00    +0.232 C 
ATOM      3  N   UNL     1       7.663  -2.984  24.876  0.00  0.00    -0.307 N 
ATOM      4  H   UNL     1       6.850  -2.729  25.426  0.00  0.00    +0.149 HD
ATOM      5  O   UNL     1       9.718  -2.191  24.172  0.00  0.00    -0.274 OA
BRANCH   3   6
ATOM      6  C   UNL     1       7.953  -4.396  24.780  0.00  0.00    +0.047 C 
ATOM      7  C   UNL     1       7.876  -5.092  23.438  0.00  0.00    +0.029 C 
ATOM      8  C   UNL     1       6.775  -5.285  24.432  0.00  0.00    +0.029 C 
BRANCH   6   9
ATOM      9  C   UNL     1       8.990  -4.917  25.761  0.00  0.00    +0.103 C 
BRANCH   9  10
ATOM     10  N   UNL     1      10.244  -5.190  25.057  0.00  0.00    -0.328 NA
ATOM     11  H   UNL     1      10.290  -6.189  24.864  0.00  0.00    +0.118 HD
ATOM     12  H   UNL     1      10.194  -4.737  24.145  0.00  0.00    +0.118 HD
ENDBRANCH   9  10
ENDBRANCH   6   9
ENDBRANCH   3   6
ENDBRANCH   1   2
BRANCH   1  13
ATOM     13  N   UNL     1       9.004   0.341  24.132  0.00  0.00    -0.290 NA
ATOM     14  H   UNL     1       9.861  -0.187  23.931  0.00  0.00    +0.124 HD
BRANCH  13  15
ATOM     15  C   UNL     1       8.562   1.046  22.893  0.00  0.00    +0.190 C 
BRANCH  15  16
ATOM     16  C   UNL     1       8.463   2.543  23.149  0.00  0.00    -0.022 A 
ATOM     17  C   UNL     1       9.385   3.179  23.999  0.00  0.00    +0.008 A 
ATOM     18  C   UNL     1       9.350   4.563  24.168  0.00  0.00    +0.038 A 
ATOM     19  C   UNL     1       8.393   5.313  23.498  0.00  0.00    +0.123 A 
ATOM     20  F   UNL     1       8.375   6.644  23.649  0.00  0.00    -0.205 F 
ATOM     21  C   UNL     1       7.460   4.707  22.668  0.00  0.00    +0.038 A 
ATOM     22  C   UNL     1       7.493   3.323  22.492  0.00  0.00    +0.008 A 
ENDBRANCH  15  16
BRANCH  15  23
ATOM     23  C   UNL     1       9.399   0.706  21.604  0.00  0.00    +0.409 C 
ATOM     24  F   UNL     1       9.852  -0.565  21.556  0.00  0.00    -0.169 F 
ATOM     25  F   UNL     1      10.479   1.524  21.521  0.00  0.00    -0.169 F 
ATOM     26  F   UNL     1       8.669   0.917  20.479  0.00  0.00    -0.169 F 
ENDBRANCH  15  23
ENDBRANCH  13  15
ENDBRANCH   1  13
BRANCH   1  27
ATOM     27  C   UNL     1       6.598  -0.470  24.172  0.00  0.00    +0.213 C 
BRANCH  27  28
ATOM     28  S   UNL     1       5.516   0.487  25.235  0.00  0.00    +0.034 S 
ATOM     29  O   UNL     1       4.633  -0.454  25.890  0.00  0.00    -0.158 OA
ATOM     30  O   UNL     1       4.987   1.635  24.541  0.00  0.00    -0.158 OA
BRANCH  28  31
ATOM     31  N   UNL     1       6.638   1.039  26.390  0.00  0.00    -0.177 NA
ATOM     32  C   UNL     1       6.530   0.448  27.760  0.00  0.00    +0.137 C 
ATOM     33  C   UNL     1       5.449   1.156  28.577  0.00  0.00    +0.177 C 
ATOM     34  O   UNL     1       5.750   2.555  28.696  0.00  0.00    -0.377 OA
ATOM     35  C   UNL     1       5.775   3.175  27.401  0.00  0.00    +0.177 C 
ATOM     36  C   UNL     1       6.825   2.527  26.486  0.00  0.00    +0.137 C 
ENDBRANCH  28  31
ENDBRANCH  27  28
ENDBRANCH   1  27
TORSDOF 11
ENDMDL
MODEL 8
REMARK VINA RESULT:      -6.2      2.391      3.310
REMARK  Name = 
REMARK  11 active torsions:
REMARK  status: ('A' for Active; 'I' for Inactive)
REMARK    1  A    between atoms: C_2  and  C_3
REMARK    2  A    between atoms: C_2  and  N_13
REMARK    3  A    between atoms: C_2  and  C_27
REMARK    4  A    between atoms: C_3  and  S_4
REMARK    5  A    between atoms: S_4  and  N_7
REMARK    6  A    between atoms: N_13  and  C_14
REMARK    7  A    between atoms: C_14  and  C_16
REMARK    8  A    between atoms: C_14  and  C_23
REMARK    9  A    between atoms: N_29  and  C_30
REMARK   10  A    between atoms: C_30  and  C_31
REMARK   11  A    between atoms: C_31  and  N_32
REMARK                            x       y       z     vdW  Elec       q    Type
REMARK                         _______ _______ _______ _____ _____    ______ ____
ROOT
ATOM      1  C   UNL     1       8.847  -3.234  24.478  0.00  0.00    +0.164 C 
ENDROOT
BRANCH   1   2
ATOM      2  C   UNL     1       8.087  -2.818  25.757  0.00  0.00    +0.232 C 
ATOM      3  N   UNL     1       7.321  -1.683  25.586  0.00  0.00    -0.307 N 
ATOM      4  H   UNL     1       7.477  -1.117  24.759  0.00  0.00    +0.149 HD
ATOM      5  O   UNL     1       8.247  -3.399  26.830  0.00  0.00    -0.274 OA
BRANCH   3   6
ATOM      6  C   UNL     1       6.541  -1.075  26.639  0.00  0.00    +0.047 C 
ATOM      7  C   UNL     1       5.461  -1.876  27.335  0.00  0.00    +0.029 C 
ATOM      8  C   UNL     1       5.076  -0.846  26.320  0.00  0.00    +0.029 C 
BRANCH   6   9
ATOM      9  C   UNL     1       7.271  -0.039  27.478  0.00  0.00    +0.103 C 
BRANCH   9  10
ATOM     10  N   UNL     1       8.707  -0.318  27.468  0.00  0.00    -0.328 NA
ATOM     11  H   UNL     1       8.918  -0.932  28.254  0.00  0.00    +0.118 HD
ATOM     12  H   UNL     1       8.913  -0.863  26.631  0.00  0.00    +0.118 HD
ENDBRANCH   9  10
ENDBRANCH   6   9
ENDBRANCH   3   6
ENDBRANCH   1   2
BRANCH   1  13
ATOM     13  N   UNL     1       7.779  -3.537  23.479  0.00  0.00    -0.290 NA
ATOM     14  H   UNL     1       8.166  -3.446  22.533  0.00  0.00    +0.124 HD
BRANCH  13  15
ATOM     15  C   UNL     1       7.116  -4.868  23.609  0.00  0.00    +0.190 C 
BRANCH  15  16
ATOM     16  C   UNL     1       5.824  -4.732  24.404  0.00  0.00    -0.022 A 
ATOM     17  C   UNL     1       4.817  -3.849  23.974  0.00  0.00    +0.008 A 
ATOM     18  C   UNL     1       3.599  -3.787  24.650  0.00  0.00    +0.038 A 
ATOM     19  C   UNL     1       3.384  -4.597  25.757  0.00  0.00    +0.123 A 
ATOM     20  F   UNL     1       2.206  -4.547  26.392  0.00  0.00    -0.205 F 
ATOM     21  C   UNL     1       4.369  -5.463  26.212  0.00  0.00    +0.038 A 
ATOM     22  C   UNL     1       5.589  -5.533  25.537  0.00  0.00    +0.008 A 
ENDBRANCH  15  16
BRANCH  15  23
ATOM     23  C   UNL     1       6.916  -5.643  22.255  0.00  0.00    +0.409 C 
ATOM     24  F   UNL     1       6.747  -4.846  21.179  0.00  0.00    -0.169 F 
ATOM     25  F   UNL     1       5.828  -6.450  22.336  0.00  0.00    -0.169 F 
ATOM     26  F   UNL     1       7.976  -6.452  21.996  0.00  0.00    -0.169 F 
ENDBRANCH  15  23
ENDBRANCH  13  15
ENDBRANCH   1  13
BRANCH   1  27
ATOM     27  C   UNL     1       9.798  -2.112  24.066  0.00  0.00    +0.213 C 
BRANCH  27  28
ATOM     28  S   UNL     1       9.166  -1.217  22.645  0.00  0.00    +0.034 S 
ATOM     29  O   UNL     1       7.832  -0.774  22.989  0.00  0.00    -0.158 OA
ATOM     30  O   UNL     1       9.411  -1.942  21.422  0.00  0.00    -0.158 OA
BRANCH  28  31
ATOM     31  N   UNL     1      10.190   0.143  22.666  0.00  0.00    -0.177 NA
ATOM     32  C   UNL     1      10.560   0.677  24.014  0.00  0.00    +0.137 C 
ATOM     33  C   UNL     1       9.459   1.585  24.563  0.00  0.00    +0.177 C 
ATOM     34  O   UNL     1       9.232   2.688  23.671  0.00  0.00    -0.377 OA
ATOM     35  C   UNL     1       8.788   2.214  22.391  0.00  0.00    +0.177 C 
ATOM     36  C   UNL     1       9.821   1.274  21.749  0.00  0.00    +0.137 C 
ENDBRANCH  28  31
ENDBRANCH  27  28
ENDBRANCH   1  27
TORSDOF 11
ENDMDL
MODEL 9
REMARK VINA RESULT:      -6.2      2.858      4.197
REMARK  Name = 
REMARK  11 active torsions:
REMARK  status: ('A' for Active; 'I' for Inactive)
REMARK    1  A    between atoms: C_2  and  C_3
REMARK    2  A    between atoms: C_2  and  N_13
REMARK    3  A    between atoms: C_2  and  C_27
REMARK    4  A    between atoms: C_3  and  S_4
REMARK    5  A    between atoms: S_4  and  N_7
REMARK    6  A    between atoms: N_13  and  C_14
REMARK    7  A    between atoms: C_14  and  C_16
REMARK    8  A    between atoms: C_14  and  C_23
REMARK    9  A    between atoms: N_29  and  C_30
REMARK   10  A    between atoms: C_30  and  C_31
REMARK   11  A    between atoms: C_31  and  N_32
REMARK                            x       y       z     vdW  Elec       q    Type
REMARK                         _______ _______ _______ _____ _____    ______ ____
ROOT
ATOM      1  C   UNL     1       8.713  -1.644  26.064  0.00  0.00    +0.164 C 
ENDROOT
BRANCH   1   2
ATOM      2  C   UNL     1       7.573  -0.822  26.704  0.00  0.00    +0.232 C 
ATOM      3  N   UNL     1       6.338  -1.083  26.148  0.00  0.00    -0.307 N 
ATOM      4  H   UNL     1       6.304  -1.592  25.271  0.00  0.00    +0.149 HD
ATOM      5  O   UNL     1       7.789   0.042  27.554  0.00  0.00    -0.274 OA
BRANCH   3   6
ATOM      6  C   UNL     1       5.119  -0.423  26.552  0.00  0.00    +0.047 C 
ATOM      7  C   UNL     1       4.568  -0.644  27.945  0.00  0.00    +0.029 C 
ATOM      8  C   UNL     1       3.926  -1.332  26.780  0.00  0.00    +0.029 C 
BRANCH   6   9
ATOM      9  C   UNL     1       4.881   0.944  25.932  0.00  0.00    +0.103 C 
BRANCH   9  10
ATOM     10  N   UNL     1       5.298   0.930  24.529  0.00  0.00    -0.328 NA
ATOM     11  H   UNL     1       6.170   0.407  24.462  0.00  0.00    +0.118 HD
ATOM     12  H   UNL     1       4.612   0.390  24.005  0.00  0.00    +0.118 HD
ENDBRANCH   9  10
ENDBRANCH   6   9
ENDBRANCH   3   6
ENDBRANCH   1   2
BRANCH   1  13
ATOM     13  N   UNL     1       8.023  -2.706  25.274  0.00  0.00    -0.290 NA
ATOM     14  H   UNL     1       8.399  -2.715  24.319  0.00  0.00    +0.124 HD
BRANCH  13  15
ATOM     15  C   UNL     1       8.084  -4.088  25.835  0.00  0.00    +0.190 C 
BRANCH  15  16
ATOM     16  C   UNL     1       6.882  -4.897  25.368  0.00  0.00    -0.022 A 
ATOM     17  C   UNL     1       6.531  -4.923  24.007  0.00  0.00    +0.008 A 
ATOM     18  C   UNL     1       5.484  -5.730  23.564  0.00  0.00    +0.038 A 
ATOM     19  C   UNL     1       4.781  -6.506  24.476  0.00  0.00    +0.123 A 
ATOM     20  F   UNL     1       3.788  -7.295  24.043  0.00  0.00    -0.205 F 
ATOM     21  C   UNL     1       5.096  -6.484  25.828  0.00  0.00    +0.038 A 
ATOM     22  C   UNL     1       6.145  -5.680  26.276  0.00  0.00    +0.008 A 
ENDBRANCH  15  16
BRANCH  15  23
ATOM     23  C   UNL     1       9.448  -4.838  25.600  0.00  0.00    +0.409 C 
ATOM     24  F   UNL     1       9.313  -6.114  25.183  0.00  0.00    -0.169 F 
ATOM     25  F   UNL     1      10.170  -4.861  26.749  0.00  0.00    -0.169 F 
ATOM     26  F   UNL     1      10.208  -4.190  24.680  0.00  0.00    -0.169 F 
ENDBRANCH  15  23
ENDBRANCH  13  15
ENDBRANCH   1  13
BRANCH   1  27
ATOM     27  C   UNL     1       9.603  -0.719  25.237  0.00  0.00    +0.213 C 
BRANCH  27  28
ATOM     28  S   UNL     1       9.143  -0.758  23.503  0.00  0.00    +0.034 S 
ATOM     29  O   UNL     1       7.719  -0.504  23.442  0.00  0.00    -0.158 OA
ATOM     30  O   UNL     1       9.718  -1.900  22.837  0.00  0.00    -0.158 OA
BRANCH  28  31
ATOM     31  N   UNL     1       9.945   0.637  22.947  0.00  0.00    -0.177 NA
ATOM     32  C   UNL     1      10.194   1.710  23.959  0.00  0.00    +0.137 C 
ATOM     33  C   UNL     1       8.953   2.585  24.143  0.00  0.00    +0.177 C 
ATOM     34  O   UNL     1       8.584   3.195  22.897  0.00  0.00    -0.377 OA
ATOM     35  C   UNL     1       8.252   2.192  21.926  0.00  0.00    +0.177 C 
ATOM     36  C   UNL     1       9.432   1.242  21.671  0.00  0.00    +0.137 C 
ENDBRANCH  28  31
ENDBRANCH  27  28
ENDBRANCH   1  27
TORSDOF 11
ENDMDL
