MODEL 1
REMARK VINA RESULT:      -7.2      0.000      0.000
REMARK  Name = 
REMARK  7 active torsions:
REMARK  status: ('A' for Active; 'I' for Inactive)
REMARK    1  A    between atoms: N_9  and  C_10
REMARK    2  A    between atoms: C_13  and  O_15
REMARK    3  A    between atoms: C_16  and  C_18
REMARK    4  A    between atoms: C_18  and  O_19
REMARK    5  A    between atoms: O_19  and  P_20
REMARK    6  A    between atoms: P_20  and  O_21
REMARK    7  A    between atoms: P_20  and  O_22
REMARK                            x       y       z     vdW  Elec       q    Type
REMARK                         _______ _______ _______ _____ _____    ______ ____
ROOT
ATOM      1  N   UNL     1       6.731  -5.919  27.757  0.00  0.00    -0.329 N 
ATOM      2  H   UNL     1       6.125  -6.303  28.468  0.00  0.00    +0.145 HD
ATOM      3  H   UNL     1       7.237  -5.092  28.059  0.00  0.00    +0.145 HD
ATOM      4  C   UNL     1       6.260  -5.818  26.492  0.00  0.00    +0.195 A 
ATOM      5  N   UNL     1       5.318  -6.736  26.103  0.00  0.00    -0.294 N 
ATOM      6  H   UNL     1       5.025  -7.464  26.736  0.00  0.00    +0.172 HD
ATOM      7  C   UNL     1       4.764  -6.767  24.845  0.00  0.00    +0.278 A 
ATOM      8  O   UNL     1       3.928  -7.586  24.488  0.00  0.00    -0.265 OA
ATOM      9  C   UNL     1       5.273  -5.711  23.976  0.00  0.00    +0.151 A 
ATOM     10  N   UNL     1       4.964  -5.413  22.683  0.00  0.00    -0.300 N 
ATOM     11  H   UNL     1       4.310  -5.907  22.094  0.00  0.00    +0.171 HD
ATOM     12  C   UNL     1       5.720  -4.288  22.311  0.00  0.00    +0.331 A 
ATOM     13  N   UNL     1       6.472  -3.947  23.465  0.00  0.00    -0.250 N 
ATOM     14  O   UNL     1       5.693  -3.731  21.228  0.00  0.00    -0.246 OA
ATOM     15  C   UNL     1       6.181  -4.858  24.455  0.00  0.00    +0.172 A 
ATOM     16  N   UNL     1       6.701  -4.878  25.712  0.00  0.00    -0.196 NA
ENDROOT
BRANCH  13  17
ATOM     17  C   UNL     1       7.376  -2.837  23.492  0.00  0.00    +0.228 C 
ATOM     18  O   UNL     1       6.677  -1.605  23.216  0.00  0.00    -0.348 OA
ATOM     19  C   UNL     1       7.629  -0.680  22.643  0.00  0.00    +0.175 C 
ATOM     20  C   UNL     1       8.973  -1.414  22.556  0.00  0.00    +0.150 C 
ATOM     21  C   UNL     1       8.548  -2.861  22.529  0.00  0.00    +0.088 C 
BRANCH  20  22
ATOM     22  O   UNL     1       9.741  -1.096  21.407  0.00  0.00    -0.389 OA
ATOM     23  H   UNL     1       9.137  -0.858  20.682  0.00  0.00    +0.210 HD
ENDBRANCH  20  22
BRANCH  19  24
ATOM     24  C   UNL     1       7.701   0.584  23.506  0.00  0.00    +0.206 C 
BRANCH  24  25
ATOM     25  O   UNL     1       7.983   1.729  22.715  0.00  0.00    -0.284 OA
BRANCH  25  26
ATOM     26  P   UNL     1       9.545   2.410  23.015  0.00  0.00    +0.472 P 
ATOM     27  O   UNL     1      10.943   3.020  23.284  0.00  0.00    -0.228 OA
BRANCH  26  28
ATOM     28  O   UNL     1       8.844   3.834  22.614  0.00  0.00    -0.303 OA
ATOM     29  H   UNL     1       9.447   4.431  22.147  0.00  0.00    +0.222 HD
ENDBRANCH  26  28
BRANCH  26  30
ATOM     30  O   UNL     1       9.887   1.941  21.485  0.00  0.00    -0.303 OA
ATOM     31  H   UNL     1      10.512   2.528  21.033  0.00  0.00    +0.222 HD
ENDBRANCH  26  30
ENDBRANCH  25  26
ENDBRANCH  24  25
ENDBRANCH  19  24
ENDBRANCH  13  17
TORSDOF 7
ENDMDL
MODEL 2
REMARK VINA RESULT:      -7.2      3.863      7.674
REMARK  Name = 
REMARK  7 active torsions:
REMARK  status: ('A' for Active; 'I' for Inactive)
REMARK    1  A    between atoms: N_9  and  C_10
REMARK    2  A    between atoms: C_13  and  O_15
REMARK    3  A    between atoms: C_16  and  C_18
REMARK    4  A    between atoms: C_18  and  O_19
REMARK    5  A    between atoms: O_19  and  P_20
REMARK    6  A    between atoms: P_20  and  O_21
REMARK    7  A    between atoms: P_20  and  O_22
REMARK                            x       y       z     vdW  Elec       q    Type
REMARK                         _______ _______ _______ _____ _____    ______ ____
ROOT
ATOM      1  N   UNL     1       6.007   1.851  22.615  0.00  0.00    -0.329 N 
ATOM      2  H   UNL     1       6.022   2.820  22.899  0.00  0.00    +0.145 HD
ATOM      3  H   UNL     1       5.114   1.394  22.778  0.00  0.00    +0.145 HD
ATOM      4  C   UNL     1       7.066   1.068  22.927  0.00  0.00    +0.195 A 
ATOM      5  N   UNL     1       8.286   1.685  23.033  0.00  0.00    -0.294 N 
ATOM      6  H   UNL     1       8.375   2.673  22.852  0.00  0.00    +0.172 HD
ATOM      7  C   UNL     1       9.451   1.015  23.326  0.00  0.00    +0.278 A 
ATOM      8  O   UNL     1      10.544   1.557  23.417  0.00  0.00    -0.265 OA
ATOM      9  C   UNL     1       9.247  -0.415  23.528  0.00  0.00    +0.151 A 
ATOM     10  N   UNL     1      10.141  -1.394  23.839  0.00  0.00    -0.300 N 
ATOM     11  H   UNL     1      11.134  -1.278  23.975  0.00  0.00    +0.171 HD
ATOM     12  C   UNL     1       9.432  -2.604  23.941  0.00  0.00    +0.331 A 
ATOM     13  N   UNL     1       8.078  -2.266  23.682  0.00  0.00    -0.250 N 
ATOM     14  O   UNL     1       9.905  -3.693  24.218  0.00  0.00    -0.246 OA
ATOM     15  C   UNL     1       8.014  -0.916  23.415  0.00  0.00    +0.172 A 
ATOM     16  N   UNL     1       6.894  -0.206  23.116  0.00  0.00    -0.196 NA
ENDROOT
BRANCH  13  17
ATOM     17  C   UNL     1       7.028  -3.238  23.696  0.00  0.00    +0.228 C 
ATOM     18  O   UNL     1       7.121  -4.072  24.870  0.00  0.00    -0.348 OA
ATOM     19  C   UNL     1       6.513  -5.345  24.552  0.00  0.00    +0.175 C 
ATOM     20  C   UNL     1       6.047  -5.270  23.093  0.00  0.00    +0.150 C 
ATOM     21  C   UNL     1       6.943  -4.198  22.523  0.00  0.00    +0.088 C 
BRANCH  20  22
ATOM     22  O   UNL     1       6.191  -6.480  22.369  0.00  0.00    -0.389 OA
ATOM     23  H   UNL     1       7.137  -6.704  22.316  0.00  0.00    +0.210 HD
ENDBRANCH  20  22
BRANCH  19  24
ATOM     24  C   UNL     1       5.365  -5.623  25.527  0.00  0.00    +0.206 C 
BRANCH  24  25
ATOM     25  O   UNL     1       5.734  -6.601  26.487  0.00  0.00    -0.284 OA
BRANCH  25  26
ATOM     26  P   UNL     1       5.871  -5.977  28.095  0.00  0.00    +0.472 P 
ATOM     27  O   UNL     1       5.993  -5.418  29.534  0.00  0.00    -0.228 OA
BRANCH  26  28
ATOM     28  O   UNL     1       7.484  -6.132  27.866  0.00  0.00    -0.303 OA
ATOM     29  H   UNL     1       7.830  -6.975  28.193  0.00  0.00    +0.222 HD
ENDBRANCH  26  28
BRANCH  26  30
ATOM     30  O   UNL     1       5.607  -7.522  28.566  0.00  0.00    -0.303 OA
ATOM     31  H   UNL     1       5.622  -7.639  29.527  0.00  0.00    +0.222 HD
ENDBRANCH  26  30
ENDBRANCH  25  26
ENDBRANCH  24  25
ENDBRANCH  19  24
ENDBRANCH  13  17
TORSDOF 7
ENDMDL
MODEL 3
REMARK VINA RESULT:      -7.1      1.515      2.744
REMARK  Name = 
REMARK  7 active torsions:
REMARK  status: ('A' for Active; 'I' for Inactive)
REMARK    1  A    between atoms: N_9  and  C_10
REMARK    2  A    between atoms: C_13  and  O_15
REMARK    3  A    between atoms: C_16  and  C_18
REMARK    4  A    between atoms: C_18  and  O_19
REMARK    5  A    between atoms: O_19  and  P_20
REMARK    6  A    between atoms: P_20  and  O_21
REMARK    7  A    between atoms: P_20  and  O_22
REMARK                            x       y       z     vdW  Elec       q    Type
REMARK                         _______ _______ _______ _____ _____    ______ ____
ROOT
ATOM      1  N   UNL     1       6.106  -5.629  20.699  0.00  0.00    -0.329 N 
ATOM      2  H   UNL     1       5.985  -6.504  20.209  0.00  0.00    +0.145 HD
ATOM      3  H   UNL     1       6.882  -5.074  20.349  0.00  0.00    +0.145 HD
ATOM      4  C   UNL     1       6.018  -5.625  22.049  0.00  0.00    +0.195 A 
ATOM      5  N   UNL     1       5.210  -6.572  22.623  0.00  0.00    -0.294 N 
ATOM      6  H   UNL     1       4.688  -7.214  22.047  0.00  0.00    +0.172 HD
ATOM      7  C   UNL     1       5.010  -6.676  23.980  0.00  0.00    +0.278 A 
ATOM      8  O   UNL     1       4.286  -7.514  24.500  0.00  0.00    -0.265 OA
ATOM      9  C   UNL     1       5.762  -5.684  24.741  0.00  0.00    +0.151 A 
ATOM     10  N   UNL     1       5.832  -5.477  26.085  0.00  0.00    -0.300 N 
ATOM     11  H   UNL     1       5.342  -5.997  26.798  0.00  0.00    +0.171 HD
ATOM     12  C   UNL     1       6.714  -4.406  26.308  0.00  0.00    +0.331 A 
ATOM     13  N   UNL     1       7.157  -4.014  25.018  0.00  0.00    -0.250 N 
ATOM     14  O   UNL     1       7.030  -3.949  27.393  0.00  0.00    -0.246 OA
ATOM     15  C   UNL     1       6.533  -4.812  24.086  0.00  0.00    +0.172 A 
ATOM     16  N   UNL     1       6.689  -4.751  22.737  0.00  0.00    -0.196 NA
ENDROOT
BRANCH  13  17
ATOM     17  C   UNL     1       8.082  -2.940  24.818  0.00  0.00    +0.228 C 
ATOM     18  O   UNL     1       7.440  -1.833  24.152  0.00  0.00    -0.348 OA
ATOM     19  C   UNL     1       8.460  -1.103  23.432  0.00  0.00    +0.175 C 
ATOM     20  C   UNL     1       9.788  -1.832  23.670  0.00  0.00    +0.150 C 
ATOM     21  C   UNL     1       9.332  -3.230  24.007  0.00  0.00    +0.088 C 
BRANCH  20  22
ATOM     22  O   UNL     1      10.658  -1.845  22.551  0.00  0.00    -0.389 OA
ATOM     23  H   UNL     1      10.882  -2.768  22.338  0.00  0.00    +0.210 HD
ENDBRANCH  20  22
BRANCH  19  24
ATOM     24  C   UNL     1       8.488   0.350  23.915  0.00  0.00    +0.206 C 
BRANCH  24  25
ATOM     25  O   UNL     1       8.726   1.244  22.837  0.00  0.00    -0.284 OA
BRANCH  25  26
ATOM     26  P   UNL     1      10.012   2.362  23.134  0.00  0.00    +0.472 P 
ATOM     27  O   UNL     1      11.164   3.363  23.401  0.00  0.00    -0.228 OA
BRANCH  26  28
ATOM     28  O   UNL     1       8.863   3.513  22.956  0.00  0.00    -0.303 OA
ATOM     29  H   UNL     1       7.972   3.144  22.865  0.00  0.00    +0.222 HD
ENDBRANCH  26  28
BRANCH  26  30
ATOM     30  O   UNL     1      10.342   2.188  21.541  0.00  0.00    -0.303 OA
ATOM     31  H   UNL     1      11.288   2.234  21.337  0.00  0.00    +0.222 HD
ENDBRANCH  26  30
ENDBRANCH  25  26
ENDBRANCH  24  25
ENDBRANCH  19  24
ENDBRANCH  13  17
TORSDOF 7
ENDMDL
MODEL 4
REMARK VINA RESULT:      -6.9      5.092      8.256
REMARK  Name = 
REMARK  7 active torsions:
REMARK  status: ('A' for Active; 'I' for Inactive)
REMARK    1  A    between atoms: N_9  and  C_10
REMARK    2  A    between atoms: C_13  and  O_15
REMARK    3  A    between atoms: C_16  and  C_18
REMARK    4  A    between atoms: C_18  and  O_19
REMARK    5  A    between atoms: O_19  and  P_20
REMARK    6  A    between atoms: P_20  and  O_21
REMARK    7  A    between atoms: P_20  and  O_22
REMARK                            x       y       z     vdW  Elec       q    Type
REMARK                         _______ _______ _______ _____ _____    ______ ____
ROOT
ATOM      1  N   UNL     1       3.836   2.986  22.236  0.00  0.00    -0.329 N 
ATOM      2  H   UNL     1       3.105   3.584  22.595  0.00  0.00    +0.145 HD
ATOM      3  H   UNL     1       3.672   1.998  22.410  0.00  0.00    +0.145 HD
ATOM      4  C   UNL     1       5.124   3.351  22.431  0.00  0.00    +0.195 A 
ATOM      5  N   UNL     1       5.384   4.695  22.521  0.00  0.00    -0.294 N 
ATOM      6  H   UNL     1       4.639   5.365  22.413  0.00  0.00    +0.172 HD
ATOM      7  C   UNL     1       6.646   5.212  22.699  0.00  0.00    +0.278 A 
ATOM      8  O   UNL     1       6.887   6.409  22.774  0.00  0.00    -0.265 OA
ATOM      9  C   UNL     1       7.672   4.180  22.799  0.00  0.00    +0.151 A 
ATOM     10  N   UNL     1       9.016   4.295  22.986  0.00  0.00    -0.300 N 
ATOM     11  H   UNL     1       9.538   5.154  23.078  0.00  0.00    +0.171 HD
ATOM     12  C   UNL     1       9.554   2.997  23.030  0.00  0.00    +0.331 A 
ATOM     13  N   UNL     1       8.444   2.128  22.870  0.00  0.00    -0.250 N 
ATOM     14  O   UNL     1      10.727   2.710  23.196  0.00  0.00    -0.246 OA
ATOM     15  C   UNL     1       7.313   2.897  22.713  0.00  0.00    +0.172 A 
ATOM     16  N   UNL     1       6.045   2.440  22.529  0.00  0.00    -0.196 NA
ENDROOT
BRANCH  13  17
ATOM     17  C   UNL     1       8.579   0.702  22.863  0.00  0.00    +0.228 C 
ATOM     18  O   UNL     1       9.068   0.231  24.136  0.00  0.00    -0.348 OA
ATOM     19  C   UNL     1       9.764  -1.015  23.903  0.00  0.00    +0.175 C 
ATOM     20  C   UNL     1       9.699  -1.292  22.396  0.00  0.00    +0.150 C 
ATOM     21  C   UNL     1       9.498   0.089  21.823  0.00  0.00    +0.088 C 
BRANCH  20  22
ATOM     22  O   UNL     1      10.866  -1.892  21.860  0.00  0.00    -0.389 OA
ATOM     23  H   UNL     1      11.105  -1.434  21.035  0.00  0.00    +0.210 HD
ENDBRANCH  20  22
BRANCH  19  24
ATOM     24  C   UNL     1       9.118  -2.126  24.737  0.00  0.00    +0.206 C 
BRANCH  24  25
ATOM     25  O   UNL     1       9.617  -3.402  24.363  0.00  0.00    -0.284 OA
BRANCH  25  26
ATOM     26  P   UNL     1       8.900  -4.710  25.240  0.00  0.00    +0.472 P 
ATOM     27  O   UNL     1       8.258  -5.881  26.024  0.00  0.00    -0.228 OA
BRANCH  26  28
ATOM     28  O   UNL     1      10.405  -5.352  25.235  0.00  0.00    -0.303 OA
ATOM     29  H   UNL     1      10.426  -6.265  25.557  0.00  0.00    +0.222 HD
ENDBRANCH  26  28
BRANCH  26  30
ATOM     30  O   UNL     1       8.461  -5.270  23.766  0.00  0.00    -0.303 OA
ATOM     31  H   UNL     1       8.644  -4.646  23.048  0.00  0.00    +0.222 HD
ENDBRANCH  26  30
ENDBRANCH  25  26
ENDBRANCH  24  25
ENDBRANCH  19  24
ENDBRANCH  13  17
TORSDOF 7
ENDMDL
MODEL 5
REMARK VINA RESULT:      -6.9      2.593      3.271
REMARK  Name = 
REMARK  7 active torsions:
REMARK  status: ('A' for Active; 'I' for Inactive)
REMARK    1  A    between atoms: N_9  and  C_10
REMARK    2  A    between atoms: C_13  and  O_15
REMARK    3  A    between atoms: C_16  and  C_18
REMARK    4  A    between atoms: C_18  and  O_19
REMARK    5  A    between atoms: O_19  and  P_20
REMARK    6  A    between atoms: P_20  and  O_21
REMARK    7  A    between atoms: P_20  and  O_22
REMARK                            x       y       z     vdW  Elec       q    Type
REMARK                         _______ _______ _______ _____ _____    ______ ____
ROOT
ATOM      1  N   UNL     1       4.670  -2.170  27.382  0.00  0.00    -0.329 N 
ATOM      2  H   UNL     1       3.734  -2.496  27.578  0.00  0.00    +0.145 HD
ATOM      3  H   UNL     1       4.699  -1.404  26.714  0.00  0.00    +0.145 HD
ATOM      4  C   UNL     1       5.647  -3.085  27.181  0.00  0.00    +0.195 A 
ATOM      5  N   UNL     1       5.512  -4.290  27.822  0.00  0.00    -0.294 N 
ATOM      6  H   UNL     1       4.729  -4.455  28.435  0.00  0.00    +0.172 HD
ATOM      7  C   UNL     1       6.434  -5.306  27.727  0.00  0.00    +0.278 A 
ATOM      8  O   UNL     1       6.324  -6.381  28.300  0.00  0.00    -0.265 OA
ATOM      9  C   UNL     1       7.559  -4.971  26.860  0.00  0.00    +0.151 A 
ATOM     10  N   UNL     1       8.649  -5.708  26.514  0.00  0.00    -0.300 N 
ATOM     11  H   UNL     1       8.865  -6.644  26.826  0.00  0.00    +0.171 HD
ATOM     12  C   UNL     1       9.428  -4.934  25.636  0.00  0.00    +0.331 A 
ATOM     13  N   UNL     1       8.720  -3.714  25.487  0.00  0.00    -0.250 N 
ATOM     14  O   UNL     1      10.474  -5.276  25.111  0.00  0.00    -0.246 OA
ATOM     15  C   UNL     1       7.589  -3.773  26.271  0.00  0.00    +0.172 A 
ATOM     16  N   UNL     1       6.649  -2.800  26.406  0.00  0.00    -0.196 NA
ENDROOT
BRANCH  13  17
ATOM     17  C   UNL     1       9.192  -2.647  24.657  0.00  0.00    +0.228 C 
ATOM     18  O   UNL     1       9.262  -1.414  25.403  0.00  0.00    -0.348 OA
ATOM     19  C   UNL     1       9.115  -0.325  24.463  0.00  0.00    +0.175 C 
ATOM     20  C   UNL     1       8.928  -0.950  23.075  0.00  0.00    +0.150 C 
ATOM     21  C   UNL     1       8.394  -2.321  23.409  0.00  0.00    +0.088 C 
BRANCH  20  22
ATOM     22  O   UNL     1       8.025  -0.251  22.235  0.00  0.00    -0.389 OA
ATOM     23  H   UNL     1       7.116  -0.515  22.462  0.00  0.00    +0.210 HD
ENDBRANCH  20  22
BRANCH  19  24
ATOM     24  C   UNL     1      10.342   0.588  24.540  0.00  0.00    +0.206 C 
BRANCH  24  25
ATOM     25  O   UNL     1      10.493   1.344  23.347  0.00  0.00    -0.284 OA
BRANCH  25  26
ATOM     26  P   UNL     1       9.617   2.835  23.355  0.00  0.00    +0.472 P 
ATOM     27  O   UNL     1       8.832   4.170  23.363  0.00  0.00    -0.228 OA
BRANCH  26  28
ATOM     28  O   UNL     1       9.242   2.460  21.807  0.00  0.00    -0.303 OA
ATOM     29  H   UNL     1      10.017   2.444  21.227  0.00  0.00    +0.222 HD
ENDBRANCH  26  28
BRANCH  26  30
ATOM     30  O   UNL     1      11.064   3.524  23.028  0.00  0.00    -0.303 OA
ATOM     31  H   UNL     1      11.516   3.128  22.268  0.00  0.00    +0.222 HD
ENDBRANCH  26  30
ENDBRANCH  25  26
ENDBRANCH  24  25
ENDBRANCH  19  24
ENDBRANCH  13  17
TORSDOF 7
ENDMDL
MODEL 6
REMARK VINA RESULT:      -6.9      2.543      3.987
REMARK  Name = 
REMARK  7 active torsions:
REMARK  status: ('A' for Active; 'I' for Inactive)
REMARK    1  A    between atoms: N_9  and  C_10
REMARK    2  A    between atoms: C_13  and  O_15
REMARK    3  A    between atoms: C_16  and  C_18
REMARK    4  A    between atoms: C_18  and  O_19
REMARK    5  A    between atoms: O_19  and  P_20
REMARK    6  A    between atoms: P_20  and  O_21
REMARK    7  A    between atoms: P_20  and  O_22
REMARK                            x       y       z     vdW  Elec       q    Type
REMARK                         _______ _______ _______ _____ _____    ______ ____
ROOT
ATOM      1  N   UNL     1       2.492  -6.991  25.384  0.00  0.00    -0.329 N 
ATOM      2  H   UNL     1       1.959  -7.802  25.666  0.00  0.00    +0.145 HD
ATOM      3  H   UNL     1       2.535  -6.866  24.377  0.00  0.00    +0.145 HD
ATOM      4  C   UNL     1       3.672  -6.746  25.999  0.00  0.00    +0.195 A 
ATOM      5  N   UNL     1       3.800  -7.175  27.295  0.00  0.00    -0.294 N 
ATOM      6  H   UNL     1       3.027  -7.624  27.761  0.00  0.00    +0.172 HD
ATOM      7  C   UNL     1       4.933  -6.980  28.050  0.00  0.00    +0.278 A 
ATOM      8  O   UNL     1       5.053  -7.354  29.208  0.00  0.00    -0.265 OA
ATOM      9  C   UNL     1       5.987  -6.284  27.319  0.00  0.00    +0.151 A 
ATOM     10  N   UNL     1       7.238  -5.922  27.716  0.00  0.00    -0.300 N 
ATOM     11  H   UNL     1       7.648  -6.079  28.626  0.00  0.00    +0.171 HD
ATOM     12  C   UNL     1       7.867  -5.290  26.629  0.00  0.00    +0.331 A 
ATOM     13  N   UNL     1       6.912  -5.318  25.580  0.00  0.00    -0.250 N 
ATOM     14  O   UNL     1       9.001  -4.845  26.615  0.00  0.00    -0.246 OA
ATOM     15  C   UNL     1       5.767  -5.919  26.054  0.00  0.00    +0.172 A 
ATOM     16  N   UNL     1       4.620  -6.133  25.356  0.00  0.00    -0.196 NA
ENDROOT
BRANCH  13  17
ATOM     17  C   UNL     1       7.176  -4.765  24.286  0.00  0.00    +0.228 C 
ATOM     18  O   UNL     1       6.607  -3.445  24.170  0.00  0.00    -0.348 OA
ATOM     19  C   UNL     1       6.336  -3.206  22.770  0.00  0.00    +0.175 C 
ATOM     20  C   UNL     1       6.753  -4.471  22.009  0.00  0.00    +0.150 C 
ATOM     21  C   UNL     1       6.671  -5.532  23.078  0.00  0.00    +0.088 C 
BRANCH  20  22
ATOM     22  O   UNL     1       5.916  -4.798  20.913  0.00  0.00    -0.389 OA
ATOM     23  H   UNL     1       5.279  -4.074  20.777  0.00  0.00    +0.210 HD
ENDBRANCH  20  22
BRANCH  19  24
ATOM     24  C   UNL     1       7.094  -1.959  22.306  0.00  0.00    +0.206 C 
BRANCH  24  25
ATOM     25  O   UNL     1       8.456  -2.259  22.036  0.00  0.00    -0.284 OA
BRANCH  25  26
ATOM     26  P   UNL     1       9.566  -1.429  23.071  0.00  0.00    +0.472 P 
ATOM     27  O   UNL     1      10.560  -0.686  23.997  0.00  0.00    -0.228 OA
BRANCH  26  28
ATOM     28  O   UNL     1      10.620  -1.586  21.829  0.00  0.00    -0.303 OA
ATOM     29  H   UNL     1      11.291  -2.266  21.989  0.00  0.00    +0.222 HD
ENDBRANCH  26  28
BRANCH  26  30
ATOM     30  O   UNL     1       9.839  -2.904  23.725  0.00  0.00    -0.303 OA
ATOM     31  H   UNL     1      10.701  -3.276  23.487  0.00  0.00    +0.222 HD
ENDBRANCH  26  30
ENDBRANCH  25  26
ENDBRANCH  24  25
ENDBRANCH  19  24
ENDBRANCH  13  17
TORSDOF 7
ENDMDL
MODEL 7
REMARK VINA RESULT:      -6.8      3.622      6.998
REMARK  Name = 
REMARK  7 active torsions:
REMARK  status: ('A' for Active; 'I' for Inactive)
REMARK    1  A    between atoms: N_9  and  C_10
REMARK    2  A    between atoms: C_13  and  O_15
REMARK    3  A    between atoms: C_16  and  C_18
REMARK    4  A    between atoms: C_18  and  O_19
REMARK    5  A    between atoms: O_19  and  P_20
REMARK    6  A    between atoms: P_20  and  O_21
REMARK    7  A    between atoms: P_20  and  O_22
REMARK                            x       y       z     vdW  Elec       q    Type
REMARK                         _______ _______ _______ _____ _____    ______ ____
ROOT
ATOM      1  N   UNL     1       6.640   0.539  27.416  0.00  0.00    -0.329 N 
ATOM      2  H   UNL     1       6.750   1.275  28.099  0.00  0.00    +0.145 HD
ATOM      3  H   UNL     1       6.439  -0.368  27.827  0.00  0.00    +0.145 HD
ATOM      4  C   UNL     1       7.520   0.472  26.390  0.00  0.00    +0.195 A 
ATOM      5  N   UNL     1       8.084   1.651  25.974  0.00  0.00    -0.294 N 
ATOM      6  H   UNL     1       7.817   2.522  26.406  0.00  0.00    +0.172 HD
ATOM      7  C   UNL     1       8.978   1.738  24.934  0.00  0.00    +0.278 A 
ATOM      8  O   UNL     1       9.481   2.786  24.553  0.00  0.00    -0.265 OA
ATOM      9  C   UNL     1       9.276   0.442  24.332  0.00  0.00    +0.151 A 
ATOM     10  N   UNL     1      10.107   0.122  23.303  0.00  0.00    -0.300 N 
ATOM     11  H   UNL     1      10.668   0.765  22.763  0.00  0.00    +0.171 HD
ATOM     12  C   UNL     1      10.051  -1.271  23.124  0.00  0.00    +0.331 A 
ATOM     13  N   UNL     1       9.149  -1.738  24.115  0.00  0.00    -0.250 N 
ATOM     14  O   UNL     1      10.675  -1.915  22.299  0.00  0.00    -0.246 OA
ATOM     15  C   UNL     1       8.683  -0.651  24.821  0.00  0.00    +0.172 A 
ATOM     16  N   UNL     1       7.797  -0.678  25.852  0.00  0.00    -0.196 NA
ENDROOT
BRANCH  13  17
ATOM     17  C   UNL     1       8.822  -3.123  24.264  0.00  0.00    +0.228 C 
ATOM     18  O   UNL     1       7.399  -3.326  24.138  0.00  0.00    -0.348 OA
ATOM     19  C   UNL     1       7.058  -4.516  24.886  0.00  0.00    +0.175 C 
ATOM     20  C   UNL     1       8.357  -5.042  25.510  0.00  0.00    +0.150 C 
ATOM     21  C   UNL     1       9.214  -3.802  25.563  0.00  0.00    +0.088 C 
BRANCH  20  22
ATOM     22  O   UNL     1       8.201  -5.600  26.804  0.00  0.00    -0.389 OA
ATOM     23  H   UNL     1       7.701  -4.974  27.358  0.00  0.00    +0.210 HD
ENDBRANCH  20  22
BRANCH  19  24
ATOM     24  C   UNL     1       6.394  -5.535  23.955  0.00  0.00    +0.206 C 
BRANCH  24  25
ATOM     25  O   UNL     1       7.258  -5.891  22.886  0.00  0.00    -0.284 OA
BRANCH  25  26
ATOM     26  P   UNL     1       6.514  -5.785  21.328  0.00  0.00    +0.472 P 
ATOM     27  O   UNL     1       5.847  -5.691  19.933  0.00  0.00    -0.228 OA
BRANCH  26  28
ATOM     28  O   UNL     1       6.471  -4.175  21.614  0.00  0.00    -0.303 OA
ATOM     29  H   UNL     1       6.412  -3.962  22.557  0.00  0.00    +0.222 HD
ENDBRANCH  26  28
BRANCH  26  30
ATOM     30  O   UNL     1       5.129  -6.146  22.122  0.00  0.00    -0.303 OA
ATOM     31  H   UNL     1       5.088  -5.769  23.013  0.00  0.00    +0.222 HD
ENDBRANCH  26  30
ENDBRANCH  25  26
ENDBRANCH  24  25
ENDBRANCH  19  24
ENDBRANCH  13  17
TORSDOF 7
ENDMDL
MODEL 8
REMARK VINA RESULT:      -6.8      3.939      7.280
REMARK  Name = 
REMARK  7 active torsions:
REMARK  status: ('A' for Active; 'I' for Inactive)
REMARK    1  A    between atoms: N_9  and  C_10
REMARK    2  A    between atoms: C_13  and  O_15
REMARK    3  A    between atoms: C_16  and  C_18
REMARK    4  A    between atoms: C_18  and  O_19
REMARK    5  A    between atoms: O_19  and  P_20
REMARK    6  A    between atoms: P_20  and  O_21
REMARK    7  A    between atoms: P_20  and  O_22
REMARK                            x       y       z     vdW  Elec       q    Type
REMARK                         _______ _______ _______ _____ _____    ______ ____
ROOT
ATOM      1  N   UNL     1       7.689   0.595  27.680  0.00  0.00    -0.329 N 
ATOM      2  H   UNL     1       8.395   0.983  28.290  0.00  0.00    +0.145 HD
ATOM      3  H   UNL     1       6.942   0.120  28.178  0.00  0.00    +0.145 HD
ATOM      4  C   UNL     1       8.086  -0.064  26.567  0.00  0.00    +0.195 A 
ATOM      5  N   UNL     1       9.273   0.328  26.002  0.00  0.00    -0.294 N 
ATOM      6  H   UNL     1       9.796   1.094  26.396  0.00  0.00    +0.172 HD
ATOM      7  C   UNL     1       9.792  -0.238  24.861  0.00  0.00    +0.278 A 
ATOM      8  O   UNL     1      10.847   0.109  24.348  0.00  0.00    -0.265 OA
ATOM      9  C   UNL     1       8.954  -1.307  24.327  0.00  0.00    +0.151 A 
ATOM     10  N   UNL     1       9.133  -2.099  23.234  0.00  0.00    -0.300 N 
ATOM     11  H   UNL     1       9.906  -2.062  22.586  0.00  0.00    +0.171 HD
ATOM     12  C   UNL     1       8.045  -2.986  23.166  0.00  0.00    +0.331 A 
ATOM     13  N   UNL     1       7.235  -2.669  24.288  0.00  0.00    -0.250 N 
ATOM     14  O   UNL     1       7.874  -3.851  22.324  0.00  0.00    -0.246 OA
ATOM     15  C   UNL     1       7.821  -1.620  24.960  0.00  0.00    +0.172 A 
ATOM     16  N   UNL     1       7.351  -1.021  26.087  0.00  0.00    -0.196 NA
ENDROOT
BRANCH  13  17
ATOM     17  C   UNL     1       6.017  -3.364  24.576  0.00  0.00    +0.228 C 
ATOM     18  O   UNL     1       6.290  -4.715  25.000  0.00  0.00    -0.348 OA
ATOM     19  C   UNL     1       5.134  -5.520  24.672  0.00  0.00    +0.175 C 
ATOM     20  C   UNL     1       4.118  -4.592  23.993  0.00  0.00    +0.150 C 
ATOM     21  C   UNL     1       4.997  -3.488  23.459  0.00  0.00    +0.088 C 
BRANCH  20  22
ATOM     22  O   UNL     1       3.381  -5.197  22.945  0.00  0.00    -0.389 OA
ATOM     23  H   UNL     1       2.455  -5.295  23.228  0.00  0.00    +0.210 HD
ENDBRANCH  20  22
BRANCH  19  24
ATOM     24  C   UNL     1       4.583  -6.170  25.944  0.00  0.00    +0.206 C 
BRANCH  24  25
ATOM     25  O   UNL     1       5.619  -6.787  26.694  0.00  0.00    -0.284 OA
BRANCH  25  26
ATOM     26  P   UNL     1       5.886  -6.057  28.239  0.00  0.00    +0.472 P 
ATOM     27  O   UNL     1       6.124  -5.403  29.623  0.00  0.00    -0.228 OA
BRANCH  26  28
ATOM     28  O   UNL     1       7.443  -5.930  27.753  0.00  0.00    -0.303 OA
ATOM     29  H   UNL     1       7.751  -5.012  27.713  0.00  0.00    +0.222 HD
ENDBRANCH  26  28
BRANCH  26  30
ATOM     30  O   UNL     1       5.994  -7.594  28.789  0.00  0.00    -0.303 OA
ATOM     31  H   UNL     1       5.204  -7.888  29.267  0.00  0.00    +0.222 HD
ENDBRANCH  26  30
ENDBRANCH  25  26
ENDBRANCH  24  25
ENDBRANCH  19  24
ENDBRANCH  13  17
TORSDOF 7
ENDMDL
MODEL 9
REMARK VINA RESULT:      -6.7      3.559      7.548
REMARK  Name = 
REMARK  7 active torsions:
REMARK  status: ('A' for Active; 'I' for Inactive)
REMARK    1  A    between atoms: N_9  and  C_10
REMARK    2  A    between atoms: C_13  and  O_15
REMARK    3  A    between atoms: C_16  and  C_18
REMARK    4  A    between atoms: C_18  and  O_19
REMARK    5  A    between atoms: O_19  and  P_20
REMARK    6  A    between atoms: P_20  and  O_21
REMARK    7  A    between atoms: P_20  and  O_22
REMARK                            x       y       z     vdW  Elec       q    Type
REMARK                         _______ _______ _______ _____ _____    ______ ____
ROOT
ATOM      1  N   UNL     1       9.044  -0.332  27.798  0.00  0.00    -0.329 N 
ATOM      2  H   UNL     1       9.828   0.254  28.049  0.00  0.00    +0.145 HD
ATOM      3  H   UNL     1       8.863  -1.075  28.468  0.00  0.00    +0.145 HD
ATOM      4  C   UNL     1       8.925  -0.738  26.512  0.00  0.00    +0.195 A 
ATOM      5  N   UNL     1       9.438   0.090  25.547  0.00  0.00    -0.294 N 
ATOM      6  H   UNL     1       9.854   0.972  25.803  0.00  0.00    +0.172 HD
ATOM      7  C   UNL     1       9.373  -0.184  24.201  0.00  0.00    +0.278 A 
ATOM      8  O   UNL     1       9.823   0.552  23.334  0.00  0.00    -0.265 OA
ATOM      9  C   UNL     1       8.716  -1.454  23.912  0.00  0.00    +0.151 A 
ATOM     10  N   UNL     1       8.474  -2.065  22.720  0.00  0.00    -0.300 N 
ATOM     11  H   UNL     1       8.714  -1.713  21.805  0.00  0.00    +0.171 HD
ATOM     12  C   UNL     1       7.827  -3.285  22.988  0.00  0.00    +0.331 A 
ATOM     13  N   UNL     1       7.721  -3.347  24.402  0.00  0.00    -0.250 N 
ATOM     14  O   UNL     1       7.469  -4.105  22.161  0.00  0.00    -0.246 OA
ATOM     15  C   UNL     1       8.262  -2.194  24.927  0.00  0.00    +0.172 A 
ATOM     16  N   UNL     1       8.348  -1.871  26.244  0.00  0.00    -0.196 NA
ENDROOT
BRANCH  13  17
ATOM     17  C   UNL     1       7.115  -4.454  25.078  0.00  0.00    +0.228 C 
ATOM     18  O   UNL     1       5.883  -4.050  25.711  0.00  0.00    -0.348 OA
ATOM     19  C   UNL     1       5.659  -4.932  26.836  0.00  0.00    +0.175 C 
ATOM     20  C   UNL     1       6.841  -5.909  26.884  0.00  0.00    +0.150 C 
ATOM     21  C   UNL     1       7.922  -5.142  26.164  0.00  0.00    +0.088 C 
BRANCH  20  22
ATOM     22  O   UNL     1       7.260  -6.256  28.193  0.00  0.00    -0.389 OA
ATOM     23  H   UNL     1       7.706  -7.121  28.161  0.00  0.00    +0.210 HD
ENDBRANCH  20  22
BRANCH  19  24
ATOM     24  C   UNL     1       4.312  -5.642  26.670  0.00  0.00    +0.206 C 
BRANCH  24  25
ATOM     25  O   UNL     1       4.460  -6.863  25.961  0.00  0.00    -0.284 OA
BRANCH  25  26
ATOM     26  P   UNL     1       3.358  -7.036  24.639  0.00  0.00    +0.472 P 
ATOM     27  O   UNL     1       2.371  -7.190  23.455  0.00  0.00    -0.228 OA
BRANCH  26  28
ATOM     28  O   UNL     1       3.094  -8.535  25.240  0.00  0.00    -0.303 OA
ATOM     29  H   UNL     1       2.979  -8.540  26.201  0.00  0.00    +0.222 HD
ENDBRANCH  26  28
BRANCH  26  30
ATOM     30  O   UNL     1       4.687  -7.423  23.766  0.00  0.00    -0.303 OA
ATOM     31  H   UNL     1       5.038  -8.303  23.971  0.00  0.00    +0.222 HD
ENDBRANCH  26  30
ENDBRANCH  25  26
ENDBRANCH  24  25
ENDBRANCH  19  24
ENDBRANCH  13  17
TORSDOF 7
ENDMDL
