MODEL 1
REMARK VINA RESULT:      -6.7      0.000      0.000
REMARK  Name = 
REMARK  16 active torsions:
REMARK  status: ('A' for Active; 'I' for Inactive)
REMARK    1  A    between atoms: N_1  and  C_2
REMARK    2  A    between atoms: C_2  and  C_3
REMARK    3  A    between atoms: C_6  and  O_8
REMARK    4  A    between atoms: O_8  and  C_9
REMARK    5  A    between atoms: C_11  and  N_13
REMARK    6  A    between atoms: C_15  and  N_17
REMARK    7  A    between atoms: C_18  and  O_20
REMARK    8  A    between atoms: O_20  and  C_21
REMARK    9  A    between atoms: C_24  and  C_26
REMARK   10  A    between atoms: C_26  and  O_27
REMARK   11  A    between atoms: C_28  and  O_30
REMARK   12  A    between atoms: C_31  and  N_33
REMARK   13  A    between atoms: C_34  and  O_36
REMARK   14  A    between atoms: C_37  and  O_39
REMARK   15  A    between atoms: C_40  and  N_42
REMARK   16  A    between atoms: C_44  and  O_46
REMARK                            x       y       z     vdW  Elec       q    Type
REMARK                         _______ _______ _______ _____ _____    ______ ____
ROOT
ATOM      1  C   UNL     1       7.960  -1.242  23.686  0.00  0.00    +0.169 C 
ATOM      2  C   UNL     1       6.953  -2.185  24.405  0.00  0.00    +0.175 C 
ATOM      3  C   UNL     1       7.644  -3.195  25.355  0.00  0.00    +0.169 C 
ATOM      4  C   UNL     1       8.807  -3.950  24.657  0.00  0.00    +0.084 C 
ATOM      5  C   UNL     1       9.748  -3.001  23.923  0.00  0.00    +0.042 C 
ATOM      6  C   UNL     1       9.002  -2.112  22.931  0.00  0.00    +0.084 C 
ENDROOT
BRANCH   6   7
ATOM      7  N   UNL     1      10.016  -1.318  22.222  0.00  0.00    -0.325 NA
ATOM      8  H   UNL     1       9.665  -0.375  22.071  0.00  0.00    +0.119 HD
ATOM      9  H   UNL     1      10.838  -1.234  22.828  0.00  0.00    +0.119 HD
ENDBRANCH   6   7
BRANCH   4  10
ATOM     10  N   UNL     1       9.645  -4.708  25.605  0.00  0.00    -0.325 NA
ATOM     11  H   UNL     1       9.874  -4.136  26.414  0.00  0.00    +0.119 HD
ATOM     12  H   UNL     1       9.142  -5.523  25.949  0.00  0.00    +0.119 HD
ENDBRANCH   4  10
BRANCH   2  13
ATOM     13  O   UNL     1       5.989  -1.457  25.192  0.00  0.00    -0.387 OA
ATOM     14  H   UNL     1       6.035  -1.781  26.121  0.00  0.00    +0.210 HD
ENDBRANCH   2  13
BRANCH   3  15
ATOM     15  O   UNL     1       6.603  -4.080  25.831  0.00  0.00    -0.341 OA
BRANCH  15  16
ATOM     16  C   UNL     1       6.297  -3.958  27.219  0.00  0.00    +0.281 C 
ATOM     17  C   UNL     1       6.359  -5.321  27.945  0.00  0.00    +0.189 C 
ATOM     18  C   UNL     1       5.220  -6.229  27.474  0.00  0.00    +0.116 C 
ATOM     19  C   UNL     1       3.874  -5.506  27.643  0.00  0.00    +0.165 C 
ATOM     20  C   UNL     1       3.924  -4.146  26.926  0.00  0.00    +0.177 C 
ATOM     21  O   UNL     1       5.015  -3.345  27.422  0.00  0.00    -0.341 OA
BRANCH  18  22
ATOM     22  N   UNL     1       5.260  -7.522  28.219  0.00  0.00    -0.323 NA
ATOM     23  H   UNL     1       5.291  -8.293  27.547  0.00  0.00    +0.119 HD
ATOM     24  H   UNL     1       6.165  -7.571  28.697  0.00  0.00    +0.119 HD
ENDBRANCH  18  22
BRANCH  17  25
ATOM     25  O   UNL     1       7.618  -5.985  27.783  0.00  0.00    -0.385 OA
ATOM     26  H   UNL     1       7.897  -6.216  28.692  0.00  0.00    +0.210 HD
ENDBRANCH  17  25
BRANCH  19  27
ATOM     27  O   UNL     1       2.813  -6.325  27.151  0.00  0.00    -0.388 OA
ATOM     28  H   UNL     1       2.425  -6.799  27.909  0.00  0.00    +0.210 HD
ENDBRANCH  19  27
BRANCH  20  29
ATOM     29  C   UNL     1       2.640  -3.341  27.151  0.00  0.00    +0.190 C 
BRANCH  29  30
ATOM     30  O   UNL     1       2.566  -2.274  26.203  0.00  0.00    -0.392 OA
ATOM     31  H   UNL     1       1.911  -1.651  26.569  0.00  0.00    +0.210 HD
ENDBRANCH  29  30
ENDBRANCH  20  29
ENDBRANCH  15  16
ENDBRANCH   3  15
BRANCH   1  32
ATOM     32  O   UNL     1       7.324  -0.341  22.738  0.00  0.00    -0.342 OA
BRANCH  32  37
ATOM     33  C   UNL     1       8.762   2.495  24.560  0.00  0.00    +0.163 C 
ATOM     34  C   UNL     1       8.948   3.544  23.441  0.00  0.00    +0.146 C 
ATOM     35  C   UNL     1       7.918   3.384  22.312  0.00  0.00    +0.057 C 
ATOM     36  C   UNL     1       7.782   1.925  21.838  0.00  0.00    +0.110 C 
ATOM     37  C   UNL     1       7.513   1.040  23.091  0.00  0.00    +0.268 C 
ATOM     38  O   UNL     1       8.592   1.177  24.015  0.00  0.00    -0.343 OA
BRANCH  36  39
ATOM     39  N   UNL     1       8.991   1.530  21.082  0.00  0.00    -0.323 NA
ATOM     40  H   UNL     1       8.718   0.746  20.476  0.00  0.00    +0.119 HD
ATOM     41  H   UNL     1       9.175   2.282  20.412  0.00  0.00    +0.119 HD
ENDBRANCH  36  39
BRANCH  34  42
ATOM     42  O   UNL     1      10.278   3.415  22.919  0.00  0.00    -0.389 OA
ATOM     43  H   UNL     1      10.317   2.605  22.375  0.00  0.00    +0.210 HD
ENDBRANCH  34  42
BRANCH  33  44
ATOM     44  C   UNL     1       7.635   2.874  25.554  0.00  0.00    +0.112 C 
BRANCH  44  45
ATOM     45  N   UNL     1       7.558   1.952  26.699  0.00  0.00    -0.328 NA
ATOM     46  H   UNL     1       6.796   2.249  27.316  0.00  0.00    +0.118 HD
ATOM     47  H   UNL     1       7.270   1.028  26.367  0.00  0.00    +0.118 HD
ENDBRANCH  44  45
ENDBRANCH  33  44
ENDBRANCH  32  37
ENDBRANCH   1  32
TORSDOF 16
ENDMDL
MODEL 2
REMARK VINA RESULT:      -6.7      2.945      4.368
REMARK  Name = 
REMARK  16 active torsions:
REMARK  status: ('A' for Active; 'I' for Inactive)
REMARK    1  A    between atoms: N_1  and  C_2
REMARK    2  A    between atoms: C_2  and  C_3
REMARK    3  A    between atoms: C_6  and  O_8
REMARK    4  A    between atoms: O_8  and  C_9
REMARK    5  A    between atoms: C_11  and  N_13
REMARK    6  A    between atoms: C_15  and  N_17
REMARK    7  A    between atoms: C_18  and  O_20
REMARK    8  A    between atoms: O_20  and  C_21
REMARK    9  A    between atoms: C_24  and  C_26
REMARK   10  A    between atoms: C_26  and  O_27
REMARK   11  A    between atoms: C_28  and  O_30
REMARK   12  A    between atoms: C_31  and  N_33
REMARK   13  A    between atoms: C_34  and  O_36
REMARK   14  A    between atoms: C_37  and  O_39
REMARK   15  A    between atoms: C_40  and  N_42
REMARK   16  A    between atoms: C_44  and  O_46
REMARK                            x       y       z     vdW  Elec       q    Type
REMARK                         _______ _______ _______ _____ _____    ______ ____
ROOT
ATOM      1  C   UNL     1       7.838   1.457  22.638  0.00  0.00    +0.169 C 
ATOM      2  C   UNL     1       7.019   0.174  22.961  0.00  0.00    +0.175 C 
ATOM      3  C   UNL     1       7.848  -0.898  23.714  0.00  0.00    +0.169 C 
ATOM      4  C   UNL     1       9.201  -1.189  23.010  0.00  0.00    +0.084 C 
ATOM      5  C   UNL     1       9.956   0.091  22.666  0.00  0.00    +0.042 C 
ATOM      6  C   UNL     1       9.105   1.049  21.836  0.00  0.00    +0.084 C 
ENDROOT
BRANCH   6   7
ATOM      7  N   UNL     1       9.963   2.190  21.487  0.00  0.00    -0.325 NA
ATOM      8  H   UNL     1       9.498   2.764  20.787  0.00  0.00    +0.119 HD
ATOM      9  H   UNL     1      10.074   2.773  22.322  0.00  0.00    +0.119 HD
ENDBRANCH   6   7
BRANCH   4  10
ATOM     10  N   UNL     1      10.115  -1.993  23.843  0.00  0.00    -0.325 NA
ATOM     11  H   UNL     1       9.670  -2.864  24.122  0.00  0.00    +0.119 HD
ATOM     12  H   UNL     1      10.950  -2.240  23.316  0.00  0.00    +0.119 HD
ENDBRANCH   4  10
BRANCH   2  13
ATOM     13  O   UNL     1       5.859   0.454  23.770  0.00  0.00    -0.387 OA
ATOM     14  H   UNL     1       5.656  -0.342  24.311  0.00  0.00    +0.210 HD
ENDBRANCH   2  13
BRANCH   3  15
ATOM     15  O   UNL     1       7.002  -2.068  23.812  0.00  0.00    -0.341 OA
BRANCH  15  16
ATOM     16  C   UNL     1       7.444  -3.195  23.059  0.00  0.00    +0.281 C 
ATOM     17  C   UNL     1       6.265  -3.944  22.397  0.00  0.00    +0.189 C 
ATOM     18  C   UNL     1       5.400  -4.625  23.460  0.00  0.00    +0.116 C 
ATOM     19  C   UNL     1       6.276  -5.525  24.347  0.00  0.00    +0.165 C 
ATOM     20  C   UNL     1       7.442  -4.704  24.924  0.00  0.00    +0.177 C 
ATOM     21  O   UNL     1       8.214  -4.098  23.868  0.00  0.00    -0.341 OA
BRANCH  18  22
ATOM     22  N   UNL     1       4.296  -5.387  22.805  0.00  0.00    -0.323 NA
ATOM     23  H   UNL     1       3.928  -6.076  23.466  0.00  0.00    +0.119 HD
ATOM     24  H   UNL     1       3.518  -4.736  22.664  0.00  0.00    +0.119 HD
ENDBRANCH  18  22
BRANCH  17  25
ATOM     25  O   UNL     1       5.458  -3.098  21.571  0.00  0.00    -0.385 OA
ATOM     26  H   UNL     1       5.515  -2.214  21.988  0.00  0.00    +0.210 HD
ENDBRANCH  17  25
BRANCH  19  27
ATOM     27  O   UNL     1       5.485  -6.117  25.377  0.00  0.00    -0.388 OA
ATOM     28  H   UNL     1       5.980  -6.876  25.737  0.00  0.00    +0.210 HD
ENDBRANCH  19  27
BRANCH  20  29
ATOM     29  C   UNL     1       8.403  -5.580  25.734  0.00  0.00    +0.190 C 
BRANCH  29  30
ATOM     30  O   UNL     1       7.844  -5.849  27.021  0.00  0.00    -0.392 OA
ATOM     31  H   UNL     1       6.925  -6.128  26.847  0.00  0.00    +0.210 HD
ENDBRANCH  29  30
ENDBRANCH  20  29
ENDBRANCH  15  16
ENDBRANCH   3  15
BRANCH   1  32
ATOM     32  O   UNL     1       7.089   2.436  21.868  0.00  0.00    -0.342 OA
BRANCH  32  37
ATOM     33  C   UNL     1       7.351   6.036  22.502  0.00  0.00    +0.163 C 
ATOM     34  C   UNL     1       5.953   6.372  23.068  0.00  0.00    +0.146 C 
ATOM     35  C   UNL     1       5.317   5.181  23.800  0.00  0.00    +0.057 C 
ATOM     36  C   UNL     1       5.408   3.873  22.993  0.00  0.00    +0.110 C 
ATOM     37  C   UNL     1       6.898   3.665  22.590  0.00  0.00    +0.268 C 
ATOM     38  O   UNL     1       7.344   4.775  21.813  0.00  0.00    -0.343 OA
BRANCH  36  39
ATOM     39  N   UNL     1       4.485   3.933  21.838  0.00  0.00    -0.323 NA
ATOM     40  H   UNL     1       4.446   2.985  21.442  0.00  0.00    +0.119 HD
ATOM     41  H   UNL     1       3.544   4.057  22.223  0.00  0.00    +0.119 HD
ENDBRANCH  36  39
BRANCH  34  42
ATOM     42  O   UNL     1       5.115   6.790  21.981  0.00  0.00    -0.389 OA
ATOM     43  H   UNL     1       4.617   6.014  21.662  0.00  0.00    +0.210 HD
ENDBRANCH  34  42
BRANCH  33  44
ATOM     44  C   UNL     1       8.466   6.117  23.575  0.00  0.00    +0.112 C 
BRANCH  44  45
ATOM     45  N   UNL     1       9.817   6.049  22.992  0.00  0.00    -0.328 NA
ATOM     46  H   UNL     1       9.764   6.291  21.998  0.00  0.00    +0.118 HD
ATOM     47  H   UNL     1      10.397   6.784  23.402  0.00  0.00    +0.118 HD
ENDBRANCH  44  45
ENDBRANCH  33  44
ENDBRANCH  32  37
ENDBRANCH   1  32
TORSDOF 16
ENDMDL
MODEL 3
REMARK VINA RESULT:      -6.7      2.467      3.698
REMARK  Name = 
REMARK  16 active torsions:
REMARK  status: ('A' for Active; 'I' for Inactive)
REMARK    1  A    between atoms: N_1  and  C_2
REMARK    2  A    between atoms: C_2  and  C_3
REMARK    3  A    between atoms: C_6  and  O_8
REMARK    4  A    between atoms: O_8  and  C_9
REMARK    5  A    between atoms: C_11  and  N_13
REMARK    6  A    between atoms: C_15  and  N_17
REMARK    7  A    between atoms: C_18  and  O_20
REMARK    8  A    between atoms: O_20  and  C_21
REMARK    9  A    between atoms: C_24  and  C_26
REMARK   10  A    between atoms: C_26  and  O_27
REMARK   11  A    between atoms: C_28  and  O_30
REMARK   12  A    between atoms: C_31  and  N_33
REMARK   13  A    between atoms: C_34  and  O_36
REMARK   14  A    between atoms: C_37  and  O_39
REMARK   15  A    between atoms: C_40  and  N_42
REMARK   16  A    between atoms: C_44  and  O_46
REMARK                            x       y       z     vdW  Elec       q    Type
REMARK                         _______ _______ _______ _____ _____    ______ ____
ROOT
ATOM      1  C   UNL     1       7.676   1.123  22.778  0.00  0.00    +0.169 C 
ATOM      2  C   UNL     1       6.968  -0.260  22.864  0.00  0.00    +0.175 C 
ATOM      3  C   UNL     1       7.951  -1.426  23.140  0.00  0.00    +0.169 C 
ATOM      4  C   UNL     1       9.161  -1.410  22.167  0.00  0.00    +0.084 C 
ATOM      5  C   UNL     1       9.802  -0.030  22.070  0.00  0.00    +0.042 C 
ATOM      6  C   UNL     1       8.786   1.046  21.693  0.00  0.00    +0.084 C 
ENDROOT
BRANCH   6   7
ATOM      7  N   UNL     1       9.532   2.302  21.536  0.00  0.00    -0.325 NA
ATOM      8  H   UNL     1      10.520   2.136  21.716  0.00  0.00    +0.119 HD
ATOM      9  H   UNL     1       9.456   2.599  20.558  0.00  0.00    +0.119 HD
ENDBRANCH   6   7
BRANCH   4  10
ATOM     10  N   UNL     1      10.235  -2.333  22.578  0.00  0.00    -0.325 NA
ATOM     11  H   UNL     1      11.099  -2.115  22.090  0.00  0.00    +0.119 HD
ATOM     12  H   UNL     1      10.423  -2.237  23.574  0.00  0.00    +0.119 HD
ENDBRANCH   4  10
BRANCH   2  13
ATOM     13  O   UNL     1       5.967  -0.298  23.901  0.00  0.00    -0.387 OA
ATOM     14  H   UNL     1       5.146  -0.693  23.528  0.00  0.00    +0.210 HD
ENDBRANCH   2  13
BRANCH   3  15
ATOM     15  O   UNL     1       7.172  -2.642  23.050  0.00  0.00    -0.341 OA
BRANCH  15  16
ATOM     16  C   UNL     1       7.927  -3.848  23.151  0.00  0.00    +0.281 C 
ATOM     17  C   UNL     1       7.108  -5.079  22.699  0.00  0.00    +0.189 C 
ATOM     18  C   UNL     1       5.975  -5.360  23.689  0.00  0.00    +0.116 C 
ATOM     19  C   UNL     1       6.546  -5.492  25.110  0.00  0.00    +0.165 C 
ATOM     20  C   UNL     1       7.377  -4.244  25.452  0.00  0.00    +0.177 C 
ATOM     21  O   UNL     1       8.426  -4.045  24.483  0.00  0.00    -0.341 OA
BRANCH  18  22
ATOM     22  N   UNL     1       5.225  -6.580  23.269  0.00  0.00    -0.323 NA
ATOM     23  H   UNL     1       4.482  -6.764  23.948  0.00  0.00    +0.119 HD
ATOM     24  H   UNL     1       4.724  -6.349  22.406  0.00  0.00    +0.119 HD
ENDBRANCH  18  22
BRANCH  17  25
ATOM     25  O   UNL     1       6.584  -4.946  21.373  0.00  0.00    -0.385 OA
ATOM     26  H   UNL     1       7.151  -4.272  20.946  0.00  0.00    +0.210 HD
ENDBRANCH  17  25
BRANCH  19  27
ATOM     27  O   UNL     1       5.487  -5.696  26.046  0.00  0.00    -0.388 OA
ATOM     28  H   UNL     1       4.654  -5.423  25.620  0.00  0.00    +0.210 HD
ENDBRANCH  19  27
BRANCH  20  29
ATOM     29  C   UNL     1       8.053  -4.373  26.821  0.00  0.00    +0.190 C 
BRANCH  29  30
ATOM     30  O   UNL     1       8.036  -5.738  27.242  0.00  0.00    -0.392 OA
ATOM     31  H   UNL     1       7.538  -6.213  26.550  0.00  0.00    +0.210 HD
ENDBRANCH  29  30
ENDBRANCH  20  29
ENDBRANCH  15  16
ENDBRANCH   3  15
BRANCH   1  32
ATOM     32  O   UNL     1       6.770   2.210  22.446  0.00  0.00    -0.342 OA
BRANCH  32  37
ATOM     33  C   UNL     1       8.064   4.133  25.285  0.00  0.00    +0.163 C 
ATOM     34  C   UNL     1       7.744   5.586  24.870  0.00  0.00    +0.146 C 
ATOM     35  C   UNL     1       6.505   5.678  23.967  0.00  0.00    +0.057 C 
ATOM     36  C   UNL     1       6.531   4.652  22.820  0.00  0.00    +0.110 C 
ATOM     37  C   UNL     1       6.776   3.246  23.444  0.00  0.00    +0.268 C 
ATOM     38  O   UNL     1       8.013   3.246  24.156  0.00  0.00    -0.343 OA
BRANCH  36  39
ATOM     39  N   UNL     1       7.552   5.043  21.822  0.00  0.00    -0.323 NA
ATOM     40  H   UNL     1       8.386   4.472  22.013  0.00  0.00    +0.119 HD
ATOM     41  H   UNL     1       7.230   4.681  20.920  0.00  0.00    +0.119 HD
ENDBRANCH  36  39
BRANCH  34  42
ATOM     42  O   UNL     1       8.890   6.124  24.194  0.00  0.00    -0.389 OA
ATOM     43  H   UNL     1       9.110   5.535  23.447  0.00  0.00    +0.210 HD
ENDBRANCH  34  42
BRANCH  33  44
ATOM     44  C   UNL     1       7.187   3.641  26.464  0.00  0.00    +0.112 C 
BRANCH  44  45
ATOM     45  N   UNL     1       7.507   2.262  26.869  0.00  0.00    -0.328 NA
ATOM     46  H   UNL     1       7.930   2.278  27.802  0.00  0.00    +0.118 HD
ATOM     47  H   UNL     1       6.637   1.738  26.993  0.00  0.00    +0.118 HD
ENDBRANCH  44  45
ENDBRANCH  33  44
ENDBRANCH  32  37
ENDBRANCH   1  32
TORSDOF 16
ENDMDL
MODEL 4
REMARK VINA RESULT:      -6.5      1.790      2.448
REMARK  Name = 
REMARK  16 active torsions:
REMARK  status: ('A' for Active; 'I' for Inactive)
REMARK    1  A    between atoms: N_1  and  C_2
REMARK    2  A    between atoms: C_2  and  C_3
REMARK    3  A    between atoms: C_6  and  O_8
REMARK    4  A    between atoms: O_8  and  C_9
REMARK    5  A    between atoms: C_11  and  N_13
REMARK    6  A    between atoms: C_15  and  N_17
REMARK    7  A    between atoms: C_18  and  O_20
REMARK    8  A    between atoms: O_20  and  C_21
REMARK    9  A    between atoms: C_24  and  C_26
REMARK   10  A    between atoms: C_26  and  O_27
REMARK   11  A    between atoms: C_28  and  O_30
REMARK   12  A    between atoms: C_31  and  N_33
REMARK   13  A    between atoms: C_34  and  O_36
REMARK   14  A    between atoms: C_37  and  O_39
REMARK   15  A    between atoms: C_40  and  N_42
REMARK   16  A    between atoms: C_44  and  O_46
REMARK                            x       y       z     vdW  Elec       q    Type
REMARK                         _______ _______ _______ _____ _____    ______ ____
ROOT
ATOM      1  C   UNL     1       7.542  -0.850  23.347  0.00  0.00    +0.169 C 
ATOM      2  C   UNL     1       6.477  -1.955  23.604  0.00  0.00    +0.175 C 
ATOM      3  C   UNL     1       7.047  -3.177  24.368  0.00  0.00    +0.169 C 
ATOM      4  C   UNL     1       8.352  -3.713  23.720  0.00  0.00    +0.084 C 
ATOM      5  C   UNL     1       9.354  -2.598  23.438  0.00  0.00    +0.042 C 
ATOM      6  C   UNL     1       8.743  -1.483  22.593  0.00  0.00    +0.084 C 
ENDROOT
BRANCH   6   7
ATOM      7  N   UNL     1       9.820  -0.524  22.309  0.00  0.00    -0.325 NA
ATOM      8  H   UNL     1       9.479   0.424  22.454  0.00  0.00    +0.119 HD
ATOM      9  H   UNL     1      10.571  -0.675  22.990  0.00  0.00    +0.119 HD
ENDBRANCH   6   7
BRANCH   4  10
ATOM     10  N   UNL     1       9.053  -4.689  24.573  0.00  0.00    -0.325 NA
ATOM     11  H   UNL     1       9.128  -5.587  24.102  0.00  0.00    +0.119 HD
ATOM     12  H   UNL     1      10.002  -4.375  24.767  0.00  0.00    +0.119 HD
ENDBRANCH   4  10
BRANCH   2  13
ATOM     13  O   UNL     1       5.355  -1.467  24.366  0.00  0.00    -0.387 OA
ATOM     14  H   UNL     1       5.689  -0.840  25.047  0.00  0.00    +0.210 HD
ENDBRANCH   2  13
BRANCH   3  15
ATOM     15  O   UNL     1       5.989  -4.163  24.402  0.00  0.00    -0.341 OA
BRANCH  15  16
ATOM     16  C   UNL     1       6.429  -5.513  24.533  0.00  0.00    +0.281 C 
ATOM     17  C   UNL     1       5.478  -6.501  23.818  0.00  0.00    +0.189 C 
ATOM     18  C   UNL     1       4.130  -6.562  24.541  0.00  0.00    +0.116 C 
ATOM     19  C   UNL     1       4.350  -6.890  26.027  0.00  0.00    +0.165 C 
ATOM     20  C   UNL     1       5.340  -5.883  26.637  0.00  0.00    +0.177 C 
ATOM     21  O   UNL     1       6.585  -5.884  25.911  0.00  0.00    -0.341 OA
BRANCH  18  22
ATOM     22  N   UNL     1       3.240  -7.556  23.872  0.00  0.00    -0.323 NA
ATOM     23  H   UNL     1       2.578  -7.059  23.271  0.00  0.00    +0.119 HD
ATOM     24  H   UNL     1       3.818  -8.092  23.219  0.00  0.00    +0.119 HD
ENDBRANCH  18  22
BRANCH  17  25
ATOM     25  O   UNL     1       5.283  -6.187  22.435  0.00  0.00    -0.385 OA
ATOM     26  H   UNL     1       4.642  -6.855  22.115  0.00  0.00    +0.210 HD
ENDBRANCH  17  25
BRANCH  19  27
ATOM     27  O   UNL     1       3.102  -6.891  26.718  0.00  0.00    -0.388 OA
ATOM     28  H   UNL     1       2.397  -6.727  26.064  0.00  0.00    +0.210 HD
ENDBRANCH  19  27
BRANCH  20  29
ATOM     29  C   UNL     1       5.672  -6.229  28.093  0.00  0.00    +0.190 C 
BRANCH  29  30
ATOM     30  O   UNL     1       5.403  -7.612  28.335  0.00  0.00    -0.392 OA
ATOM     31  H   UNL     1       5.096  -7.655  29.260  0.00  0.00    +0.210 HD
ENDBRANCH  29  30
ENDBRANCH  20  29
ENDBRANCH  15  16
ENDBRANCH   3  15
BRANCH   1  32
ATOM     32  O   UNL     1       7.032   0.266  22.567  0.00  0.00    -0.342 OA
BRANCH  32  37
ATOM     33  C   UNL     1       8.573   2.563  24.971  0.00  0.00    +0.163 C 
ATOM     34  C   UNL     1       8.952   3.766  24.078  0.00  0.00    +0.146 C 
ATOM     35  C   UNL     1       8.010   3.921  22.874  0.00  0.00    +0.057 C 
ATOM     36  C   UNL     1       7.777   2.592  22.132  0.00  0.00    +0.110 C 
ATOM     37  C   UNL     1       7.320   1.535  23.180  0.00  0.00    +0.268 C 
ATOM     38  O   UNL     1       8.325   1.388  24.182  0.00  0.00    -0.343 OA
BRANCH  36  39
ATOM     39  N   UNL     1       9.003   2.207  21.397  0.00  0.00    -0.323 NA
ATOM     40  H   UNL     1       8.949   2.659  20.475  0.00  0.00    +0.119 HD
ATOM     41  H   UNL     1       9.779   2.701  21.847  0.00  0.00    +0.119 HD
ENDBRANCH  36  39
BRANCH  34  42
ATOM     42  O   UNL     1      10.303   3.587  23.630  0.00  0.00    -0.389 OA
ATOM     43  H   UNL     1      10.600   4.417  23.211  0.00  0.00    +0.210 HD
ENDBRANCH  34  42
BRANCH  33  44
ATOM     44  C   UNL     1       7.408   2.881  25.941  0.00  0.00    +0.112 C 
BRANCH  44  45
ATOM     45  N   UNL     1       7.341   1.940  27.072  0.00  0.00    -0.328 NA
ATOM     46  H   UNL     1       8.242   1.941  27.560  0.00  0.00    +0.118 HD
ATOM     47  H   UNL     1       6.676   2.294  27.764  0.00  0.00    +0.118 HD
ENDBRANCH  44  45
ENDBRANCH  33  44
ENDBRANCH  32  37
ENDBRANCH   1  32
TORSDOF 16
ENDMDL
MODEL 5
REMARK VINA RESULT:      -6.3      3.056      4.680
REMARK  Name = 
REMARK  16 active torsions:
REMARK  status: ('A' for Active; 'I' for Inactive)
REMARK    1  A    between atoms: N_1  and  C_2
REMARK    2  A    between atoms: C_2  and  C_3
REMARK    3  A    between atoms: C_6  and  O_8
REMARK    4  A    between atoms: O_8  and  C_9
REMARK    5  A    between atoms: C_11  and  N_13
REMARK    6  A    between atoms: C_15  and  N_17
REMARK    7  A    between atoms: C_18  and  O_20
REMARK    8  A    between atoms: O_20  and  C_21
REMARK    9  A    between atoms: C_24  and  C_26
REMARK   10  A    between atoms: C_26  and  O_27
REMARK   11  A    between atoms: C_28  and  O_30
REMARK   12  A    between atoms: C_31  and  N_33
REMARK   13  A    between atoms: C_34  and  O_36
REMARK   14  A    between atoms: C_37  and  O_39
REMARK   15  A    between atoms: C_40  and  N_42
REMARK   16  A    between atoms: C_44  and  O_46
REMARK                            x       y       z     vdW  Elec       q    Type
REMARK                         _______ _______ _______ _____ _____    ______ ____
ROOT
ATOM      1  C   UNL     1       8.092   2.288  23.153  0.00  0.00    +0.169 C 
ATOM      2  C   UNL     1       7.393   0.904  23.282  0.00  0.00    +0.175 C 
ATOM      3  C   UNL     1       7.820   0.127  24.554  0.00  0.00    +0.169 C 
ATOM      4  C   UNL     1       9.364   0.056  24.701  0.00  0.00    +0.084 C 
ATOM      5  C   UNL     1      10.022   1.420  24.522  0.00  0.00    +0.042 C 
ATOM      6  C   UNL     1       9.630   2.073  23.198  0.00  0.00    +0.084 C 
ENDROOT
BRANCH   6   7
ATOM      7  N   UNL     1      10.395   3.324  23.096  0.00  0.00    -0.325 NA
ATOM      8  H   UNL     1      11.042   3.392  23.879  0.00  0.00    +0.119 HD
ATOM      9  H   UNL     1      10.964   3.283  22.245  0.00  0.00    +0.119 HD
ENDBRANCH   6   7
BRANCH   4  10
ATOM     10  N   UNL     1       9.787  -0.434  26.026  0.00  0.00    -0.325 NA
ATOM     11  H   UNL     1       9.564   0.248  26.746  0.00  0.00    +0.119 HD
ATOM     12  H   UNL     1       9.292  -1.291  26.262  0.00  0.00    +0.119 HD
ENDBRANCH   4  10
BRANCH   2  13
ATOM     13  O   UNL     1       5.956   1.020  23.322  0.00  0.00    -0.387 OA
ATOM     14  H   UNL     1       5.567   0.245  22.855  0.00  0.00    +0.210 HD
ENDBRANCH   2  13
BRANCH   3  15
ATOM     15  O   UNL     1       7.202  -1.177  24.457  0.00  0.00    -0.341 OA
BRANCH  15  16
ATOM     16  C   UNL     1       7.777  -2.044  23.481  0.00  0.00    +0.281 C 
ATOM     17  C   UNL     1       6.695  -2.775  22.652  0.00  0.00    +0.189 C 
ATOM     18  C   UNL     1       5.941  -3.780  23.527  0.00  0.00    +0.116 C 
ATOM     19  C   UNL     1       6.940  -4.731  24.206  0.00  0.00    +0.165 C 
ATOM     20  C   UNL     1       7.997  -3.913  24.967  0.00  0.00    +0.177 C 
ATOM     21  O   UNL     1       8.669  -2.994  24.082  0.00  0.00    -0.341 OA
BRANCH  18  22
ATOM     22  N   UNL     1       4.936  -4.515  22.704  0.00  0.00    -0.323 NA
ATOM     23  H   UNL     1       4.334  -5.062  23.324  0.00  0.00    +0.119 HD
ATOM     24  H   UNL     1       4.308  -3.818  22.295  0.00  0.00    +0.119 HD
ENDBRANCH  18  22
BRANCH  17  25
ATOM     25  O   UNL     1       5.773  -1.880  22.022  0.00  0.00    -0.385 OA
ATOM     26  H   UNL     1       4.936  -1.994  22.517  0.00  0.00    +0.210 HD
ENDBRANCH  17  25
BRANCH  19  27
ATOM     27  O   UNL     1       6.248  -5.633  25.069  0.00  0.00    -0.388 OA
ATOM     28  H   UNL     1       5.860  -5.114  25.797  0.00  0.00    +0.210 HD
ENDBRANCH  19  27
BRANCH  20  29
ATOM     29  C   UNL     1       9.076  -4.814  25.578  0.00  0.00    +0.190 C 
BRANCH  29  30
ATOM     30  O   UNL     1       8.592  -5.393  26.792  0.00  0.00    -0.392 OA
ATOM     31  H   UNL     1       9.219  -5.104  27.481  0.00  0.00    +0.210 HD
ENDBRANCH  29  30
ENDBRANCH  20  29
ENDBRANCH  15  16
ENDBRANCH   3  15
BRANCH   1  32
ATOM     32  O   UNL     1       7.752   2.989  21.926  0.00  0.00    -0.342 OA
BRANCH  32  37
ATOM     33  C   UNL     1       5.083   4.761  23.707  0.00  0.00    +0.163 C 
ATOM     34  C   UNL     1       5.462   6.241  23.477  0.00  0.00    +0.146 C 
ATOM     35  C   UNL     1       6.217   6.453  22.156  0.00  0.00    +0.057 C 
ATOM     36  C   UNL     1       7.357   5.439  21.957  0.00  0.00    +0.110 C 
ATOM     37  C   UNL     1       6.763   4.011  22.141  0.00  0.00    +0.268 C 
ATOM     38  O   UNL     1       6.197   3.892  23.446  0.00  0.00    -0.343 OA
BRANCH  36  39
ATOM     39  N   UNL     1       8.466   5.743  22.889  0.00  0.00    -0.323 NA
ATOM     40  H   UNL     1       9.176   5.012  22.753  0.00  0.00    +0.119 HD
ATOM     41  H   UNL     1       8.930   6.581  22.525  0.00  0.00    +0.119 HD
ENDBRANCH  36  39
BRANCH  34  42
ATOM     42  O   UNL     1       6.266   6.677  24.582  0.00  0.00    -0.389 OA
ATOM     43  H   UNL     1       7.055   7.129  24.228  0.00  0.00    +0.210 HD
ENDBRANCH  34  42
BRANCH  33  44
ATOM     44  C   UNL     1       3.811   4.341  22.929  0.00  0.00    +0.112 C 
BRANCH  44  45
ATOM     45  N   UNL     1       3.491   2.913  23.096  0.00  0.00    -0.328 NA
ATOM     46  H   UNL     1       4.363   2.388  23.215  0.00  0.00    +0.118 HD
ATOM     47  H   UNL     1       2.992   2.782  23.979  0.00  0.00    +0.118 HD
ENDBRANCH  44  45
ENDBRANCH  33  44
ENDBRANCH  32  37
ENDBRANCH   1  32
TORSDOF 16
ENDMDL
MODEL 6
REMARK VINA RESULT:      -6.2      2.761      3.580
REMARK  Name = 
REMARK  16 active torsions:
REMARK  status: ('A' for Active; 'I' for Inactive)
REMARK    1  A    between atoms: N_1  and  C_2
REMARK    2  A    between atoms: C_2  and  C_3
REMARK    3  A    between atoms: C_6  and  O_8
REMARK    4  A    between atoms: O_8  and  C_9
REMARK    5  A    between atoms: C_11  and  N_13
REMARK    6  A    between atoms: C_15  and  N_17
REMARK    7  A    between atoms: C_18  and  O_20
REMARK    8  A    between atoms: O_20  and  C_21
REMARK    9  A    between atoms: C_24  and  C_26
REMARK   10  A    between atoms: C_26  and  O_27
REMARK   11  A    between atoms: C_28  and  O_30
REMARK   12  A    between atoms: C_31  and  N_33
REMARK   13  A    between atoms: C_34  and  O_36
REMARK   14  A    between atoms: C_37  and  O_39
REMARK   15  A    between atoms: C_40  and  N_42
REMARK   16  A    between atoms: C_44  and  O_46
REMARK                            x       y       z     vdW  Elec       q    Type
REMARK                         _______ _______ _______ _____ _____    ______ ____
ROOT
ATOM      1  C   UNL     1       7.858   1.032  22.549  0.00  0.00    +0.169 C 
ATOM      2  C   UNL     1       7.156  -0.355  22.611  0.00  0.00    +0.175 C 
ATOM      3  C   UNL     1       8.096  -1.488  23.096  0.00  0.00    +0.169 C 
ATOM      4  C   UNL     1       9.436  -1.508  22.312  0.00  0.00    +0.084 C 
ATOM      5  C   UNL     1      10.074  -0.124  22.230  0.00  0.00    +0.042 C 
ATOM      6  C   UNL     1       9.116   0.911  21.646  0.00  0.00    +0.084 C 
ENDROOT
BRANCH   6   7
ATOM      7  N   UNL     1       9.868   2.169  21.527  0.00  0.00    -0.325 NA
ATOM      8  H   UNL     1       9.221   2.938  21.367  0.00  0.00    +0.119 HD
ATOM      9  H   UNL     1      10.328   2.352  22.424  0.00  0.00    +0.119 HD
ENDBRANCH   6   7
BRANCH   4  10
ATOM     10  N   UNL     1      10.444  -2.388  22.930  0.00  0.00    -0.325 NA
ATOM     11  H   UNL     1      11.320  -2.344  22.416  0.00  0.00    +0.119 HD
ATOM     12  H   UNL     1      10.642  -2.088  23.882  0.00  0.00    +0.119 HD
ENDBRANCH   4  10
BRANCH   2  13
ATOM     13  O   UNL     1       6.013  -0.351  23.490  0.00  0.00    -0.387 OA
ATOM     14  H   UNL     1       5.723  -1.281  23.630  0.00  0.00    +0.210 HD
ENDBRANCH   2  13
BRANCH   3  15
ATOM     15  O   UNL     1       7.348  -2.719  22.964  0.00  0.00    -0.341 OA
BRANCH  15  16
ATOM     16  C   UNL     1       7.317  -3.532  24.135  0.00  0.00    +0.281 C 
ATOM     17  C   UNL     1       7.084  -5.022  23.797  0.00  0.00    +0.189 C 
ATOM     18  C   UNL     1       5.667  -5.232  23.257  0.00  0.00    +0.116 C 
ATOM     19  C   UNL     1       4.642  -4.663  24.252  0.00  0.00    +0.165 C 
ATOM     20  C   UNL     1       4.980  -3.194  24.559  0.00  0.00    +0.177 C 
ATOM     21  O   UNL     1       6.324  -3.073  25.066  0.00  0.00    -0.341 OA
BRANCH  18  22
ATOM     22  N   UNL     1       5.438  -6.681  22.983  0.00  0.00    -0.323 NA
ATOM     23  H   UNL     1       4.997  -7.110  23.801  0.00  0.00    +0.119 HD
ATOM     24  H   UNL     1       4.724  -6.744  22.252  0.00  0.00    +0.119 HD
ENDBRANCH  18  22
BRANCH  17  25
ATOM     25  O   UNL     1       8.046  -5.543  22.872  0.00  0.00    -0.385 OA
ATOM     26  H   UNL     1       7.522  -6.075  22.239  0.00  0.00    +0.210 HD
ENDBRANCH  17  25
BRANCH  19  27
ATOM     27  O   UNL     1       3.322  -4.803  23.728  0.00  0.00    -0.388 OA
ATOM     28  H   UNL     1       2.940  -3.911  23.633  0.00  0.00    +0.210 HD
ENDBRANCH  19  27
BRANCH  20  29
ATOM     29  C   UNL     1       4.047  -2.610  25.625  0.00  0.00    +0.190 C 
BRANCH  29  30
ATOM     30  O   UNL     1       3.534  -3.661  26.447  0.00  0.00    -0.392 OA
ATOM     31  H   UNL     1       3.643  -4.475  25.919  0.00  0.00    +0.210 HD
ENDBRANCH  29  30
ENDBRANCH  20  29
ENDBRANCH  15  16
ENDBRANCH   3  15
BRANCH   1  32
ATOM     32  O   UNL     1       7.002   2.084  22.025  0.00  0.00    -0.342 OA
BRANCH  32  37
ATOM     33  C   UNL     1       7.860   5.523  22.959  0.00  0.00    +0.163 C 
ATOM     34  C   UNL     1       6.538   6.035  23.574  0.00  0.00    +0.146 C 
ATOM     35  C   UNL     1       5.714   4.907  24.212  0.00  0.00    +0.057 C 
ATOM     36  C   UNL     1       5.585   3.677  23.295  0.00  0.00    +0.110 C 
ATOM     37  C   UNL     1       7.019   3.261  22.853  0.00  0.00    +0.268 C 
ATOM     38  O   UNL     1       7.642   4.345  22.165  0.00  0.00    -0.343 OA
BRANCH  36  39
ATOM     39  N   UNL     1       4.683   3.988  22.164  0.00  0.00    -0.323 NA
ATOM     40  H   UNL     1       4.688   5.010  22.054  0.00  0.00    +0.119 HD
ATOM     41  H   UNL     1       5.157   3.665  21.316  0.00  0.00    +0.119 HD
ENDBRANCH  36  39
BRANCH  34  42
ATOM     42  O   UNL     1       5.780   6.678  22.540  0.00  0.00    -0.389 OA
ATOM     43  H   UNL     1       4.983   6.143  22.366  0.00  0.00    +0.210 HD
ENDBRANCH  34  42
BRANCH  33  44
ATOM     44  C   UNL     1       8.975   5.326  24.017  0.00  0.00    +0.112 C 
BRANCH  44  45
ATOM     45  N   UNL     1      10.223   4.804  23.432  0.00  0.00    -0.328 NA
ATOM     46  H   UNL     1      10.157   3.784  23.360  0.00  0.00    +0.118 HD
ATOM     47  H   UNL     1      10.298   5.124  22.464  0.00  0.00    +0.118 HD
ENDBRANCH  44  45
ENDBRANCH  33  44
ENDBRANCH  32  37
ENDBRANCH   1  32
TORSDOF 16
ENDMDL
MODEL 7
REMARK VINA RESULT:      -6.2      2.849      8.407
REMARK  Name = 
REMARK  16 active torsions:
REMARK  status: ('A' for Active; 'I' for Inactive)
REMARK    1  A    between atoms: N_1  and  C_2
REMARK    2  A    between atoms: C_2  and  C_3
REMARK    3  A    between atoms: C_6  and  O_8
REMARK    4  A    between atoms: O_8  and  C_9
REMARK    5  A    between atoms: C_11  and  N_13
REMARK    6  A    between atoms: C_15  and  N_17
REMARK    7  A    between atoms: C_18  and  O_20
REMARK    8  A    between atoms: O_20  and  C_21
REMARK    9  A    between atoms: C_24  and  C_26
REMARK   10  A    between atoms: C_26  and  O_27
REMARK   11  A    between atoms: C_28  and  O_30
REMARK   12  A    between atoms: C_31  and  N_33
REMARK   13  A    between atoms: C_34  and  O_36
REMARK   14  A    between atoms: C_37  and  O_39
REMARK   15  A    between atoms: C_40  and  N_42
REMARK   16  A    between atoms: C_44  and  O_46
REMARK                            x       y       z     vdW  Elec       q    Type
REMARK                         _______ _______ _______ _____ _____    ______ ____
ROOT
ATOM      1  C   UNL     1       9.168  -0.835  24.492  0.00  0.00    +0.169 C 
ATOM      2  C   UNL     1       9.292   0.623  25.022  0.00  0.00    +0.175 C 
ATOM      3  C   UNL     1       9.168   1.686  23.900  0.00  0.00    +0.169 C 
ATOM      4  C   UNL     1      10.107   1.381  22.702  0.00  0.00    +0.084 C 
ATOM      5  C   UNL     1       9.994  -0.068  22.239  0.00  0.00    +0.042 C 
ATOM      6  C   UNL     1      10.232  -1.052  23.381  0.00  0.00    +0.084 C 
ENDROOT
BRANCH   6   7
ATOM      7  N   UNL     1      10.195  -2.401  22.798  0.00  0.00    -0.325 NA
ATOM      8  H   UNL     1      10.435  -3.086  23.511  0.00  0.00    +0.119 HD
ATOM      9  H   UNL     1       9.231  -2.598  22.511  0.00  0.00    +0.119 HD
ENDBRANCH   6   7
BRANCH   4  10
ATOM     10  N   UNL     1       9.812   2.214  21.521  0.00  0.00    -0.325 NA
ATOM     11  H   UNL     1      10.634   2.743  21.244  0.00  0.00    +0.119 HD
ATOM     12  H   UNL     1       9.554   1.628  20.730  0.00  0.00    +0.119 HD
ENDBRANCH   4  10
BRANCH   2  13
ATOM     13  O   UNL     1       8.289   0.934  26.010  0.00  0.00    -0.387 OA
ATOM     14  H   UNL     1       7.578   0.256  25.956  0.00  0.00    +0.210 HD
ENDBRANCH   2  13
BRANCH   3  15
ATOM     15  O   UNL     1       9.444   2.963  24.521  0.00  0.00    -0.341 OA
BRANCH  15  16
ATOM     16  C   UNL     1       8.732   4.068  23.967  0.00  0.00    +0.281 C 
ATOM     17  C   UNL     1       9.629   5.318  23.822  0.00  0.00    +0.189 C 
ATOM     18  C   UNL     1       9.999   5.872  25.201  0.00  0.00    +0.116 C 
ATOM     19  C   UNL     1       8.723   6.125  26.020  0.00  0.00    +0.165 C 
ATOM     20  C   UNL     1       7.878   4.841  26.071  0.00  0.00    +0.177 C 
ATOM     21  O   UNL     1       7.563   4.381  24.741  0.00  0.00    -0.341 OA
BRANCH  18  22
ATOM     22  N   UNL     1      10.822   7.108  25.047  0.00  0.00    -0.323 NA
ATOM     23  H   UNL     1      10.244   7.844  24.635  0.00  0.00    +0.119 HD
ATOM     24  H   UNL     1      11.034   7.452  25.988  0.00  0.00    +0.119 HD
ENDBRANCH  18  22
BRANCH  17  25
ATOM     25  O   UNL     1      10.813   5.072  23.055  0.00  0.00    -0.385 OA
ATOM     26  H   UNL     1      11.268   5.937  23.013  0.00  0.00    +0.210 HD
ENDBRANCH  17  25
BRANCH  19  27
ATOM     27  O   UNL     1       9.064   6.586  27.327  0.00  0.00    -0.388 OA
ATOM     28  H   UNL     1      10.031   6.709  27.359  0.00  0.00    +0.210 HD
ENDBRANCH  19  27
BRANCH  20  29
ATOM     29  C   UNL     1       6.545   5.070  26.791  0.00  0.00    +0.190 C 
BRANCH  29  30
ATOM     30  O   UNL     1       6.176   6.447  26.698  0.00  0.00    -0.392 OA
ATOM     31  H   UNL     1       6.984   6.910  26.407  0.00  0.00    +0.210 HD
ENDBRANCH  29  30
ENDBRANCH  20  29
ENDBRANCH  15  16
ENDBRANCH   3  15
BRANCH   1  32
ATOM     32  O   UNL     1       9.357  -1.838  25.527  0.00  0.00    -0.342 OA
BRANCH  32  37
ATOM     33  C   UNL     1       6.210  -3.403  24.486  0.00  0.00    +0.163 C 
ATOM     34  C   UNL     1       6.482  -4.899  24.760  0.00  0.00    +0.146 C 
ATOM     35  C   UNL     1       7.475  -5.112  25.912  0.00  0.00    +0.057 C 
ATOM     36  C   UNL     1       8.726  -4.223  25.786  0.00  0.00    +0.110 C 
ATOM     37  C   UNL     1       8.249  -2.752  25.607  0.00  0.00    +0.268 C 
ATOM     38  O   UNL     1       7.434  -2.652  24.439  0.00  0.00    -0.343 OA
BRANCH  36  39
ATOM     39  N   UNL     1       9.577  -4.710  24.677  0.00  0.00    -0.323 NA
ATOM     40  H   UNL     1       9.026  -5.413  24.168  0.00  0.00    +0.119 HD
ATOM     41  H   UNL     1       9.645  -3.942  24.003  0.00  0.00    +0.119 HD
ENDBRANCH  36  39
BRANCH  34  42
ATOM     42  O   UNL     1       6.987  -5.492  23.555  0.00  0.00    -0.389 OA
ATOM     43  H   UNL     1       6.262  -5.988  23.130  0.00  0.00    +0.210 HD
ENDBRANCH  34  42
BRANCH  33  44
ATOM     44  C   UNL     1       5.179  -2.792  25.469  0.00  0.00    +0.112 C 
BRANCH  44  45
ATOM     45  N   UNL     1       4.945  -1.359  25.225  0.00  0.00    -0.328 NA
ATOM     46  H   UNL     1       5.383  -0.817  25.977  0.00  0.00    +0.118 HD
ATOM     47  H   UNL     1       5.449  -1.076  24.381  0.00  0.00    +0.118 HD
ENDBRANCH  44  45
ENDBRANCH  33  44
ENDBRANCH  32  37
ENDBRANCH   1  32
TORSDOF 16
ENDMDL
MODEL 8
REMARK VINA RESULT:      -6.1      2.523      3.592
REMARK  Name = 
REMARK  16 active torsions:
REMARK  status: ('A' for Active; 'I' for Inactive)
REMARK    1  A    between atoms: N_1  and  C_2
REMARK    2  A    between atoms: C_2  and  C_3
REMARK    3  A    between atoms: C_6  and  O_8
REMARK    4  A    between atoms: O_8  and  C_9
REMARK    5  A    between atoms: C_11  and  N_13
REMARK    6  A    between atoms: C_15  and  N_17
REMARK    7  A    between atoms: C_18  and  O_20
REMARK    8  A    between atoms: O_20  and  C_21
REMARK    9  A    between atoms: C_24  and  C_26
REMARK   10  A    between atoms: C_26  and  O_27
REMARK   11  A    between atoms: C_28  and  O_30
REMARK   12  A    between atoms: C_31  and  N_33
REMARK   13  A    between atoms: C_34  and  O_36
REMARK   14  A    between atoms: C_37  and  O_39
REMARK   15  A    between atoms: C_40  and  N_42
REMARK   16  A    between atoms: C_44  and  O_46
REMARK                            x       y       z     vdW  Elec       q    Type
REMARK                         _______ _______ _______ _____ _____    ______ ____
ROOT
ATOM      1  C   UNL     1       7.006   0.250  24.916  0.00  0.00    +0.169 C 
ATOM      2  C   UNL     1       6.578  -1.089  24.250  0.00  0.00    +0.175 C 
ATOM      3  C   UNL     1       5.464  -1.827  25.036  0.00  0.00    +0.169 C 
ATOM      4  C   UNL     1       5.812  -1.969  26.542  0.00  0.00    +0.084 C 
ATOM      5  C   UNL     1       6.272  -0.650  27.153  0.00  0.00    +0.042 C 
ATOM      6  C   UNL     1       7.439  -0.040  26.379  0.00  0.00    +0.084 C 
ENDROOT
BRANCH   6   7
ATOM      7  N   UNL     1       7.854   1.165  27.112  0.00  0.00    -0.325 NA
ATOM      8  H   UNL     1       7.705   1.985  26.528  0.00  0.00    +0.119 HD
ATOM      9  H   UNL     1       7.245   1.268  27.929  0.00  0.00    +0.119 HD
ENDBRANCH   6   7
BRANCH   4  10
ATOM     10  N   UNL     1       4.664  -2.417  27.352  0.00  0.00    -0.325 NA
ATOM     11  H   UNL     1       4.957  -2.626  28.302  0.00  0.00    +0.119 HD
ATOM     12  H   UNL     1       3.963  -1.681  27.412  0.00  0.00    +0.119 HD
ENDBRANCH   4  10
BRANCH   2  13
ATOM     13  O   UNL     1       6.091  -0.900  22.906  0.00  0.00    -0.387 OA
ATOM     14  H   UNL     1       5.166  -1.235  22.859  0.00  0.00    +0.210 HD
ENDBRANCH   2  13
BRANCH   3  15
ATOM     15  O   UNL     1       5.281  -3.102  24.377  0.00  0.00    -0.341 OA
BRANCH  15  16
ATOM     16  C   UNL     1       6.369  -4.013  24.516  0.00  0.00    +0.281 C 
ATOM     17  C   UNL     1       6.667  -4.760  23.196  0.00  0.00    +0.189 C 
ATOM     18  C   UNL     1       5.525  -5.720  22.856  0.00  0.00    +0.116 C 
ATOM     19  C   UNL     1       5.262  -6.659  24.045  0.00  0.00    +0.165 C 
ATOM     20  C   UNL     1       5.020  -5.827  25.316  0.00  0.00    +0.177 C 
ATOM     21  O   UNL     1       6.136  -4.952  25.577  0.00  0.00    -0.341 OA
BRANCH  18  22
ATOM     22  N   UNL     1       5.848  -6.472  21.608  0.00  0.00    -0.323 NA
ATOM     23  H   UNL     1       6.778  -6.195  21.283  0.00  0.00    +0.119 HD
ATOM     24  H   UNL     1       5.955  -7.457  21.864  0.00  0.00    +0.119 HD
ENDBRANCH  18  22
BRANCH  17  25
ATOM     25  O   UNL     1       6.913  -3.876  22.096  0.00  0.00    -0.385 OA
ATOM     26  H   UNL     1       7.541  -3.211  22.446  0.00  0.00    +0.210 HD
ENDBRANCH  17  25
BRANCH  19  27
ATOM     27  O   UNL     1       4.159  -7.517  23.756  0.00  0.00    -0.388 OA
ATOM     28  H   UNL     1       4.399  -8.064  22.985  0.00  0.00    +0.210 HD
ENDBRANCH  19  27
BRANCH  20  29
ATOM     29  C   UNL     1       4.854  -6.719  26.551  0.00  0.00    +0.190 C 
BRANCH  29  30
ATOM     30  O   UNL     1       3.613  -7.425  26.475  0.00  0.00    -0.392 OA
ATOM     31  H   UNL     1       3.062  -7.050  27.188  0.00  0.00    +0.210 HD
ENDBRANCH  29  30
ENDBRANCH  20  29
ENDBRANCH  15  16
ENDBRANCH   3  15
BRANCH   1  32
ATOM     32  O   UNL     1       8.101   0.909  24.224  0.00  0.00    -0.342 OA
BRANCH  32  37
ATOM     33  C   UNL     1       8.608   4.467  24.944  0.00  0.00    +0.163 C 
ATOM     34  C   UNL     1       8.561   5.097  23.534  0.00  0.00    +0.146 C 
ATOM     35  C   UNL     1       7.677   4.298  22.565  0.00  0.00    +0.057 C 
ATOM     36  C   UNL     1       7.970   2.787  22.606  0.00  0.00    +0.110 C 
ATOM     37  C   UNL     1       7.885   2.326  24.091  0.00  0.00    +0.268 C 
ATOM     38  O   UNL     1       8.835   3.050  24.873  0.00  0.00    -0.343 OA
BRANCH  36  39
ATOM     39  N   UNL     1       9.281   2.514  21.975  0.00  0.00    -0.323 NA
ATOM     40  H   UNL     1       9.085   2.107  21.052  0.00  0.00    +0.119 HD
ATOM     41  H   UNL     1       9.687   3.425  21.741  0.00  0.00    +0.119 HD
ENDBRANCH  36  39
BRANCH  34  42
ATOM     42  O   UNL     1       9.902   5.175  23.030  0.00  0.00    -0.389 OA
ATOM     43  H   UNL     1      10.365   5.895  23.500  0.00  0.00    +0.210 HD
ENDBRANCH  34  42
BRANCH  33  44
ATOM     44  C   UNL     1       7.368   4.826  25.801  0.00  0.00    +0.112 C 
BRANCH  44  45
ATOM     45  N   UNL     1       7.468   4.317  27.180  0.00  0.00    -0.328 NA
ATOM     46  H   UNL     1       7.004   3.405  27.233  0.00  0.00    +0.118 HD
ATOM     47  H   UNL     1       8.448   4.117  27.394  0.00  0.00    +0.118 HD
ENDBRANCH  44  45
ENDBRANCH  33  44
ENDBRANCH  32  37
ENDBRANCH   1  32
TORSDOF 16
ENDMDL
MODEL 9
REMARK VINA RESULT:      -6.1      2.492      3.349
REMARK  Name = 
REMARK  16 active torsions:
REMARK  status: ('A' for Active; 'I' for Inactive)
REMARK    1  A    between atoms: N_1  and  C_2
REMARK    2  A    between atoms: C_2  and  C_3
REMARK    3  A    between atoms: C_6  and  O_8
REMARK    4  A    between atoms: O_8  and  C_9
REMARK    5  A    between atoms: C_11  and  N_13
REMARK    6  A    between atoms: C_15  and  N_17
REMARK    7  A    between atoms: C_18  and  O_20
REMARK    8  A    between atoms: O_20  and  C_21
REMARK    9  A    between atoms: C_24  and  C_26
REMARK   10  A    between atoms: C_26  and  O_27
REMARK   11  A    between atoms: C_28  and  O_30
REMARK   12  A    between atoms: C_31  and  N_33
REMARK   13  A    between atoms: C_34  and  O_36
REMARK   14  A    between atoms: C_37  and  O_39
REMARK   15  A    between atoms: C_40  and  N_42
REMARK   16  A    between atoms: C_44  and  O_46
REMARK                            x       y       z     vdW  Elec       q    Type
REMARK                         _______ _______ _______ _____ _____    ______ ____
ROOT
ATOM      1  C   UNL     1       7.281  -1.688  24.182  0.00  0.00    +0.169 C 
ATOM      2  C   UNL     1       6.271  -2.849  23.950  0.00  0.00    +0.175 C 
ATOM      3  C   UNL     1       5.317  -3.069  25.151  0.00  0.00    +0.169 C 
ATOM      4  C   UNL     1       6.088  -3.179  26.494  0.00  0.00    +0.084 C 
ATOM      5  C   UNL     1       7.102  -2.053  26.669  0.00  0.00    +0.042 C 
ATOM      6  C   UNL     1       8.070  -1.970  25.490  0.00  0.00    +0.084 C 
ENDROOT
BRANCH   6   7
ATOM      7  N   UNL     1       9.049  -0.923  25.815  0.00  0.00    -0.325 NA
ATOM      8  H   UNL     1       8.968  -0.162  25.144  0.00  0.00    +0.119 HD
ATOM      9  H   UNL     1       8.810  -0.535  26.733  0.00  0.00    +0.119 HD
ENDBRANCH   6   7
BRANCH   4  10
ATOM     10  N   UNL     1       5.198  -3.115  27.668  0.00  0.00    -0.325 NA
ATOM     11  H   UNL     1       4.826  -2.176  27.784  0.00  0.00    +0.119 HD
ATOM     12  H   UNL     1       4.403  -3.738  27.545  0.00  0.00    +0.119 HD
ENDBRANCH   4  10
BRANCH   2  13
ATOM     13  O   UNL     1       5.444  -2.630  22.789  0.00  0.00    -0.387 OA
ATOM     14  H   UNL     1       6.008  -2.702  21.986  0.00  0.00    +0.210 HD
ENDBRANCH   2  13
BRANCH   3  15
ATOM     15  O   UNL     1       4.547  -4.255  24.844  0.00  0.00    -0.341 OA
BRANCH  15  16
ATOM     16  C   UNL     1       5.280  -5.477  24.899  0.00  0.00    +0.281 C 
ATOM     17  C   UNL     1       4.679  -6.551  23.962  0.00  0.00    +0.189 C 
ATOM     18  C   UNL     1       3.312  -7.006  24.479  0.00  0.00    +0.116 C 
ATOM     19  C   UNL     1       3.435  -7.468  25.940  0.00  0.00    +0.165 C 
ATOM     20  C   UNL     1       4.080  -6.354  26.782  0.00  0.00    +0.177 C 
ATOM     21  O   UNL     1       5.363  -5.980  26.241  0.00  0.00    -0.341 OA
BRANCH  18  22
ATOM     22  N   UNL     1       2.767  -8.078  23.595  0.00  0.00    -0.323 NA
ATOM     23  H   UNL     1       1.978  -8.529  24.066  0.00  0.00    +0.119 HD
ATOM     24  H   UNL     1       2.345  -7.619  22.783  0.00  0.00    +0.119 HD
ENDBRANCH  18  22
BRANCH  17  25
ATOM     25  O   UNL     1       4.572  -6.111  22.604  0.00  0.00    -0.385 OA
ATOM     26  H   UNL     1       3.722  -5.627  22.564  0.00  0.00    +0.210 HD
ENDBRANCH  17  25
BRANCH  19  27
ATOM     27  O   UNL     1       2.153  -7.838  26.446  0.00  0.00    -0.388 OA
ATOM     28  H   UNL     1       2.235  -7.964  27.409  0.00  0.00    +0.210 HD
ENDBRANCH  19  27
BRANCH  20  29
ATOM     29  C   UNL     1       4.318  -6.803  28.227  0.00  0.00    +0.190 C 
BRANCH  29  30
ATOM     30  O   UNL     1       5.512  -7.586  28.300  0.00  0.00    -0.392 OA
ATOM     31  H   UNL     1       5.451  -8.214  27.555  0.00  0.00    +0.210 HD
ENDBRANCH  29  30
ENDBRANCH  20  29
ENDBRANCH  15  16
ENDBRANCH   3  15
BRANCH   1  32
ATOM     32  O   UNL     1       8.227  -1.525  23.089  0.00  0.00    -0.342 OA
BRANCH  32  37
ATOM     33  C   UNL     1       7.714   2.100  23.278  0.00  0.00    +0.163 C 
ATOM     34  C   UNL     1       9.097   2.648  22.861  0.00  0.00    +0.146 C 
ATOM     35  C   UNL     1       9.838   1.702  21.905  0.00  0.00    +0.057 C 
ATOM     36  C   UNL     1       9.824   0.241  22.391  0.00  0.00    +0.110 C 
ATOM     37  C   UNL     1       8.344  -0.153  22.673  0.00  0.00    +0.268 C 
ATOM     38  O   UNL     1       7.797   0.718  23.663  0.00  0.00    -0.343 OA
BRANCH  36  39
ATOM     39  N   UNL     1      10.710   0.095  23.567  0.00  0.00    -0.323 NA
ATOM     40  H   UNL     1      11.195  -0.805  23.462  0.00  0.00    +0.119 HD
ATOM     41  H   UNL     1      11.467   0.775  23.447  0.00  0.00    +0.119 HD
ENDBRANCH  36  39
BRANCH  34  42
ATOM     42  O   UNL     1       9.873   2.861  24.049  0.00  0.00    -0.389 OA
ATOM     43  H   UNL     1      10.738   2.424  23.932  0.00  0.00    +0.210 HD
ENDBRANCH  34  42
BRANCH  33  44
ATOM     44  C   UNL     1       6.623   2.350  22.206  0.00  0.00    +0.112 C 
BRANCH  44  45
ATOM     45  N   UNL     1       6.490   3.775  21.857  0.00  0.00    -0.328 NA
ATOM     46  H   UNL     1       6.943   3.940  20.953  0.00  0.00    +0.118 HD
ATOM     47  H   UNL     1       5.504   3.989  21.690  0.00  0.00    +0.118 HD
ENDBRANCH  44  45
ENDBRANCH  33  44
ENDBRANCH  32  37
ENDBRANCH   1  32
TORSDOF 16
ENDMDL
