MODEL 1
REMARK VINA RESULT:      -6.8      0.000      0.000
REMARK  Name = 
REMARK  5 active torsions:
REMARK  status: ('A' for Active; 'I' for Inactive)
REMARK    1  A    between atoms: O_1  and  C_2
REMARK    2  A    between atoms: C_2  and  C_4
REMARK    3  A    between atoms: C_9  and  N_10
REMARK    4  A    between atoms: N_11  and  C_12
REMARK    5  A    between atoms: C_19  and  O_20
REMARK                            x       y       z     vdW  Elec       q    Type
REMARK                         _______ _______ _______ _____ _____    ______ ____
ROOT
ATOM      1  N   UNL     1       7.701  -3.174  23.260  0.00  0.00    -0.148 NA
ATOM      2  N   UNL     1       7.093  -2.086  23.189  0.00  0.00    -0.149 NA
ENDROOT
BRANCH   2   3
ATOM      3  C   UNL     1       7.855  -0.984  22.727  0.00  0.00    +0.094 A 
ATOM      4  C   UNL     1       9.000  -1.140  21.932  0.00  0.00    +0.034 A 
ATOM      5  C   UNL     1       9.761  -0.034  21.560  0.00  0.00    +0.048 A 
ATOM      6  C   UNL     1       9.396   1.238  21.985  0.00  0.00    +0.125 A 
ATOM      7  C   UNL     1       8.257   1.454  22.792  0.00  0.00    +0.026 A 
ATOM      8  C   UNL     1       7.843   2.731  23.249  0.00  0.00    +0.012 A 
ATOM      9  C   UNL     1       6.727   2.892  24.072  0.00  0.00    +0.001 A 
ATOM     10  C   UNL     1       5.987   1.785  24.452  0.00  0.00    +0.001 A 
ATOM     11  C   UNL     1       6.360   0.520  24.002  0.00  0.00    +0.011 A 
ATOM     12  C   UNL     1       7.486   0.319  23.171  0.00  0.00    +0.013 A 
BRANCH   6  13
ATOM     13  O   UNL     1      10.238   2.241  21.574  0.00  0.00    -0.506 OA
ATOM     14  H   UNL     1      11.150   1.917  21.559  0.00  0.00    +0.292 HD
ENDBRANCH   6  13
ENDBRANCH   2   3
BRANCH   1  16
ATOM     15  C   UNL     1       6.097  -5.036  23.073  0.00  0.00    +0.086 A 
ATOM     16  C   UNL     1       6.881  -4.170  23.856  0.00  0.00    +0.100 A 
ATOM     17  C   UNL     1       6.864  -4.357  25.257  0.00  0.00    +0.030 A 
ATOM     18  C   UNL     1       6.081  -5.345  25.858  0.00  0.00    +0.002 A 
ATOM     19  C   UNL     1       5.313  -6.191  25.069  0.00  0.00    +0.001 A 
ATOM     20  C   UNL     1       5.327  -6.044  23.683  0.00  0.00    +0.017 A 
BRANCH  15  21
ATOM     21  C   UNL     1       6.031  -4.970  21.591  0.00  0.00    +0.339 C 
ATOM     22  O   UNL     1       6.193  -5.952  20.884  0.00  0.00    -0.245 OA
BRANCH  21  23
ATOM     23  O   UNL     1       5.671  -3.768  21.093  0.00  0.00    -0.477 OA
ATOM     24  H   UNL     1       5.946  -3.000  21.634  0.00  0.00    +0.295 HD
ENDBRANCH  21  23
ENDBRANCH  15  21
ENDBRANCH   1  16
TORSDOF 5
ENDMDL
MODEL 2
REMARK VINA RESULT:      -6.8      2.200      2.737
REMARK  Name = 
REMARK  5 active torsions:
REMARK  status: ('A' for Active; 'I' for Inactive)
REMARK    1  A    between atoms: O_1  and  C_2
REMARK    2  A    between atoms: C_2  and  C_4
REMARK    3  A    between atoms: C_9  and  N_10
REMARK    4  A    between atoms: N_11  and  C_12
REMARK    5  A    between atoms: C_19  and  O_20
REMARK                            x       y       z     vdW  Elec       q    Type
REMARK                         _______ _______ _______ _____ _____    ______ ____
ROOT
ATOM      1  N   UNL     1       8.416  -2.024  22.454  0.00  0.00    -0.148 NA
ATOM      2  N   UNL     1       7.774  -1.056  22.912  0.00  0.00    -0.149 NA
ENDROOT
BRANCH   2   3
ATOM      3  C   UNL     1       8.446   0.192  22.893  0.00  0.00    +0.094 A 
ATOM      4  C   UNL     1       9.444   0.496  21.956  0.00  0.00    +0.034 A 
ATOM      5  C   UNL     1      10.130   1.707  22.018  0.00  0.00    +0.048 A 
ATOM      6  C   UNL     1       9.836   2.625  23.020  0.00  0.00    +0.125 A 
ATOM      7  C   UNL     1       8.845   2.369  23.994  0.00  0.00    +0.026 A 
ATOM      8  C   UNL     1       8.507   3.272  25.033  0.00  0.00    +0.012 A 
ATOM      9  C   UNL     1       7.543   2.962  25.993  0.00  0.00    +0.001 A 
ATOM     10  C   UNL     1       6.879   1.748  25.936  0.00  0.00    +0.001 A 
ATOM     11  C   UNL     1       7.177   0.850  24.913  0.00  0.00    +0.011 A 
ATOM     12  C   UNL     1       8.151   1.128  23.927  0.00  0.00    +0.013 A 
BRANCH   6  13
ATOM     13  O   UNL     1      10.595   3.768  22.989  0.00  0.00    -0.506 OA
ATOM     14  H   UNL     1      10.115   4.491  23.417  0.00  0.00    +0.292 HD
ENDBRANCH   6  13
ENDBRANCH   2   3
BRANCH   1  16
ATOM     15  C   UNL     1       8.017  -4.113  23.699  0.00  0.00    +0.086 A 
ATOM     16  C   UNL     1       7.701  -3.237  22.645  0.00  0.00    +0.100 A 
ATOM     17  C   UNL     1       6.613  -3.582  21.811  0.00  0.00    +0.030 A 
ATOM     18  C   UNL     1       5.886  -4.759  21.999  0.00  0.00    +0.002 A 
ATOM     19  C   UNL     1       6.212  -5.613  23.044  0.00  0.00    +0.001 A 
ATOM     20  C   UNL     1       7.266  -5.288  23.896  0.00  0.00    +0.017 A 
BRANCH  15  21
ATOM     21  C   UNL     1       9.120  -3.872  24.664  0.00  0.00    +0.339 C 
ATOM     22  O   UNL     1      10.057  -4.645  24.794  0.00  0.00    -0.245 OA
BRANCH  21  23
ATOM     23  O   UNL     1       9.062  -2.685  25.305  0.00  0.00    -0.477 OA
ATOM     24  H   UNL     1       8.239  -2.178  25.156  0.00  0.00    +0.295 HD
ENDBRANCH  21  23
ENDBRANCH  15  21
ENDBRANCH   1  16
TORSDOF 5
ENDMDL
MODEL 3
REMARK VINA RESULT:      -6.7      2.287      6.679
REMARK  Name = 
REMARK  5 active torsions:
REMARK  status: ('A' for Active; 'I' for Inactive)
REMARK    1  A    between atoms: O_1  and  C_2
REMARK    2  A    between atoms: C_2  and  C_4
REMARK    3  A    between atoms: C_9  and  N_10
REMARK    4  A    between atoms: N_11  and  C_12
REMARK    5  A    between atoms: C_19  and  O_20
REMARK                            x       y       z     vdW  Elec       q    Type
REMARK                         _______ _______ _______ _____ _____    ______ ____
ROOT
ATOM      1  N   UNL     1       7.829  -0.098  23.924  0.00  0.00    -0.148 NA
ATOM      2  N   UNL     1       7.160  -1.095  23.580  0.00  0.00    -0.149 NA
ENDROOT
BRANCH   2   3
ATOM      3  C   UNL     1       7.708  -2.354  23.929  0.00  0.00    +0.094 A 
ATOM      4  C   UNL     1       8.662  -2.504  24.946  0.00  0.00    +0.034 A 
ATOM      5  C   UNL     1       9.228  -3.749  25.209  0.00  0.00    +0.048 A 
ATOM      6  C   UNL     1       8.859  -4.857  24.454  0.00  0.00    +0.125 A 
ATOM      7  C   UNL     1       7.909  -4.763  23.413  0.00  0.00    +0.026 A 
ATOM      8  C   UNL     1       7.498  -5.862  22.617  0.00  0.00    +0.012 A 
ATOM      9  C   UNL     1       6.579  -5.714  21.577  0.00  0.00    +0.001 A 
ATOM     10  C   UNL     1       6.034  -4.469  21.310  0.00  0.00    +0.001 A 
ATOM     11  C   UNL     1       6.405  -3.375  22.090  0.00  0.00    +0.011 A 
ATOM     12  C   UNL     1       7.337  -3.487  23.148  0.00  0.00    +0.013 A 
BRANCH   6  13
ATOM     13  O   UNL     1       9.504  -6.020  24.792  0.00  0.00    -0.506 OA
ATOM     14  H   UNL     1       9.514  -6.121  25.755  0.00  0.00    +0.292 HD
ENDBRANCH   6  13
ENDBRANCH   2   3
BRANCH   1  16
ATOM     15  C   UNL     1       7.838   1.779  22.327  0.00  0.00    +0.086 A 
ATOM     16  C   UNL     1       7.254   1.096  23.408  0.00  0.00    +0.100 A 
ATOM     17  C   UNL     1       6.048   1.611  23.933  0.00  0.00    +0.030 A 
ATOM     18  C   UNL     1       5.459   2.770  23.424  0.00  0.00    +0.002 A 
ATOM     19  C   UNL     1       6.049   3.432  22.356  0.00  0.00    +0.001 A 
ATOM     20  C   UNL     1       7.228   2.935  21.803  0.00  0.00    +0.017 A 
BRANCH  15  21
ATOM     21  C   UNL     1       9.094   1.345  21.663  0.00  0.00    +0.339 C 
ATOM     22  O   UNL     1       9.190   0.275  21.081  0.00  0.00    -0.245 OA
BRANCH  21  23
ATOM     23  O   UNL     1      10.080   2.266  21.657  0.00  0.00    -0.477 OA
ATOM     24  H   UNL     1       9.980   2.978  22.322  0.00  0.00    +0.295 HD
ENDBRANCH  21  23
ENDBRANCH  15  21
ENDBRANCH   1  16
TORSDOF 5
ENDMDL
MODEL 4
REMARK VINA RESULT:      -6.7      1.968      2.464
REMARK  Name = 
REMARK  5 active torsions:
REMARK  status: ('A' for Active; 'I' for Inactive)
REMARK    1  A    between atoms: O_1  and  C_2
REMARK    2  A    between atoms: C_2  and  C_4
REMARK    3  A    between atoms: C_9  and  N_10
REMARK    4  A    between atoms: N_11  and  C_12
REMARK    5  A    between atoms: C_19  and  O_20
REMARK                            x       y       z     vdW  Elec       q    Type
REMARK                         _______ _______ _______ _____ _____    ______ ____
ROOT
ATOM      1  N   UNL     1       7.732  -3.328  23.465  0.00  0.00    -0.148 NA
ATOM      2  N   UNL     1       7.085  -2.267  23.347  0.00  0.00    -0.149 NA
ENDROOT
BRANCH   2   3
ATOM      3  C   UNL     1       7.802  -1.165  22.817  0.00  0.00    +0.094 A 
ATOM      4  C   UNL     1       8.932  -1.324  22.002  0.00  0.00    +0.034 A 
ATOM      5  C   UNL     1       9.650  -0.215  21.561  0.00  0.00    +0.048 A 
ATOM      6  C   UNL     1       9.257   1.064  21.936  0.00  0.00    +0.125 A 
ATOM      7  C   UNL     1       8.132   1.284  22.761  0.00  0.00    +0.026 A 
ATOM      8  C   UNL     1       7.690   2.568  23.170  0.00  0.00    +0.012 A 
ATOM      9  C   UNL     1       6.590   2.734  24.013  0.00  0.00    +0.001 A 
ATOM     10  C   UNL     1       5.892   1.625  24.461  0.00  0.00    +0.001 A 
ATOM     11  C   UNL     1       6.293   0.351  24.059  0.00  0.00    +0.011 A 
ATOM     12  C   UNL     1       7.404   0.145  23.210  0.00  0.00    +0.013 A 
BRANCH   6  13
ATOM     13  O   UNL     1      10.058   2.071  21.459  0.00  0.00    -0.506 OA
ATOM     14  H   UNL     1      10.449   1.807  20.614  0.00  0.00    +0.292 HD
ENDBRANCH   6  13
ENDBRANCH   2   3
BRANCH   1  16
ATOM     15  C   UNL     1       7.141  -4.602  25.490  0.00  0.00    +0.086 A 
ATOM     16  C   UNL     1       6.955  -4.319  24.125  0.00  0.00    +0.100 A 
ATOM     17  C   UNL     1       5.936  -5.021  23.444  0.00  0.00    +0.030 A 
ATOM     18  C   UNL     1       5.150  -5.982  24.083  0.00  0.00    +0.002 A 
ATOM     19  C   UNL     1       5.346  -6.248  25.432  0.00  0.00    +0.001 A 
ATOM     20  C   UNL     1       6.330  -5.556  26.135  0.00  0.00    +0.017 A 
BRANCH  15  21
ATOM     21  C   UNL     1       8.159  -3.930  26.337  0.00  0.00    +0.339 C 
ATOM     22  O   UNL     1       9.015  -4.552  26.949  0.00  0.00    -0.245 OA
BRANCH  21  23
ATOM     23  O   UNL     1       8.134  -2.582  26.292  0.00  0.00    -0.477 OA
ATOM     24  H   UNL     1       8.507  -2.191  25.475  0.00  0.00    +0.295 HD
ENDBRANCH  21  23
ENDBRANCH  15  21
ENDBRANCH   1  16
TORSDOF 5
ENDMDL
MODEL 5
REMARK VINA RESULT:      -6.6      2.373      6.745
REMARK  Name = 
REMARK  5 active torsions:
REMARK  status: ('A' for Active; 'I' for Inactive)
REMARK    1  A    between atoms: O_1  and  C_2
REMARK    2  A    between atoms: C_2  and  C_4
REMARK    3  A    between atoms: C_9  and  N_10
REMARK    4  A    between atoms: N_11  and  C_12
REMARK    5  A    between atoms: C_19  and  O_20
REMARK                            x       y       z     vdW  Elec       q    Type
REMARK                         _______ _______ _______ _____ _____    ______ ____
ROOT
ATOM      1  N   UNL     1       8.895  -1.099  24.804  0.00  0.00    -0.148 NA
ATOM      2  N   UNL     1       7.668  -1.297  24.691  0.00  0.00    -0.149 NA
ENDROOT
BRANCH   2   3
ATOM      3  C   UNL     1       7.205  -2.560  25.137  0.00  0.00    +0.094 A 
ATOM      4  C   UNL     1       7.270  -2.955  26.480  0.00  0.00    +0.034 A 
ATOM      5  C   UNL     1       6.870  -4.232  26.864  0.00  0.00    +0.048 A 
ATOM      6  C   UNL     1       6.412  -5.135  25.912  0.00  0.00    +0.125 A 
ATOM      7  C   UNL     1       6.332  -4.795  24.543  0.00  0.00    +0.026 A 
ATOM      8  C   UNL     1       5.869  -5.678  23.535  0.00  0.00    +0.012 A 
ATOM      9  C   UNL     1       5.838  -5.307  22.189  0.00  0.00    +0.001 A 
ATOM     10  C   UNL     1       6.254  -4.041  21.814  0.00  0.00    +0.001 A 
ATOM     11  C   UNL     1       6.694  -3.145  22.787  0.00  0.00    +0.011 A 
ATOM     12  C   UNL     1       6.744  -3.488  24.158  0.00  0.00    +0.013 A 
BRANCH   6  13
ATOM     13  O   UNL     1       6.072  -6.368  26.409  0.00  0.00    -0.506 OA
ATOM     14  H   UNL     1       5.236  -6.660  26.018  0.00  0.00    +0.292 HD
ENDBRANCH   6  13
ENDBRANCH   2   3
BRANCH   1  16
ATOM     15  C   UNL     1       9.802   0.192  22.910  0.00  0.00    +0.086 A 
ATOM     16  C   UNL     1       9.262   0.138  24.207  0.00  0.00    +0.100 A 
ATOM     17  C   UNL     1       9.052   1.363  24.880  0.00  0.00    +0.030 A 
ATOM     18  C   UNL     1       9.387   2.588  24.301  0.00  0.00    +0.002 A 
ATOM     19  C   UNL     1       9.918   2.623  23.018  0.00  0.00    +0.001 A 
ATOM     20  C   UNL     1      10.117   1.432  22.322  0.00  0.00    +0.017 A 
BRANCH  15  21
ATOM     21  C   UNL     1      10.060  -1.010  22.077  0.00  0.00    +0.339 C 
ATOM     22  O   UNL     1      10.825  -1.896  22.426  0.00  0.00    -0.245 OA
BRANCH  21  23
ATOM     23  O   UNL     1       9.304  -1.100  20.962  0.00  0.00    -0.477 OA
ATOM     24  H   UNL     1       9.809  -1.114  20.124  0.00  0.00    +0.295 HD
ENDBRANCH  21  23
ENDBRANCH  15  21
ENDBRANCH   1  16
TORSDOF 5
ENDMDL
MODEL 6
REMARK VINA RESULT:      -6.6      3.527      7.873
REMARK  Name = 
REMARK  5 active torsions:
REMARK  status: ('A' for Active; 'I' for Inactive)
REMARK    1  A    between atoms: O_1  and  C_2
REMARK    2  A    between atoms: C_2  and  C_4
REMARK    3  A    between atoms: C_9  and  N_10
REMARK    4  A    between atoms: N_11  and  C_12
REMARK    5  A    between atoms: C_19  and  O_20
REMARK                            x       y       z     vdW  Elec       q    Type
REMARK                         _______ _______ _______ _____ _____    ______ ____
ROOT
ATOM      1  N   UNL     1      10.238   2.666  22.840  0.00  0.00    -0.148 NA
ATOM      2  N   UNL     1      10.409   1.753  23.674  0.00  0.00    -0.149 NA
ENDROOT
BRANCH   2   3
ATOM      3  C   UNL     1       9.898   0.482  23.308  0.00  0.00    +0.094 A 
ATOM      4  C   UNL     1       9.812   0.060  21.974  0.00  0.00    +0.034 A 
ATOM      5  C   UNL     1       9.237  -1.167  21.653  0.00  0.00    +0.048 A 
ATOM      6  C   UNL     1       8.729  -1.983  22.658  0.00  0.00    +0.125 A 
ATOM      7  C   UNL     1       8.782  -1.606  24.019  0.00  0.00    +0.026 A 
ATOM      8  C   UNL     1       8.282  -2.403  25.080  0.00  0.00    +0.012 A 
ATOM      9  C   UNL     1       8.327  -1.974  26.407  0.00  0.00    +0.001 A 
ATOM     10  C   UNL     1       8.885  -0.744  26.715  0.00  0.00    +0.001 A 
ATOM     11  C   UNL     1       9.403   0.051  25.694  0.00  0.00    +0.011 A 
ATOM     12  C   UNL     1       9.370  -0.349  24.338  0.00  0.00    +0.013 A 
BRANCH   6  13
ATOM     13  O   UNL     1       8.166  -3.153  22.215  0.00  0.00    -0.506 OA
ATOM     14  H   UNL     1       7.641  -3.552  22.923  0.00  0.00    +0.292 HD
ENDBRANCH   6  13
ENDBRANCH   2   3
BRANCH   1  16
ATOM     15  C   UNL     1       9.785   4.758  24.061  0.00  0.00    +0.086 A 
ATOM     16  C   UNL     1      10.669   3.914  23.366  0.00  0.00    +0.100 A 
ATOM     17  C   UNL     1      12.015   4.329  23.251  0.00  0.00    +0.030 A 
ATOM     18  C   UNL     1      12.460   5.542  23.781  0.00  0.00    +0.002 A 
ATOM     19  C   UNL     1      11.574   6.363  24.465  0.00  0.00    +0.001 A 
ATOM     20  C   UNL     1      10.244   5.970  24.613  0.00  0.00    +0.017 A 
BRANCH  15  21
ATOM     21  C   UNL     1       8.349   4.445  24.277  0.00  0.00    +0.339 C 
ATOM     22  O   UNL     1       7.453   5.109  23.779  0.00  0.00    -0.245 OA
BRANCH  21  23
ATOM     23  O   UNL     1       8.115   3.311  24.971  0.00  0.00    -0.477 OA
ATOM     24  H   UNL     1       7.561   3.426  25.769  0.00  0.00    +0.295 HD
ENDBRANCH  21  23
ENDBRANCH  15  21
ENDBRANCH   1  16
TORSDOF 5
ENDMDL
MODEL 7
REMARK VINA RESULT:      -6.5      2.215      6.906
REMARK  Name = 
REMARK  5 active torsions:
REMARK  status: ('A' for Active; 'I' for Inactive)
REMARK    1  A    between atoms: O_1  and  C_2
REMARK    2  A    between atoms: C_2  and  C_4
REMARK    3  A    between atoms: C_9  and  N_10
REMARK    4  A    between atoms: N_11  and  C_12
REMARK    5  A    between atoms: C_19  and  O_20
REMARK                            x       y       z     vdW  Elec       q    Type
REMARK                         _______ _______ _______ _____ _____    ______ ____
ROOT
ATOM      1  N   UNL     1       7.613  -1.058  23.011  0.00  0.00    -0.148 NA
ATOM      2  N   UNL     1       8.249  -2.132  22.982  0.00  0.00    -0.149 NA
ENDROOT
BRANCH   2   3
ATOM      3  C   UNL     1       7.468  -3.312  23.061  0.00  0.00    +0.094 A 
ATOM      4  C   UNL     1       6.724  -3.796  21.976  0.00  0.00    +0.034 A 
ATOM      5  C   UNL     1       5.912  -4.919  22.117  0.00  0.00    +0.048 A 
ATOM      6  C   UNL     1       5.825  -5.567  23.344  0.00  0.00    +0.125 A 
ATOM      7  C   UNL     1       6.547  -5.119  24.473  0.00  0.00    +0.026 A 
ATOM      8  C   UNL     1       6.493  -5.746  25.744  0.00  0.00    +0.012 A 
ATOM      9  C   UNL     1       7.200  -5.248  26.840  0.00  0.00    +0.001 A 
ATOM     10  C   UNL     1       7.990  -4.121  26.695  0.00  0.00    +0.001 A 
ATOM     11  C   UNL     1       8.078  -3.496  25.452  0.00  0.00    +0.011 A 
ATOM     12  C   UNL     1       7.372  -3.969  24.322  0.00  0.00    +0.013 A 
BRANCH   6  13
ATOM     13  O   UNL     1       4.975  -6.644  23.363  0.00  0.00    -0.506 OA
ATOM     14  H   UNL     1       4.874  -6.997  22.467  0.00  0.00    +0.292 HD
ENDBRANCH   6  13
ENDBRANCH   2   3
BRANCH   1  16
ATOM     15  C   UNL     1       8.835   0.665  24.280  0.00  0.00    +0.086 A 
ATOM     16  C   UNL     1       8.501   0.051  23.060  0.00  0.00    +0.100 A 
ATOM     17  C   UNL     1       9.117   0.544  21.888  0.00  0.00    +0.030 A 
ATOM     18  C   UNL     1      10.008   1.619  21.921  0.00  0.00    +0.002 A 
ATOM     19  C   UNL     1      10.327   2.214  23.135  0.00  0.00    +0.001 A 
ATOM     20  C   UNL     1       9.752   1.734  24.310  0.00  0.00    +0.017 A 
BRANCH  15  21
ATOM     21  C   UNL     1       8.282   0.242  25.592  0.00  0.00    +0.339 C 
ATOM     22  O   UNL     1       7.085   0.264  25.834  0.00  0.00    -0.245 OA
BRANCH  21  23
ATOM     23  O   UNL     1       9.189  -0.268  26.451  0.00  0.00    -0.477 OA
ATOM     24  H   UNL     1       8.877  -0.351  27.375  0.00  0.00    +0.295 HD
ENDBRANCH  21  23
ENDBRANCH  15  21
ENDBRANCH   1  16
TORSDOF 5
ENDMDL
MODEL 8
REMARK VINA RESULT:      -6.5      2.291      2.819
REMARK  Name = 
REMARK  5 active torsions:
REMARK  status: ('A' for Active; 'I' for Inactive)
REMARK    1  A    between atoms: O_1  and  C_2
REMARK    2  A    between atoms: C_2  and  C_4
REMARK    3  A    between atoms: C_9  and  N_10
REMARK    4  A    between atoms: N_11  and  C_12
REMARK    5  A    between atoms: C_19  and  O_20
REMARK                            x       y       z     vdW  Elec       q    Type
REMARK                         _______ _______ _______ _____ _____    ______ ____
ROOT
ATOM      1  N   UNL     1       8.454  -1.991  22.645  0.00  0.00    -0.148 NA
ATOM      2  N   UNL     1       7.981  -1.047  23.311  0.00  0.00    -0.149 NA
ENDROOT
BRANCH   2   3
ATOM      3  C   UNL     1       8.752   0.142  23.328  0.00  0.00    +0.094 A 
ATOM      4  C   UNL     1      10.096   0.162  23.727  0.00  0.00    +0.034 A 
ATOM      5  C   UNL     1      10.797   1.363  23.798  0.00  0.00    +0.048 A 
ATOM      6  C   UNL     1      10.164   2.560  23.483  0.00  0.00    +0.125 A 
ATOM      7  C   UNL     1       8.810   2.600  23.082  0.00  0.00    +0.026 A 
ATOM      8  C   UNL     1       8.120   3.794  22.749  0.00  0.00    +0.012 A 
ATOM      9  C   UNL     1       6.771   3.788  22.388  0.00  0.00    +0.001 A 
ATOM     10  C   UNL     1       6.077   2.591  22.338  0.00  0.00    +0.001 A 
ATOM     11  C   UNL     1       6.736   1.400  22.641  0.00  0.00    +0.011 A 
ATOM     12  C   UNL     1       8.099   1.369  23.014  0.00  0.00    +0.013 A 
BRANCH   6  13
ATOM     13  O   UNL     1      10.952   3.676  23.615  0.00  0.00    -0.506 OA
ATOM     14  H   UNL     1      10.926   4.193  22.798  0.00  0.00    +0.292 HD
ENDBRANCH   6  13
ENDBRANCH   2   3
BRANCH   1  16
ATOM     15  C   UNL     1       7.948  -4.096  23.824  0.00  0.00    +0.086 A 
ATOM     16  C   UNL     1       7.668  -3.165  22.808  0.00  0.00    +0.100 A 
ATOM     17  C   UNL     1       6.547  -3.412  21.984  0.00  0.00    +0.030 A 
ATOM     18  C   UNL     1       5.752  -4.549  22.144  0.00  0.00    +0.002 A 
ATOM     19  C   UNL     1       6.043  -5.458  23.152  0.00  0.00    +0.001 A 
ATOM     20  C   UNL     1       7.130  -5.229  23.994  0.00  0.00    +0.017 A 
BRANCH  15  21
ATOM     21  C   UNL     1       9.080  -3.958  24.775  0.00  0.00    +0.339 C 
ATOM     22  O   UNL     1      10.031  -4.726  24.777  0.00  0.00    -0.245 OA
BRANCH  21  23
ATOM     23  O   UNL     1       9.030  -2.861  25.560  0.00  0.00    -0.477 OA
ATOM     24  H   UNL     1       9.160  -3.033  26.514  0.00  0.00    +0.295 HD
ENDBRANCH  21  23
ENDBRANCH  15  21
ENDBRANCH   1  16
TORSDOF 5
ENDMDL
MODEL 9
REMARK VINA RESULT:      -6.5      1.762      2.034
REMARK  Name = 
REMARK  5 active torsions:
REMARK  status: ('A' for Active; 'I' for Inactive)
REMARK    1  A    between atoms: O_1  and  C_2
REMARK    2  A    between atoms: C_2  and  C_4
REMARK    3  A    between atoms: C_9  and  N_10
REMARK    4  A    between atoms: N_11  and  C_12
REMARK    5  A    between atoms: C_19  and  O_20
REMARK                            x       y       z     vdW  Elec       q    Type
REMARK                         _______ _______ _______ _____ _____    ______ ____
ROOT
ATOM      1  N   UNL     1       8.950  -2.143  24.282  0.00  0.00    -0.148 NA
ATOM      2  N   UNL     1       8.412  -1.060  24.592  0.00  0.00    -0.149 NA
ENDROOT
BRANCH   2   3
ATOM      3  C   UNL     1       9.093   0.109  24.167  0.00  0.00    +0.094 A 
ATOM      4  C   UNL     1      10.448   0.335  24.448  0.00  0.00    +0.034 A 
ATOM      5  C   UNL     1      11.060   1.529  24.075  0.00  0.00    +0.048 A 
ATOM      6  C   UNL     1      10.325   2.517  23.428  0.00  0.00    +0.125 A 
ATOM      7  C   UNL     1       8.956   2.346  23.126  0.00  0.00    +0.026 A 
ATOM      8  C   UNL     1       8.165   3.320  22.465  0.00  0.00    +0.012 A 
ATOM      9  C   UNL     1       6.806   3.120  22.216  0.00  0.00    +0.001 A 
ATOM     10  C   UNL     1       6.202   1.937  22.607  0.00  0.00    +0.001 A 
ATOM     11  C   UNL     1       6.960   0.953  23.240  0.00  0.00    +0.011 A 
ATOM     12  C   UNL     1       8.337   1.124  23.512  0.00  0.00    +0.013 A 
BRANCH   6  13
ATOM     13  O   UNL     1      11.032   3.656  23.135  0.00  0.00    -0.506 OA
ATOM     14  H   UNL     1      10.445   4.312  22.733  0.00  0.00    +0.292 HD
ENDBRANCH   6  13
ENDBRANCH   2   3
BRANCH   1  16
ATOM     15  C   UNL     1       7.455  -4.094  24.095  0.00  0.00    +0.086 A 
ATOM     16  C   UNL     1       8.256  -3.235  24.870  0.00  0.00    +0.100 A 
ATOM     17  C   UNL     1       8.385  -3.526  26.247  0.00  0.00    +0.030 A 
ATOM     18  C   UNL     1       7.727  -4.607  26.836  0.00  0.00    +0.002 A 
ATOM     19  C   UNL     1       6.941  -5.445  26.056  0.00  0.00    +0.001 A 
ATOM     20  C   UNL     1       6.812  -5.196  24.691  0.00  0.00    +0.017 A 
BRANCH  15  21
ATOM     21  C   UNL     1       7.242  -3.924  22.635  0.00  0.00    +0.339 C 
ATOM     22  O   UNL     1       7.192  -4.872  21.866  0.00  0.00    -0.245 OA
BRANCH  21  23
ATOM     23  O   UNL     1       7.000  -2.655  22.242  0.00  0.00    -0.477 OA
ATOM     24  H   UNL     1       6.357  -2.568  21.510  0.00  0.00    +0.295 HD
ENDBRANCH  21  23
ENDBRANCH  15  21
ENDBRANCH   1  16
TORSDOF 5
ENDMDL
