MODEL 1
REMARK VINA RESULT:      -7.7      0.000      0.000
REMARK  Name = 
REMARK  3 active torsions:
REMARK  status: ('A' for Active; 'I' for Inactive)
REMARK    1  A    between atoms: C_2  and  O_3
REMARK    2  A    between atoms: C_19  and  O_21
REMARK    3  A    between atoms: C_22  and  O_24
REMARK                            x       y       z     vdW  Elec       q    Type
REMARK                         _______ _______ _______ _____ _____    ______ ____
ROOT
ATOM      1  C   UNL     1       8.707  -4.921  24.751  0.00  0.00    +0.150 C 
ATOM      2  C   UNL     1       8.307  -4.970  26.234  0.00  0.00    +0.176 C 
ATOM      3  C   UNL     1       7.299  -3.841  26.516  0.00  0.00    +0.176 C 
ATOM      4  C   UNL     1       7.755  -2.491  25.985  0.00  0.00    -0.012 A 
ATOM      5  C   UNL     1       8.748  -2.366  24.988  0.00  0.00    -0.031 A 
ATOM      6  C   UNL     1       9.164  -1.070  24.555  0.00  0.00    -0.013 A 
ATOM      7  C   UNL     1       8.539   0.078  25.101  0.00  0.00    -0.002 A 
ATOM      8  C   UNL     1       8.927   1.382  24.686  0.00  0.00    -0.002 A 
ATOM      9  C   UNL     1       8.298   2.525  25.235  0.00  0.00    -0.017 A 
ATOM     10  C   UNL     1       7.292   2.359  26.192  0.00  0.00    +0.009 A 
ATOM     11  C   UNL     1       6.910   1.082  26.605  0.00  0.00    +0.009 A 
ATOM     12  C   UNL     1       8.693   3.805  24.812  0.00  0.00    +0.008 A 
ATOM     13  C   UNL     1       9.700   3.958  23.860  0.00  0.00    +0.001 A 
ATOM     14  C   UNL     1      10.323   2.838  23.318  0.00  0.00    +0.008 A 
ATOM     15  C   UNL     1       9.948   1.547  23.724  0.00  0.00    -0.017 A 
ATOM     16  C   UNL     1      10.568   0.417  23.193  0.00  0.00    +0.009 A 
ATOM     17  C   UNL     1       7.522  -0.060  26.072  0.00  0.00    -0.016 A 
ATOM     18  C   UNL     1      10.186  -0.863  23.602  0.00  0.00    +0.009 A 
ATOM     19  C   UNL     1       7.144  -1.338  26.497  0.00  0.00    +0.015 A 
ATOM     20  C   UNL     1       9.415  -3.606  24.419  0.00  0.00    +0.070 C 
ENDROOT
BRANCH   2  21
ATOM     21  O   UNL     1       9.443  -4.874  27.110  0.00  0.00    -0.386 OA
ATOM     22  H   UNL     1       9.539  -5.712  27.592  0.00  0.00    +0.210 HD
ENDBRANCH   2  21
BRANCH   3  23
ATOM     23  O   UNL     1       6.036  -4.169  25.929  0.00  0.00    -0.385 OA
ATOM     24  H   UNL     1       5.338  -3.709  26.425  0.00  0.00    +0.210 HD
ENDBRANCH   3  23
BRANCH   1  25
ATOM     25  O   UNL     1       9.559  -6.017  24.417  0.00  0.00    -0.389 OA
ATOM     26  H   UNL     1       9.276  -6.361  23.552  0.00  0.00    +0.210 HD
ENDBRANCH   1  25
TORSDOF 3
ENDMDL
MODEL 2
REMARK VINA RESULT:      -7.7      1.024      3.120
REMARK  Name = 
REMARK  3 active torsions:
REMARK  status: ('A' for Active; 'I' for Inactive)
REMARK    1  A    between atoms: C_2  and  O_3
REMARK    2  A    between atoms: C_19  and  O_21
REMARK    3  A    between atoms: C_22  and  O_24
REMARK                            x       y       z     vdW  Elec       q    Type
REMARK                         _______ _______ _______ _____ _____    ______ ____
ROOT
ATOM      1  C   UNL     1       7.957  -4.723  26.865  0.00  0.00    +0.150 C 
ATOM      2  C   UNL     1       7.938  -5.384  25.478  0.00  0.00    +0.176 C 
ATOM      3  C   UNL     1       9.006  -4.715  24.592  0.00  0.00    +0.176 C 
ATOM      4  C   UNL     1       8.931  -3.197  24.618  0.00  0.00    -0.012 A 
ATOM      5  C   UNL     1       8.270  -2.488  25.646  0.00  0.00    -0.031 A 
ATOM      6  C   UNL     1       8.199  -1.063  25.596  0.00  0.00    -0.013 A 
ATOM      7  C   UNL     1       8.836  -0.373  24.535  0.00  0.00    -0.002 A 
ATOM      8  C   UNL     1       8.789   1.048  24.461  0.00  0.00    -0.002 A 
ATOM      9  C   UNL     1       9.428   1.732  23.399  0.00  0.00    -0.017 A 
ATOM     10  C   UNL     1      10.104   0.996  22.421  0.00  0.00    +0.009 A 
ATOM     11  C   UNL     1      10.152  -0.397  22.487  0.00  0.00    +0.009 A 
ATOM     12  C   UNL     1       9.371   3.134  23.343  0.00  0.00    +0.008 A 
ATOM     13  C   UNL     1       8.690   3.856  24.322  0.00  0.00    +0.001 A 
ATOM     14  C   UNL     1       8.058   3.188  25.367  0.00  0.00    +0.008 A 
ATOM     15  C   UNL     1       8.098   1.788  25.446  0.00  0.00    -0.017 A 
ATOM     16  C   UNL     1       7.465   1.107  26.486  0.00  0.00    +0.009 A 
ATOM     17  C   UNL     1       9.524  -1.090  23.532  0.00  0.00    -0.016 A 
ATOM     18  C   UNL     1       7.512  -0.287  26.557  0.00  0.00    +0.009 A 
ATOM     19  C   UNL     1       9.565  -2.487  23.588  0.00  0.00    +0.015 A 
ATOM     20  C   UNL     1       7.585  -3.243  26.770  0.00  0.00    +0.070 C 
ENDROOT
BRANCH   2  21
ATOM     21  O   UNL     1       6.643  -5.317  24.858  0.00  0.00    -0.386 OA
ATOM     22  H   UNL     1       6.744  -5.469  23.903  0.00  0.00    +0.210 HD
ENDBRANCH   2  21
BRANCH   3  23
ATOM     23  O   UNL     1      10.308  -5.124  25.022  0.00  0.00    -0.385 OA
ATOM     24  H   UNL     1      10.968  -4.587  24.553  0.00  0.00    +0.210 HD
ENDBRANCH   3  23
BRANCH   1  25
ATOM     25  O   UNL     1       7.057  -5.384  27.756  0.00  0.00    -0.389 OA
ATOM     26  H   UNL     1       7.112  -4.940  28.619  0.00  0.00    +0.210 HD
ENDBRANCH   1  25
TORSDOF 3
ENDMDL
MODEL 3
REMARK VINA RESULT:      -7.2      4.099      5.966
REMARK  Name = 
REMARK  3 active torsions:
REMARK  status: ('A' for Active; 'I' for Inactive)
REMARK    1  A    between atoms: C_2  and  O_3
REMARK    2  A    between atoms: C_19  and  O_21
REMARK    3  A    between atoms: C_22  and  O_24
REMARK                            x       y       z     vdW  Elec       q    Type
REMARK                         _______ _______ _______ _____ _____    ______ ____
ROOT
ATOM      1  C   UNL     1       1.920  -6.029  24.157  0.00  0.00    +0.150 C 
ATOM      2  C   UNL     1       2.429  -7.341  24.775  0.00  0.00    +0.176 C 
ATOM      3  C   UNL     1       3.534  -7.015  25.797  0.00  0.00    +0.176 C 
ATOM      4  C   UNL     1       4.592  -6.073  25.245  0.00  0.00    -0.012 A 
ATOM      5  C   UNL     1       4.367  -5.259  24.113  0.00  0.00    -0.031 A 
ATOM      6  C   UNL     1       5.412  -4.422  23.618  0.00  0.00    -0.013 A 
ATOM      7  C   UNL     1       6.654  -4.384  24.300  0.00  0.00    -0.002 A 
ATOM      8  C   UNL     1       7.713  -3.555  23.835  0.00  0.00    -0.002 A 
ATOM      9  C   UNL     1       8.950  -3.522  24.521  0.00  0.00    -0.017 A 
ATOM     10  C   UNL     1       9.122  -4.314  25.661  0.00  0.00    +0.009 A 
ATOM     11  C   UNL     1       8.087  -5.130  26.120  0.00  0.00    +0.009 A 
ATOM     12  C   UNL     1       9.984  -2.697  24.048  0.00  0.00    +0.008 A 
ATOM     13  C   UNL     1       9.802  -1.914  22.908  0.00  0.00    +0.001 A 
ATOM     14  C   UNL     1       8.588  -1.946  22.228  0.00  0.00    +0.008 A 
ATOM     15  C   UNL     1       7.539  -2.762  22.679  0.00  0.00    -0.017 A 
ATOM     16  C   UNL     1       6.319  -2.806  22.004  0.00  0.00    +0.009 A 
ATOM     17  C   UNL     1       6.856  -5.176  25.452  0.00  0.00    -0.016 A 
ATOM     18  C   UNL     1       5.281  -3.620  22.462  0.00  0.00    +0.009 A 
ATOM     19  C   UNL     1       5.826  -6.004  25.909  0.00  0.00    +0.015 A 
ATOM     20  C   UNL     1       3.035  -5.318  23.388  0.00  0.00    +0.070 C 
ENDROOT
BRANCH   2  21
ATOM     21  O   UNL     1       2.906  -8.264  23.781  0.00  0.00    -0.386 OA
ATOM     22  H   UNL     1       2.545  -8.007  22.916  0.00  0.00    +0.210 HD
ENDBRANCH   2  21
BRANCH   3  23
ATOM     23  O   UNL     1       2.949  -6.427  26.962  0.00  0.00    -0.385 OA
ATOM     24  H   UNL     1       2.097  -6.033  26.713  0.00  0.00    +0.210 HD
ENDBRANCH   3  23
BRANCH   1  25
ATOM     25  O   UNL     1       0.818  -6.272  23.282  0.00  0.00    -0.389 OA
ATOM     26  H   UNL     1       0.382  -7.091  23.573  0.00  0.00    +0.210 HD
ENDBRANCH   1  25
TORSDOF 3
ENDMDL
MODEL 4
REMARK VINA RESULT:      -7.2      2.018      3.736
REMARK  Name = 
REMARK  3 active torsions:
REMARK  status: ('A' for Active; 'I' for Inactive)
REMARK    1  A    between atoms: C_2  and  O_3
REMARK    2  A    between atoms: C_19  and  O_21
REMARK    3  A    between atoms: C_22  and  O_24
REMARK                            x       y       z     vdW  Elec       q    Type
REMARK                         _______ _______ _______ _____ _____    ______ ____
ROOT
ATOM      1  C   UNL     1       5.884  -4.460  27.304  0.00  0.00    +0.150 C 
ATOM      2  C   UNL     1       6.466  -5.642  26.512  0.00  0.00    +0.176 C 
ATOM      3  C   UNL     1       7.871  -5.262  26.010  0.00  0.00    +0.176 C 
ATOM      4  C   UNL     1       7.908  -3.906  25.323  0.00  0.00    -0.012 A 
ATOM      5  C   UNL     1       6.900  -2.935  25.508  0.00  0.00    -0.031 A 
ATOM      6  C   UNL     1       6.969  -1.693  24.807  0.00  0.00    -0.013 A 
ATOM      7  C   UNL     1       8.078  -1.432  23.965  0.00  0.00    -0.002 A 
ATOM      8  C   UNL     1       8.179  -0.202  23.257  0.00  0.00    -0.002 A 
ATOM      9  C   UNL     1       9.290   0.053  22.418  0.00  0.00    -0.017 A 
ATOM     10  C   UNL     1      10.288  -0.918  22.290  0.00  0.00    +0.009 A 
ATOM     11  C   UNL     1      10.193  -2.128  22.981  0.00  0.00    +0.009 A 
ATOM     12  C   UNL     1       9.373   1.273  21.728  0.00  0.00    +0.008 A 
ATOM     13  C   UNL     1       8.370   2.233  21.860  0.00  0.00    +0.001 A 
ATOM     14  C   UNL     1       7.274   1.986  22.682  0.00  0.00    +0.008 A 
ATOM     15  C   UNL     1       7.166   0.775  23.382  0.00  0.00    -0.017 A 
ATOM     16  C   UNL     1       6.070   0.513  24.205  0.00  0.00    +0.009 A 
ATOM     17  C   UNL     1       9.099  -2.397  23.815  0.00  0.00    -0.016 A 
ATOM     18  C   UNL     1       5.973  -0.694  24.898  0.00  0.00    +0.009 A 
ATOM     19  C   UNL     1       9.002  -3.614  24.496  0.00  0.00    +0.015 A 
ATOM     20  C   UNL     1       5.713  -3.233  26.406  0.00  0.00    +0.070 C 
ENDROOT
BRANCH   2  21
ATOM     21  O   UNL     1       5.621  -6.038  25.419  0.00  0.00    -0.386 OA
ATOM     22  H   UNL     1       5.724  -5.397  24.696  0.00  0.00    +0.210 HD
ENDBRANCH   2  21
BRANCH   3  23
ATOM     23  O   UNL     1       8.786  -5.251  27.110  0.00  0.00    -0.385 OA
ATOM     24  H   UNL     1       8.908  -6.165  27.417  0.00  0.00    +0.210 HD
ENDBRANCH   3  23
BRANCH   1  25
ATOM     25  O   UNL     1       4.624  -4.806  27.882  0.00  0.00    -0.389 OA
ATOM     26  H   UNL     1       4.065  -4.011  27.874  0.00  0.00    +0.210 HD
ENDBRANCH   1  25
TORSDOF 3
ENDMDL
MODEL 5
REMARK VINA RESULT:      -7.0      2.037      3.754
REMARK  Name = 
REMARK  3 active torsions:
REMARK  status: ('A' for Active; 'I' for Inactive)
REMARK    1  A    between atoms: C_2  and  O_3
REMARK    2  A    between atoms: C_19  and  O_21
REMARK    3  A    between atoms: C_22  and  O_24
REMARK                            x       y       z     vdW  Elec       q    Type
REMARK                         _______ _______ _______ _____ _____    ______ ____
ROOT
ATOM      1  C   UNL     1       5.810  -4.939  24.730  0.00  0.00    +0.150 C 
ATOM      2  C   UNL     1       5.737  -5.234  23.223  0.00  0.00    +0.176 C 
ATOM      3  C   UNL     1       7.021  -4.714  22.551  0.00  0.00    +0.176 C 
ATOM      4  C   UNL     1       7.359  -3.284  22.944  0.00  0.00    -0.012 A 
ATOM      5  C   UNL     1       6.826  -2.670  24.098  0.00  0.00    -0.031 A 
ATOM      6  C   UNL     1       7.149  -1.311  24.396  0.00  0.00    -0.013 A 
ATOM      7  C   UNL     1       8.042  -0.608  23.549  0.00  0.00    -0.002 A 
ATOM      8  C   UNL     1       8.388   0.745  23.822  0.00  0.00    -0.002 A 
ATOM      9  C   UNL     1       9.282   1.441  22.973  0.00  0.00    -0.017 A 
ATOM     10  C   UNL     1       9.818   0.785  21.860  0.00  0.00    +0.009 A 
ATOM     11  C   UNL     1       9.480  -0.541  21.586  0.00  0.00    +0.009 A 
ATOM     12  C   UNL     1       9.613   2.775  23.258  0.00  0.00    +0.008 A 
ATOM     13  C   UNL     1       9.068   3.419  24.369  0.00  0.00    +0.001 A 
ATOM     14  C   UNL     1       8.188   2.740  25.206  0.00  0.00    +0.008 A 
ATOM     15  C   UNL     1       7.839   1.406  24.942  0.00  0.00    -0.017 A 
ATOM     16  C   UNL     1       6.954   0.716  25.771  0.00  0.00    +0.009 A 
ATOM     17  C   UNL     1       8.597  -1.244  22.416  0.00  0.00    -0.016 A 
ATOM     18  C   UNL     1       6.615  -0.611  25.501  0.00  0.00    +0.009 A 
ATOM     19  C   UNL     1       8.252  -2.570  22.132  0.00  0.00    +0.015 A 
ATOM     20  C   UNL     1       5.864  -3.433  24.990  0.00  0.00    +0.070 C 
ENDROOT
BRANCH   2  21
ATOM     21  O   UNL     1       4.569  -4.661  22.610  0.00  0.00    -0.386 OA
ATOM     22  H   UNL     1       4.459  -3.752  22.934  0.00  0.00    +0.210 HD
ENDBRANCH   2  21
BRANCH   3  23
ATOM     23  O   UNL     1       8.119  -5.563  22.896  0.00  0.00    -0.385 OA
ATOM     24  H   UNL     1       8.867  -5.349  22.314  0.00  0.00    +0.210 HD
ENDBRANCH   3  23
BRANCH   1  25
ATOM     25  O   UNL     1       4.688  -5.500  25.413  0.00  0.00    -0.389 OA
ATOM     26  H   UNL     1       4.356  -6.243  24.880  0.00  0.00    +0.210 HD
ENDBRANCH   1  25
TORSDOF 3
ENDMDL
MODEL 6
REMARK VINA RESULT:      -7.0      3.916      6.579
REMARK  Name = 
REMARK  3 active torsions:
REMARK  status: ('A' for Active; 'I' for Inactive)
REMARK    1  A    between atoms: C_2  and  O_3
REMARK    2  A    between atoms: C_19  and  O_21
REMARK    3  A    between atoms: C_22  and  O_24
REMARK                            x       y       z     vdW  Elec       q    Type
REMARK                         _______ _______ _______ _____ _____    ______ ____
ROOT
ATOM      1  C   UNL     1      10.443   4.949  23.761  0.00  0.00    +0.150 C 
ATOM      2  C   UNL     1       9.018   5.519  23.838  0.00  0.00    +0.176 C 
ATOM      3  C   UNL     1       8.280   4.857  25.016  0.00  0.00    +0.176 C 
ATOM      4  C   UNL     1       8.401   3.341  25.016  0.00  0.00    -0.012 A 
ATOM      5  C   UNL     1       9.411   2.662  24.299  0.00  0.00    -0.031 A 
ATOM      6  C   UNL     1       9.453   1.235  24.305  0.00  0.00    -0.013 A 
ATOM      7  C   UNL     1       8.502   0.516  25.072  0.00  0.00    -0.002 A 
ATOM      8  C   UNL     1       8.521  -0.907  25.104  0.00  0.00    -0.002 A 
ATOM      9  C   UNL     1       7.570  -1.619  25.873  0.00  0.00    -0.017 A 
ATOM     10  C   UNL     1       6.609  -0.909  26.599  0.00  0.00    +0.009 A 
ATOM     11  C   UNL     1       6.584   0.486  26.571  0.00  0.00    +0.009 A 
ATOM     12  C   UNL     1       7.604  -3.022  25.892  0.00  0.00    +0.008 A 
ATOM     13  C   UNL     1       8.565  -3.719  25.160  0.00  0.00    +0.001 A 
ATOM     14  C   UNL     1       9.501  -3.024  24.401  0.00  0.00    +0.008 A 
ATOM     15  C   UNL     1       9.489  -1.621  24.363  0.00  0.00    -0.017 A 
ATOM     16  C   UNL     1      10.419  -0.912  23.601  0.00  0.00    +0.009 A 
ATOM     17  C   UNL     1       7.518   1.207  25.814  0.00  0.00    -0.016 A 
ATOM     18  C   UNL     1      10.398   0.483  23.572  0.00  0.00    +0.009 A 
ATOM     19  C   UNL     1       7.484   2.604  25.779  0.00  0.00    +0.015 A 
ATOM     20  C   UNL     1      10.416   3.446  23.475  0.00  0.00    +0.070 C 
ENDROOT
BRANCH   2  21
ATOM     21  O   UNL     1       8.290   5.340  22.611  0.00  0.00    -0.386 OA
ATOM     22  H   UNL     1       8.853   4.859  21.981  0.00  0.00    +0.210 HD
ENDBRANCH   2  21
BRANCH   3  23
ATOM     23  O   UNL     1       8.795   5.364  26.250  0.00  0.00    -0.385 OA
ATOM     24  H   UNL     1       8.397   4.861  26.980  0.00  0.00    +0.210 HD
ENDBRANCH   3  23
BRANCH   1  25
ATOM     25  O   UNL     1      11.202   5.612  22.749  0.00  0.00    -0.389 OA
ATOM     26  H   UNL     1      10.604   6.214  22.274  0.00  0.00    +0.210 HD
ENDBRANCH   1  25
TORSDOF 3
ENDMDL
MODEL 7
REMARK VINA RESULT:      -6.9      3.005      6.568
REMARK  Name = 
REMARK  3 active torsions:
REMARK  status: ('A' for Active; 'I' for Inactive)
REMARK    1  A    between atoms: C_2  and  O_3
REMARK    2  A    between atoms: C_19  and  O_21
REMARK    3  A    between atoms: C_22  and  O_24
REMARK                            x       y       z     vdW  Elec       q    Type
REMARK                         _______ _______ _______ _____ _____    ______ ____
ROOT
ATOM      1  C   UNL     1       8.307   1.141  22.208  0.00  0.00    +0.150 C 
ATOM      2  C   UNL     1       9.827   0.951  22.332  0.00  0.00    +0.176 C 
ATOM      3  C   UNL     1      10.138  -0.555  22.399  0.00  0.00    +0.176 C 
ATOM      4  C   UNL     1       9.281  -1.293  23.416  0.00  0.00    -0.012 A 
ATOM      5  C   UNL     1       8.069  -0.763  23.911  0.00  0.00    -0.031 A 
ATOM      6  C   UNL     1       7.326  -1.485  24.895  0.00  0.00    -0.013 A 
ATOM      7  C   UNL     1       7.793  -2.750  25.328  0.00  0.00    -0.002 A 
ATOM      8  C   UNL     1       7.072  -3.496  26.302  0.00  0.00    -0.002 A 
ATOM      9  C   UNL     1       7.544  -4.760  26.730  0.00  0.00    -0.017 A 
ATOM     10  C   UNL     1       8.728  -5.267  26.188  0.00  0.00    +0.009 A 
ATOM     11  C   UNL     1       9.441  -4.539  25.234  0.00  0.00    +0.009 A 
ATOM     12  C   UNL     1       6.818  -5.482  27.691  0.00  0.00    +0.008 A 
ATOM     13  C   UNL     1       5.640  -4.964  28.228  0.00  0.00    +0.001 A 
ATOM     14  C   UNL     1       5.173  -3.720  27.812  0.00  0.00    +0.008 A 
ATOM     15  C   UNL     1       5.880  -2.977  26.854  0.00  0.00    -0.017 A 
ATOM     16  C   UNL     1       5.424  -1.728  26.432  0.00  0.00    +0.009 A 
ATOM     17  C   UNL     1       8.989  -3.286  24.799  0.00  0.00    -0.016 A 
ATOM     18  C   UNL     1       6.134  -0.997  25.477  0.00  0.00    +0.009 A 
ATOM     19  C   UNL     1       9.711  -2.554  23.852  0.00  0.00    +0.015 A 
ATOM     20  C   UNL     1       7.587   0.598  23.444  0.00  0.00    +0.070 C 
ENDROOT
BRANCH   2  21
ATOM     21  O   UNL     1      10.374   1.639  23.470  0.00  0.00    -0.386 OA
ATOM     22  H   UNL     1      10.735   2.492  23.177  0.00  0.00    +0.210 HD
ENDBRANCH   2  21
BRANCH   3  23
ATOM     23  O   UNL     1       9.939  -1.143  21.110  0.00  0.00    -0.385 OA
ATOM     24  H   UNL     1       9.669  -2.068  21.232  0.00  0.00    +0.210 HD
ENDBRANCH   3  23
BRANCH   1  25
ATOM     25  O   UNL     1       7.979   2.520  22.034  0.00  0.00    -0.389 OA
ATOM     26  H   UNL     1       8.560   3.040  22.614  0.00  0.00    +0.210 HD
ENDBRANCH   1  25
TORSDOF 3
ENDMDL
MODEL 8
REMARK VINA RESULT:      -6.8      2.132      2.261
REMARK  Name = 
REMARK  3 active torsions:
REMARK  status: ('A' for Active; 'I' for Inactive)
REMARK    1  A    between atoms: C_2  and  O_3
REMARK    2  A    between atoms: C_19  and  O_21
REMARK    3  A    between atoms: C_22  and  O_24
REMARK                            x       y       z     vdW  Elec       q    Type
REMARK                         _______ _______ _______ _____ _____    ______ ____
ROOT
ATOM      1  C   UNL     1       6.205  -4.938  22.454  0.00  0.00    +0.150 C 
ATOM      2  C   UNL     1       5.908  -5.186  23.941  0.00  0.00    +0.176 C 
ATOM      3  C   UNL     1       5.390  -3.879  24.571  0.00  0.00    +0.176 C 
ATOM      4  C   UNL     1       6.266  -2.678  24.249  0.00  0.00    -0.012 A 
ATOM      5  C   UNL     1       7.173  -2.671  23.166  0.00  0.00    -0.031 A 
ATOM      6  C   UNL     1       7.997  -1.527  22.935  0.00  0.00    -0.013 A 
ATOM      7  C   UNL     1       7.860  -0.392  23.772  0.00  0.00    -0.002 A 
ATOM      8  C   UNL     1       8.662   0.764  23.564  0.00  0.00    -0.002 A 
ATOM      9  C   UNL     1       8.519   1.895  24.403  0.00  0.00    -0.017 A 
ATOM     10  C   UNL     1       7.583   1.863  25.441  0.00  0.00    +0.009 A 
ATOM     11  C   UNL     1       6.795   0.731  25.651  0.00  0.00    +0.009 A 
ATOM     12  C   UNL     1       9.319   3.028  24.182  0.00  0.00    +0.008 A 
ATOM     13  C   UNL     1      10.252   3.047  23.146  0.00  0.00    +0.001 A 
ATOM     14  C   UNL     1      10.398   1.937  22.319  0.00  0.00    +0.008 A 
ATOM     15  C   UNL     1       9.612   0.791  22.519  0.00  0.00    -0.017 A 
ATOM     16  C   UNL     1       9.752  -0.330  21.701  0.00  0.00    +0.009 A 
ATOM     17  C   UNL     1       6.924  -0.398  24.830  0.00  0.00    -0.016 A 
ATOM     18  C   UNL     1       8.964  -1.464  21.907  0.00  0.00    +0.009 A 
ATOM     19  C   UNL     1       6.140  -1.535  25.051  0.00  0.00    +0.015 A 
ATOM     20  C   UNL     1       7.315  -3.898  22.284  0.00  0.00    +0.070 C 
ENDROOT
BRANCH   2  21
ATOM     21  O   UNL     1       7.056  -5.678  24.653  0.00  0.00    -0.386 OA
ATOM     22  H   UNL     1       7.859  -5.399  24.184  0.00  0.00    +0.210 HD
ENDBRANCH   2  21
BRANCH   3  23
ATOM     23  O   UNL     1       4.060  -3.622  24.113  0.00  0.00    -0.385 OA
ATOM     24  H   UNL     1       3.760  -4.387  23.594  0.00  0.00    +0.210 HD
ENDBRANCH   3  23
BRANCH   1  25
ATOM     25  O   UNL     1       6.586  -6.150  21.802  0.00  0.00    -0.389 OA
ATOM     26  H   UNL     1       5.837  -6.441  21.254  0.00  0.00    +0.210 HD
ENDBRANCH   1  25
TORSDOF 3
ENDMDL
MODEL 9
REMARK VINA RESULT:      -6.8      2.692      4.574
REMARK  Name = 
REMARK  3 active torsions:
REMARK  status: ('A' for Active; 'I' for Inactive)
REMARK    1  A    between atoms: C_2  and  O_3
REMARK    2  A    between atoms: C_19  and  O_21
REMARK    3  A    between atoms: C_22  and  O_24
REMARK                            x       y       z     vdW  Elec       q    Type
REMARK                         _______ _______ _______ _____ _____    ______ ____
ROOT
ATOM      1  C   UNL     1       4.869  -6.286  24.591  0.00  0.00    +0.150 C 
ATOM      2  C   UNL     1       4.294  -6.044  23.185  0.00  0.00    +0.176 C 
ATOM      3  C   UNL     1       5.442  -5.643  22.240  0.00  0.00    +0.176 C 
ATOM      4  C   UNL     1       6.321  -4.540  22.809  0.00  0.00    -0.012 A 
ATOM      5  C   UNL     1       6.354  -4.233  24.188  0.00  0.00    -0.031 A 
ATOM      6  C   UNL     1       7.171  -3.161  24.659  0.00  0.00    -0.013 A 
ATOM      7  C   UNL     1       7.976  -2.445  23.739  0.00  0.00    -0.002 A 
ATOM      8  C   UNL     1       8.805  -1.375  24.179  0.00  0.00    -0.002 A 
ATOM      9  C   UNL     1       9.608  -0.664  23.254  0.00  0.00    -0.017 A 
ATOM     10  C   UNL     1       9.575  -1.023  21.903  0.00  0.00    +0.009 A 
ATOM     11  C   UNL     1       8.762  -2.070  21.466  0.00  0.00    +0.009 A 
ATOM     12  C   UNL     1      10.420   0.388  23.707  0.00  0.00    +0.008 A 
ATOM     13  C   UNL     1      10.441   0.739  25.056  0.00  0.00    +0.001 A 
ATOM     14  C   UNL     1       9.652   0.044  25.969  0.00  0.00    +0.008 A 
ATOM     15  C   UNL     1       8.830  -1.010  25.543  0.00  0.00    -0.017 A 
ATOM     16  C   UNL     1       8.031  -1.711  26.447  0.00  0.00    +0.009 A 
ATOM     17  C   UNL     1       7.961  -2.783  22.367  0.00  0.00    -0.016 A 
ATOM     18  C   UNL     1       7.218  -2.760  26.013  0.00  0.00    +0.009 A 
ATOM     19  C   UNL     1       7.139  -3.824  21.924  0.00  0.00    +0.015 A 
ATOM     20  C   UNL     1       5.479  -5.003  25.159  0.00  0.00    +0.070 C 
ENDROOT
BRANCH   2  21
ATOM     21  O   UNL     1       3.256  -5.049  23.183  0.00  0.00    -0.386 OA
ATOM     22  H   UNL     1       2.805  -5.069  22.322  0.00  0.00    +0.210 HD
ENDBRANCH   2  21
BRANCH   3  23
ATOM     23  O   UNL     1       6.253  -6.786  21.961  0.00  0.00    -0.385 OA
ATOM     24  H   UNL     1       6.462  -7.228  22.801  0.00  0.00    +0.210 HD
ENDBRANCH   3  23
BRANCH   1  25
ATOM     25  O   UNL     1       3.858  -6.765  25.478  0.00  0.00    -0.389 OA
ATOM     26  H   UNL     1       3.400  -7.502  25.038  0.00  0.00    +0.210 HD
ENDBRANCH   1  25
TORSDOF 3
ENDMDL
