MODEL 1
REMARK VINA RESULT:      -6.6      0.000      0.000
REMARK  Name = 
REMARK  9 active torsions:
REMARK  status: ('A' for Active; 'I' for Inactive)
REMARK    1  A    between atoms: CA_2  and  N_3
REMARK    2  A    between atoms: CA_2  and  C_4
REMARK    3  A    between atoms: CA_2  and  C_21
REMARK    4  A    between atoms: C_4  and  C_5
REMARK    5  A    between atoms: C_5  and  C_7
REMARK    6  A    between atoms: C_5  and  C_18
REMARK    7  A    between atoms: C_7  and  C_8
REMARK    8  A    between atoms: C_18  and  O_19
REMARK    9  A    between atoms: C_21  and  O_22
REMARK                            x       y       z     vdW  Elec       q    Type
REMARK                         _______ _______ _______ _____ _____    ______ ____
ROOT
ATOM      1  C   UNL     1       7.398  -4.177  25.141  0.00  0.00    +0.104 C 
ENDROOT
BRANCH   1   2
ATOM      2  C   UNL     1       7.512  -5.333  26.108  0.00  0.00    +0.308 C 
ATOM      3  O   UNL     1       6.583  -6.079  26.391  0.00  0.00    -0.251 OA
BRANCH   2   4
ATOM      4  O   UNL     1       8.695  -5.394  26.752  0.00  0.00    -0.480 OA
ATOM      5  H   UNL     1       9.144  -6.260  26.705  0.00  0.00    +0.295 HD
ENDBRANCH   2   4
ENDBRANCH   1   2
BRANCH   1   6
ATOM      6  C   UNL     1       6.172  -4.361  24.221  0.00  0.00    +0.045 C 
BRANCH   6   7
ATOM      7  CA  UNL     1       6.200  -5.456  23.138  0.00  0.00    +0.161 C 
BRANCH   7   8
ATOM      8  N   UNL     1       5.249  -6.584  23.345  0.00  0.00    -0.318 NA
ATOM      9  H1  UNL     1       4.561  -6.286  24.049  0.00  0.00    +0.119 HD
ATOM     10  H2  UNL     1       4.644  -6.717  22.523  0.00  0.00    +0.119 HD
ENDBRANCH   7   8
BRANCH   7  11
ATOM     11  C   UNL     1       5.813  -4.798  21.787  0.00  0.00    +0.322 C 
ATOM     12  OXT UNL     1       5.990  -5.295  20.684  0.00  0.00    -0.249 OA
BRANCH  11  13
ATOM     13  O   UNL     1       5.286  -3.560  21.977  0.00  0.00    -0.480 OA
ATOM     14  H   UNL     1       5.763  -2.975  21.333  0.00  0.00    +0.295 HD
ENDBRANCH  11  13
ENDBRANCH   7  11
ENDBRANCH   6   7
ENDBRANCH   1   6
BRANCH   1  15
ATOM     15  C   UNL     1       8.729  -3.961  24.393  0.00  0.00    +0.050 C 
BRANCH  15  16
ATOM     16  C   UNL     1       8.906  -2.604  23.725  0.00  0.00    -0.046 A 
ATOM     17  C   UNL     1       8.657  -2.398  22.362  0.00  0.00    +0.004 A 
ATOM     18  C   UNL     1       8.922  -1.165  21.759  0.00  0.00    +0.009 A 
ATOM     19  C   UNL     1       9.473  -0.110  22.492  0.00  0.00    -0.018 A 
ATOM     20  C   UNL     1       9.712  -0.284  23.873  0.00  0.00    -0.018 A 
ATOM     21  C   UNL     1      10.262   0.785  24.603  0.00  0.00    +0.008 A 
ATOM     22  C   UNL     1      10.603   1.986  23.974  0.00  0.00    +0.001 A 
ATOM     23  C   UNL     1      10.385   2.143  22.609  0.00  0.00    +0.001 A 
ATOM     24  C   UNL     1       9.812   1.105  21.875  0.00  0.00    +0.008 A 
ATOM     25  C   UNL     1       9.418  -1.528  24.470  0.00  0.00    +0.012 A 
ENDBRANCH  15  16
ENDBRANCH   1  15
TORSDOF 9
ENDMDL
MODEL 2
REMARK VINA RESULT:      -6.5      1.955      3.344
REMARK  Name = 
REMARK  9 active torsions:
REMARK  status: ('A' for Active; 'I' for Inactive)
REMARK    1  A    between atoms: CA_2  and  N_3
REMARK    2  A    between atoms: CA_2  and  C_4
REMARK    3  A    between atoms: CA_2  and  C_21
REMARK    4  A    between atoms: C_4  and  C_5
REMARK    5  A    between atoms: C_5  and  C_7
REMARK    6  A    between atoms: C_5  and  C_18
REMARK    7  A    between atoms: C_7  and  C_8
REMARK    8  A    between atoms: C_18  and  O_19
REMARK    9  A    between atoms: C_21  and  O_22
REMARK                            x       y       z     vdW  Elec       q    Type
REMARK                         _______ _______ _______ _____ _____    ______ ____
ROOT
ATOM      1  C   UNL     1       6.458  -4.618  23.719  0.00  0.00    +0.104 C 
ENDROOT
BRANCH   1   2
ATOM      2  C   UNL     1       5.298  -5.260  22.992  0.00  0.00    +0.308 C 
ATOM      3  O   UNL     1       4.320  -4.642  22.590  0.00  0.00    -0.251 OA
BRANCH   2   4
ATOM      4  O   UNL     1       5.359  -6.606  22.943  0.00  0.00    -0.480 OA
ATOM      5  H   UNL     1       5.635  -7.035  23.775  0.00  0.00    +0.295 HD
ENDBRANCH   2   4
ENDBRANCH   1   2
BRANCH   1   6
ATOM      6  C   UNL     1       6.838  -5.446  24.965  0.00  0.00    +0.045 C 
BRANCH   6   7
ATOM      7  CA  UNL     1       7.888  -4.889  25.946  0.00  0.00    +0.161 C 
BRANCH   7   8
ATOM      8  N   UNL     1       7.963  -5.584  27.262  0.00  0.00    -0.318 NA
ATOM      9  H1  UNL     1       8.172  -4.875  27.977  0.00  0.00    +0.119 HD
ATOM     10  H2  UNL     1       7.034  -5.904  27.568  0.00  0.00    +0.119 HD
ENDBRANCH   7   8
BRANCH   7  11
ATOM     11  C   UNL     1       9.284  -5.047  25.288  0.00  0.00    +0.322 C 
ATOM     12  OXT UNL     1       9.853  -4.190  24.627  0.00  0.00    -0.249 OA
BRANCH  11  13
ATOM     13  O   UNL     1       9.788  -6.292  25.496  0.00  0.00    -0.480 OA
ATOM     14  H   UNL     1      10.159  -6.269  26.416  0.00  0.00    +0.295 HD
ENDBRANCH  11  13
ENDBRANCH   7  11
ENDBRANCH   6   7
ENDBRANCH   1   6
BRANCH   1  15
ATOM     15  C   UNL     1       6.165  -3.131  24.005  0.00  0.00    +0.050 C 
BRANCH  15  16
ATOM     16  C   UNL     1       7.081  -2.128  23.318  0.00  0.00    -0.046 A 
ATOM     17  C   UNL     1       8.060  -2.513  22.394  0.00  0.00    +0.004 A 
ATOM     18  C   UNL     1       8.951  -1.580  21.855  0.00  0.00    +0.009 A 
ATOM     19  C   UNL     1       8.909  -0.238  22.247  0.00  0.00    -0.018 A 
ATOM     20  C   UNL     1       7.918   0.181  23.160  0.00  0.00    -0.018 A 
ATOM     21  C   UNL     1       7.882   1.533  23.544  0.00  0.00    +0.008 A 
ATOM     22  C   UNL     1       8.829   2.443  23.065  0.00  0.00    +0.001 A 
ATOM     23  C   UNL     1       9.817   2.019  22.183  0.00  0.00    +0.001 A 
ATOM     24  C   UNL     1       9.850   0.688  21.767  0.00  0.00    +0.008 A 
ATOM     25  C   UNL     1       7.013  -0.771  23.677  0.00  0.00    +0.012 A 
ENDBRANCH  15  16
ENDBRANCH   1  15
TORSDOF 9
ENDMDL
MODEL 3
REMARK VINA RESULT:      -6.5      1.764      3.545
REMARK  Name = 
REMARK  9 active torsions:
REMARK  status: ('A' for Active; 'I' for Inactive)
REMARK    1  A    between atoms: CA_2  and  N_3
REMARK    2  A    between atoms: CA_2  and  C_4
REMARK    3  A    between atoms: CA_2  and  C_21
REMARK    4  A    between atoms: C_4  and  C_5
REMARK    5  A    between atoms: C_5  and  C_7
REMARK    6  A    between atoms: C_5  and  C_18
REMARK    7  A    between atoms: C_7  and  C_8
REMARK    8  A    between atoms: C_18  and  O_19
REMARK    9  A    between atoms: C_21  and  O_22
REMARK                            x       y       z     vdW  Elec       q    Type
REMARK                         _______ _______ _______ _____ _____    ______ ____
ROOT
ATOM      1  C   UNL     1       6.950  -4.281  23.323  0.00  0.00    +0.104 C 
ENDROOT
BRANCH   1   2
ATOM      2  C   UNL     1       6.323  -5.085  22.207  0.00  0.00    +0.308 C 
ATOM      3  O   UNL     1       5.115  -5.205  22.049  0.00  0.00    -0.251 OA
BRANCH   2   4
ATOM      4  O   UNL     1       7.210  -5.785  21.471  0.00  0.00    -0.480 OA
ATOM      5  H   UNL     1       6.818  -6.478  20.905  0.00  0.00    +0.295 HD
ENDBRANCH   2   4
ENDBRANCH   1   2
BRANCH   1   6
ATOM      6  C   UNL     1       6.913  -5.075  24.647  0.00  0.00    +0.045 C 
BRANCH   6   7
ATOM      7  CA  UNL     1       7.949  -4.758  25.743  0.00  0.00    +0.161 C 
BRANCH   7   8
ATOM      8  N   UNL     1       7.977  -5.710  26.889  0.00  0.00    -0.318 NA
ATOM      9  H1  UNL     1       8.832  -6.273  26.805  0.00  0.00    +0.119 HD
ATOM     10  H2  UNL     1       8.151  -5.219  27.777  0.00  0.00    +0.119 HD
ENDBRANCH   7   8
BRANCH   7  11
ATOM     11  C   UNL     1       9.358  -4.811  25.095  0.00  0.00    +0.322 C 
ATOM     12  OXT UNL     1       9.924  -3.870  24.559  0.00  0.00    -0.249 OA
BRANCH  11  13
ATOM     13  O   UNL     1       9.878  -6.065  25.153  0.00  0.00    -0.480 OA
ATOM     14  H   UNL     1      10.803  -5.946  25.493  0.00  0.00    +0.295 HD
ENDBRANCH  11  13
ENDBRANCH   7  11
ENDBRANCH   6   7
ENDBRANCH   1   6
BRANCH   1  15
ATOM     15  C   UNL     1       6.316  -2.877  23.404  0.00  0.00    +0.050 C 
BRANCH  15  16
ATOM     16  C   UNL     1       7.272  -1.732  23.712  0.00  0.00    -0.046 A 
ATOM     17  C   UNL     1       7.426  -1.207  25.001  0.00  0.00    +0.004 A 
ATOM     18  C   UNL     1       8.237  -0.092  25.234  0.00  0.00    +0.009 A 
ATOM     19  C   UNL     1       8.894   0.551  24.180  0.00  0.00    -0.018 A 
ATOM     20  C   UNL     1       8.773   0.028  22.874  0.00  0.00    -0.018 A 
ATOM     21  C   UNL     1       9.442   0.678  21.822  0.00  0.00    +0.008 A 
ATOM     22  C   UNL     1      10.183   1.842  22.050  0.00  0.00    +0.001 A 
ATOM     23  C   UNL     1      10.279   2.365  23.336  0.00  0.00    +0.001 A 
ATOM     24  C   UNL     1       9.648   1.715  24.397  0.00  0.00    +0.008 A 
ATOM     25  C   UNL     1       7.968  -1.111  22.661  0.00  0.00    +0.012 A 
ENDBRANCH  15  16
ENDBRANCH   1  15
TORSDOF 9
ENDMDL
MODEL 4
REMARK VINA RESULT:      -6.4      1.526      2.169
REMARK  Name = 
REMARK  9 active torsions:
REMARK  status: ('A' for Active; 'I' for Inactive)
REMARK    1  A    between atoms: CA_2  and  N_3
REMARK    2  A    between atoms: CA_2  and  C_4
REMARK    3  A    between atoms: CA_2  and  C_21
REMARK    4  A    between atoms: C_4  and  C_5
REMARK    5  A    between atoms: C_5  and  C_7
REMARK    6  A    between atoms: C_5  and  C_18
REMARK    7  A    between atoms: C_7  and  C_8
REMARK    8  A    between atoms: C_18  and  O_19
REMARK    9  A    between atoms: C_21  and  O_22
REMARK                            x       y       z     vdW  Elec       q    Type
REMARK                         _______ _______ _______ _____ _____    ______ ____
ROOT
ATOM      1  C   UNL     1       7.321  -4.535  24.954  0.00  0.00    +0.104 C 
ENDROOT
BRANCH   1   2
ATOM      2  C   UNL     1       7.193  -5.570  26.049  0.00  0.00    +0.308 C 
ATOM      3  O   UNL     1       6.160  -6.182  26.290  0.00  0.00    -0.251 OA
BRANCH   2   4
ATOM      4  O   UNL     1       8.278  -5.665  26.843  0.00  0.00    -0.480 OA
ATOM      5  H   UNL     1       8.838  -4.865  26.872  0.00  0.00    +0.295 HD
ENDBRANCH   2   4
ENDBRANCH   1   2
BRANCH   1   6
ATOM      6  C   UNL     1       6.631  -5.026  23.664  0.00  0.00    +0.045 C 
BRANCH   6   7
ATOM      7  CA  UNL     1       5.255  -4.448  23.279  0.00  0.00    +0.161 C 
BRANCH   7   8
ATOM      8  N   UNL     1       5.210  -3.717  21.981  0.00  0.00    -0.318 NA
ATOM      9  H1  UNL     1       5.271  -4.415  21.229  0.00  0.00    +0.119 HD
ATOM     10  H2  UNL     1       4.276  -3.322  21.808  0.00  0.00    +0.119 HD
ENDBRANCH   7   8
BRANCH   7  11
ATOM     11  C   UNL     1       4.262  -5.632  23.150  0.00  0.00    +0.322 C 
ATOM     12  OXT UNL     1       3.100  -5.542  22.779  0.00  0.00    -0.249 OA
BRANCH  11  13
ATOM     13  O   UNL     1       4.833  -6.798  23.551  0.00  0.00    -0.480 OA
ATOM     14  H   UNL     1       5.167  -7.222  22.718  0.00  0.00    +0.295 HD
ENDBRANCH  11  13
ENDBRANCH   7  11
ENDBRANCH   6   7
ENDBRANCH   1   6
BRANCH   1  15
ATOM     15  C   UNL     1       8.794  -4.118  24.771  0.00  0.00    +0.050 C 
BRANCH  15  16
ATOM     16  C   UNL     1       9.062  -2.619  24.730  0.00  0.00    -0.046 A 
ATOM     17  C   UNL     1       8.843  -1.785  25.833  0.00  0.00    +0.004 A 
ATOM     18  C   UNL     1       9.004  -0.400  25.734  0.00  0.00    +0.009 A 
ATOM     19  C   UNL     1       9.359   0.197  24.520  0.00  0.00    -0.018 A 
ATOM     20  C   UNL     1       9.607  -0.624  23.398  0.00  0.00    -0.018 A 
ATOM     21  C   UNL     1       9.967  -0.014  22.183  0.00  0.00    +0.008 A 
ATOM     22  C   UNL     1      10.044   1.377  22.070  0.00  0.00    +0.001 A 
ATOM     23  C   UNL     1       9.776   2.181  23.174  0.00  0.00    +0.001 A 
ATOM     24  C   UNL     1       9.447   1.593  24.395  0.00  0.00    +0.008 A 
ATOM     25  C   UNL     1       9.461  -2.021  23.522  0.00  0.00    +0.012 A 
ENDBRANCH  15  16
ENDBRANCH   1  15
TORSDOF 9
ENDMDL
MODEL 5
REMARK VINA RESULT:      -6.4      1.316      1.510
REMARK  Name = 
REMARK  9 active torsions:
REMARK  status: ('A' for Active; 'I' for Inactive)
REMARK    1  A    between atoms: CA_2  and  N_3
REMARK    2  A    between atoms: CA_2  and  C_4
REMARK    3  A    between atoms: CA_2  and  C_21
REMARK    4  A    between atoms: C_4  and  C_5
REMARK    5  A    between atoms: C_5  and  C_7
REMARK    6  A    between atoms: C_5  and  C_18
REMARK    7  A    between atoms: C_7  and  C_8
REMARK    8  A    between atoms: C_18  and  O_19
REMARK    9  A    between atoms: C_21  and  O_22
REMARK                            x       y       z     vdW  Elec       q    Type
REMARK                         _______ _______ _______ _____ _____    ______ ____
ROOT
ATOM      1  C   UNL     1       7.182  -4.590  24.487  0.00  0.00    +0.104 C 
ENDROOT
BRANCH   1   2
ATOM      2  C   UNL     1       6.873  -5.118  25.870  0.00  0.00    +0.308 C 
ATOM      3  O   UNL     1       6.234  -6.140  26.082  0.00  0.00    -0.251 OA
BRANCH   2   4
ATOM      4  O   UNL     1       7.242  -4.289  26.868  0.00  0.00    -0.480 OA
ATOM      5  H   UNL     1       7.661  -3.456  26.577  0.00  0.00    +0.295 HD
ENDBRANCH   2   4
ENDBRANCH   1   2
BRANCH   1   6
ATOM      6  C   UNL     1       6.828  -5.643  23.416  0.00  0.00    +0.045 C 
BRANCH   6   7
ATOM      7  CA  UNL     1       5.677  -5.357  22.430  0.00  0.00    +0.161 C 
BRANCH   7   8
ATOM      8  N   UNL     1       5.837  -5.951  21.073  0.00  0.00    -0.318 NA
ATOM      9  H1  UNL     1       5.071  -5.597  20.486  0.00  0.00    +0.119 HD
ATOM     10  H2  UNL     1       6.655  -5.558  20.588  0.00  0.00    +0.119 HD
ENDBRANCH   7   8
BRANCH   7  11
ATOM     11  C   UNL     1       4.380  -5.966  23.025  0.00  0.00    +0.322 C 
ATOM     12  OXT UNL     1       3.265  -5.472  22.940  0.00  0.00    -0.249 OA
BRANCH  11  13
ATOM     13  O   UNL     1       4.643  -7.111  23.708  0.00  0.00    -0.480 OA
ATOM     14  H   UNL     1       4.093  -7.053  24.532  0.00  0.00    +0.295 HD
ENDBRANCH  11  13
ENDBRANCH   7  11
ENDBRANCH   6   7
ENDBRANCH   1   6
BRANCH   1  15
ATOM     15  C   UNL     1       8.631  -4.069  24.415  0.00  0.00    +0.050 C 
BRANCH  15  16
ATOM     16  C   UNL     1       8.819  -2.713  23.748  0.00  0.00    -0.046 A 
ATOM     17  C   UNL     1       8.555  -2.501  22.389  0.00  0.00    +0.004 A 
ATOM     18  C   UNL     1       8.831  -1.271  21.784  0.00  0.00    +0.009 A 
ATOM     19  C   UNL     1       9.409  -0.226  22.511  0.00  0.00    -0.018 A 
ATOM     20  C   UNL     1       9.664  -0.407  23.888  0.00  0.00    -0.018 A 
ATOM     21  C   UNL     1      10.241   0.652  24.612  0.00  0.00    +0.008 A 
ATOM     22  C   UNL     1      10.592   1.849  23.980  0.00  0.00    +0.001 A 
ATOM     23  C   UNL     1      10.357   2.012  22.619  0.00  0.00    +0.001 A 
ATOM     24  C   UNL     1       9.758   0.984  21.891  0.00  0.00    +0.008 A 
ATOM     25  C   UNL     1       9.359  -1.647  24.488  0.00  0.00    +0.012 A 
ENDBRANCH  15  16
ENDBRANCH   1  15
TORSDOF 9
ENDMDL
MODEL 6
REMARK VINA RESULT:      -6.3      1.636      1.795
REMARK  Name = 
REMARK  9 active torsions:
REMARK  status: ('A' for Active; 'I' for Inactive)
REMARK    1  A    between atoms: CA_2  and  N_3
REMARK    2  A    between atoms: CA_2  and  C_4
REMARK    3  A    between atoms: CA_2  and  C_21
REMARK    4  A    between atoms: C_4  and  C_5
REMARK    5  A    between atoms: C_5  and  C_7
REMARK    6  A    between atoms: C_5  and  C_18
REMARK    7  A    between atoms: C_7  and  C_8
REMARK    8  A    between atoms: C_18  and  O_19
REMARK    9  A    between atoms: C_21  and  O_22
REMARK                            x       y       z     vdW  Elec       q    Type
REMARK                         _______ _______ _______ _____ _____    ______ ____
ROOT
ATOM      1  C   UNL     1       8.320  -4.135  24.471  0.00  0.00    +0.104 C 
ENDROOT
BRANCH   1   2
ATOM      2  C   UNL     1       8.469  -5.265  25.465  0.00  0.00    +0.308 C 
ATOM      3  O   UNL     1       7.569  -5.645  26.204  0.00  0.00    -0.251 OA
BRANCH   2   4
ATOM      4  O   UNL     1       9.727  -5.735  25.576  0.00  0.00    -0.480 OA
ATOM      5  H   UNL     1      10.003  -5.963  26.485  0.00  0.00    +0.295 HD
ENDBRANCH   2   4
ENDBRANCH   1   2
BRANCH   1   6
ATOM      6  C   UNL     1       7.646  -4.640  23.177  0.00  0.00    +0.045 C 
BRANCH   6   7
ATOM      7  CA  UNL     1       6.787  -3.666  22.347  0.00  0.00    +0.161 C 
BRANCH   7   8
ATOM      8  N   UNL     1       5.894  -4.303  21.339  0.00  0.00    -0.318 NA
ATOM      9  H1  UNL     1       5.999  -3.784  20.458  0.00  0.00    +0.119 HD
ATOM     10  H2  UNL     1       6.245  -5.231  21.064  0.00  0.00    +0.119 HD
ENDBRANCH   7   8
BRANCH   7  11
ATOM     11  C   UNL     1       5.863  -2.896  23.327  0.00  0.00    +0.322 C 
ATOM     12  OXT UNL     1       5.030  -3.407  24.060  0.00  0.00    -0.249 OA
BRANCH  11  13
ATOM     13  O   UNL     1       6.059  -1.554  23.235  0.00  0.00    -0.480 OA
ATOM     14  H   UNL     1       6.110  -1.236  24.174  0.00  0.00    +0.295 HD
ENDBRANCH  11  13
ENDBRANCH   7  11
ENDBRANCH   6   7
ENDBRANCH   1   6
BRANCH   1  15
ATOM     15  C   UNL     1       9.671  -3.424  24.252  0.00  0.00    +0.050 C 
BRANCH  15  16
ATOM     16  C   UNL     1       9.595  -2.012  23.686  0.00  0.00    -0.046 A 
ATOM     17  C   UNL     1       9.937  -1.713  22.361  0.00  0.00    +0.004 A 
ATOM     18  C   UNL     1       9.951  -0.394  21.900  0.00  0.00    +0.009 A 
ATOM     19  C   UNL     1       9.655   0.671  22.758  0.00  0.00    -0.018 A 
ATOM     20  C   UNL     1       9.285   0.395  24.092  0.00  0.00    -0.018 A 
ATOM     21  C   UNL     1       8.985   1.471  24.945  0.00  0.00    +0.008 A 
ATOM     22  C   UNL     1       9.083   2.793  24.500  0.00  0.00    +0.001 A 
ATOM     23  C   UNL     1       9.470   3.058  23.189  0.00  0.00    +0.001 A 
ATOM     24  C   UNL     1       9.742   2.002  22.320  0.00  0.00    +0.008 A 
ATOM     25  C   UNL     1       9.255  -0.945  24.535  0.00  0.00    +0.012 A 
ENDBRANCH  15  16
ENDBRANCH   1  15
TORSDOF 9
ENDMDL
MODEL 7
REMARK VINA RESULT:      -6.0      1.918      2.225
REMARK  Name = 
REMARK  9 active torsions:
REMARK  status: ('A' for Active; 'I' for Inactive)
REMARK    1  A    between atoms: CA_2  and  N_3
REMARK    2  A    between atoms: CA_2  and  C_4
REMARK    3  A    between atoms: CA_2  and  C_21
REMARK    4  A    between atoms: C_4  and  C_5
REMARK    5  A    between atoms: C_5  and  C_7
REMARK    6  A    between atoms: C_5  and  C_18
REMARK    7  A    between atoms: C_7  and  C_8
REMARK    8  A    between atoms: C_18  and  O_19
REMARK    9  A    between atoms: C_21  and  O_22
REMARK                            x       y       z     vdW  Elec       q    Type
REMARK                         _______ _______ _______ _____ _____    ______ ____
ROOT
ATOM      1  C   UNL     1       8.021  -4.285  25.025  0.00  0.00    +0.104 C 
ENDROOT
BRANCH   1   2
ATOM      2  C   UNL     1       8.242  -5.092  26.284  0.00  0.00    +0.308 C 
ATOM      3  O   UNL     1       7.424  -5.881  26.739  0.00  0.00    -0.251 OA
BRANCH   2   4
ATOM      4  O   UNL     1       9.367  -4.768  26.952  0.00  0.00    -0.480 OA
ATOM      5  H   UNL     1       9.804  -5.513  27.407  0.00  0.00    +0.295 HD
ENDBRANCH   2   4
ENDBRANCH   1   2
BRANCH   1   6
ATOM      6  C   UNL     1       7.394  -5.165  23.922  0.00  0.00    +0.045 C 
BRANCH   6   7
ATOM      7  CA  UNL     1       5.904  -4.986  23.572  0.00  0.00    +0.161 C 
BRANCH   7   8
ATOM      8  N   UNL     1       5.550  -5.224  22.145  0.00  0.00    -0.318 NA
ATOM      9  H1  UNL     1       5.012  -4.411  21.818  0.00  0.00    +0.119 HD
ATOM     10  H2  UNL     1       6.381  -5.165  21.541  0.00  0.00    +0.119 HD
ENDBRANCH   7   8
BRANCH   7  11
ATOM     11  C   UNL     1       5.095  -6.019  24.402  0.00  0.00    +0.322 C 
ATOM     12  OXT UNL     1       4.809  -7.149  24.035  0.00  0.00    -0.249 OA
BRANCH  11  13
ATOM     13  O   UNL     1       4.693  -5.490  25.587  0.00  0.00    -0.480 OA
ATOM     14  H   UNL     1       4.156  -6.204  26.020  0.00  0.00    +0.295 HD
ENDBRANCH  11  13
ENDBRANCH   7  11
ENDBRANCH   6   7
ENDBRANCH   1   6
BRANCH   1  15
ATOM     15  C   UNL     1       9.318  -3.565  24.606  0.00  0.00    +0.050 C 
BRANCH  15  16
ATOM     16  C   UNL     1       9.145  -2.349  23.706  0.00  0.00    -0.046 A 
ATOM     17  C   UNL     1      10.124  -1.946  22.789  0.00  0.00    +0.004 A 
ATOM     18  C   UNL     1       9.977  -0.770  22.048  0.00  0.00    +0.009 A 
ATOM     19  C   UNL     1       8.861   0.056  22.223  0.00  0.00    -0.018 A 
ATOM     20  C   UNL     1       7.849  -0.339  23.125  0.00  0.00    -0.018 A 
ATOM     21  C   UNL     1       6.730   0.495  23.290  0.00  0.00    +0.008 A 
ATOM     22  C   UNL     1       6.631   1.711  22.608  0.00  0.00    +0.001 A 
ATOM     23  C   UNL     1       7.642   2.105  21.737  0.00  0.00    +0.001 A 
ATOM     24  C   UNL     1       8.746   1.276  21.537  0.00  0.00    +0.008 A 
ATOM     25  C   UNL     1       8.004  -1.541  23.849  0.00  0.00    +0.012 A 
ENDBRANCH  15  16
ENDBRANCH   1  15
TORSDOF 9
ENDMDL
MODEL 8
REMARK VINA RESULT:      -6.0      1.764      2.765
REMARK  Name = 
REMARK  9 active torsions:
REMARK  status: ('A' for Active; 'I' for Inactive)
REMARK    1  A    between atoms: CA_2  and  N_3
REMARK    2  A    between atoms: CA_2  and  C_4
REMARK    3  A    between atoms: CA_2  and  C_21
REMARK    4  A    between atoms: C_4  and  C_5
REMARK    5  A    between atoms: C_5  and  C_7
REMARK    6  A    between atoms: C_5  and  C_18
REMARK    7  A    between atoms: C_7  and  C_8
REMARK    8  A    between atoms: C_18  and  O_19
REMARK    9  A    between atoms: C_21  and  O_22
REMARK                            x       y       z     vdW  Elec       q    Type
REMARK                         _______ _______ _______ _____ _____    ______ ____
ROOT
ATOM      1  C   UNL     1       8.280  -2.935  23.690  0.00  0.00    +0.104 C 
ENDROOT
BRANCH   1   2
ATOM      2  C   UNL     1       8.496  -4.131  24.588  0.00  0.00    +0.308 C 
ATOM      3  O   UNL     1       9.150  -5.115  24.267  0.00  0.00    -0.251 OA
BRANCH   2   4
ATOM      4  O   UNL     1       7.785  -4.092  25.733  0.00  0.00    -0.480 OA
ATOM      5  H   UNL     1       8.320  -4.120  26.550  0.00  0.00    +0.295 HD
ENDBRANCH   2   4
ENDBRANCH   1   2
BRANCH   1   6
ATOM      6  C   UNL     1       7.478  -3.339  22.434  0.00  0.00    +0.045 C 
BRANCH   6   7
ATOM      7  CA  UNL     1       6.320  -4.347  22.573  0.00  0.00    +0.161 C 
BRANCH   7   8
ATOM      8  N   UNL     1       4.963  -3.802  22.286  0.00  0.00    -0.318 NA
ATOM      9  H1  UNL     1       4.310  -4.596  22.252  0.00  0.00    +0.119 HD
ATOM     10  H2  UNL     1       4.594  -3.278  23.092  0.00  0.00    +0.119 HD
ENDBRANCH   7   8
BRANCH   7  11
ATOM     11  C   UNL     1       6.559  -5.489  21.550  0.00  0.00    +0.322 C 
ATOM     12  OXT UNL     1       5.986  -5.606  20.477  0.00  0.00    -0.249 OA
BRANCH  11  13
ATOM     13  O   UNL     1       7.465  -6.387  22.020  0.00  0.00    -0.480 OA
ATOM     14  H   UNL     1       7.431  -6.296  23.007  0.00  0.00    +0.295 HD
ENDBRANCH  11  13
ENDBRANCH   7  11
ENDBRANCH   6   7
ENDBRANCH   1   6
BRANCH   1  15
ATOM     15  C   UNL     1       9.619  -2.230  23.392  0.00  0.00    +0.050 C 
BRANCH  15  16
ATOM     16  C   UNL     1       9.608  -0.711  23.490  0.00  0.00    -0.046 A 
ATOM     17  C   UNL     1      10.387  -0.010  24.420  0.00  0.00    +0.004 A 
ATOM     18  C   UNL     1      10.281   1.377  24.550  0.00  0.00    +0.009 A 
ATOM     19  C   UNL     1       9.370   2.104  23.777  0.00  0.00    -0.018 A 
ATOM     20  C   UNL     1       8.589   1.426  22.817  0.00  0.00    -0.018 A 
ATOM     21  C   UNL     1       7.679   2.166  22.042  0.00  0.00    +0.008 A 
ATOM     22  C   UNL     1       7.519   3.542  22.238  0.00  0.00    +0.001 A 
ATOM     23  C   UNL     1       8.276   4.200  23.201  0.00  0.00    +0.001 A 
ATOM     24  C   UNL     1       9.205   3.487  23.958  0.00  0.00    +0.008 A 
ATOM     25  C   UNL     1       8.724   0.028  22.683  0.00  0.00    +0.012 A 
ENDBRANCH  15  16
ENDBRANCH   1  15
TORSDOF 9
ENDMDL
MODEL 9
REMARK VINA RESULT:      -5.9      3.895      7.165
REMARK  Name = 
REMARK  9 active torsions:
REMARK  status: ('A' for Active; 'I' for Inactive)
REMARK    1  A    between atoms: CA_2  and  N_3
REMARK    2  A    between atoms: CA_2  and  C_4
REMARK    3  A    between atoms: CA_2  and  C_21
REMARK    4  A    between atoms: C_4  and  C_5
REMARK    5  A    between atoms: C_5  and  C_7
REMARK    6  A    between atoms: C_5  and  C_18
REMARK    7  A    between atoms: C_7  and  C_8
REMARK    8  A    between atoms: C_18  and  O_19
REMARK    9  A    between atoms: C_21  and  O_22
REMARK                            x       y       z     vdW  Elec       q    Type
REMARK                         _______ _______ _______ _____ _____    ______ ____
ROOT
ATOM      1  C   UNL     1       9.288  -0.821  23.411  0.00  0.00    +0.104 C 
ENDROOT
BRANCH   1   2
ATOM      2  C   UNL     1       9.700  -0.820  21.956  0.00  0.00    +0.308 C 
ATOM      3  O   UNL     1       9.208  -0.086  21.109  0.00  0.00    -0.251 OA
BRANCH   2   4
ATOM      4  O   UNL     1      10.565  -1.802  21.631  0.00  0.00    -0.480 OA
ATOM      5  H   UNL     1      11.378  -1.501  21.182  0.00  0.00    +0.295 HD
ENDBRANCH   2   4
ENDBRANCH   1   2
BRANCH   1   6
ATOM      6  C   UNL     1       9.744   0.482  24.102  0.00  0.00    +0.045 C 
BRANCH   6   7
ATOM      7  CA  UNL     1       8.838   1.727  24.036  0.00  0.00    +0.161 C 
BRANCH   7   8
ATOM      8  N   UNL     1       8.494   2.337  25.351  0.00  0.00    -0.318 NA
ATOM      9  H1  UNL     1       7.577   1.969  25.634  0.00  0.00    +0.119 HD
ATOM     10  H2  UNL     1       9.095   1.968  26.101  0.00  0.00    +0.119 HD
ENDBRANCH   7   8
BRANCH   7  11
ATOM     11  C   UNL     1       9.590   2.818  23.229  0.00  0.00    +0.322 C 
ATOM     12  OXT UNL     1      10.202   3.758  23.715  0.00  0.00    -0.249 OA
BRANCH  11  13
ATOM     13  O   UNL     1       9.444   2.629  21.892  0.00  0.00    -0.480 OA
ATOM     14  H   UNL     1       8.935   1.781  21.805  0.00  0.00    +0.295 HD
ENDBRANCH  11  13
ENDBRANCH   7  11
ENDBRANCH   6   7
ENDBRANCH   1   6
BRANCH   1  15
ATOM     15  C   UNL     1       9.760  -2.113  24.108  0.00  0.00    +0.050 C 
BRANCH  15  16
ATOM     16  C   UNL     1       8.664  -2.989  24.699  0.00  0.00    -0.046 A 
ATOM     17  C   UNL     1       8.551  -3.228  26.074  0.00  0.00    +0.004 A 
ATOM     18  C   UNL     1       7.594  -4.115  26.576  0.00  0.00    +0.009 A 
ATOM     19  C   UNL     1       6.742  -4.815  25.716  0.00  0.00    -0.018 A 
ATOM     20  C   UNL     1       6.821  -4.576  24.327  0.00  0.00    -0.018 A 
ATOM     21  C   UNL     1       5.957  -5.281  23.471  0.00  0.00    +0.008 A 
ATOM     22  C   UNL     1       5.061  -6.230  23.974  0.00  0.00    +0.001 A 
ATOM     23  C   UNL     1       5.004  -6.476  25.342  0.00  0.00    +0.001 A 
ATOM     24  C   UNL     1       5.832  -5.764  26.209  0.00  0.00    +0.008 A 
ATOM     25  C   UNL     1       7.777  -3.661  23.839  0.00  0.00    +0.012 A 
ENDBRANCH  15  16
ENDBRANCH   1  15
TORSDOF 9
ENDMDL
