MODEL 1
REMARK VINA RESULT:      -7.2      0.000      0.000
REMARK  Name = 
REMARK  16 active torsions:
REMARK  status: ('A' for Active; 'I' for Inactive)
REMARK    1  A    between atoms: C_1  and  C_2
REMARK    2  A    between atoms: C_2  and  C_3
REMARK    3  A    between atoms: C_3  and  N_4
REMARK    4  A    between atoms: N_7  and  C_8
REMARK    5  A    between atoms: C_8  and  C_9
REMARK    6  A    between atoms: C_9  and  C_10
REMARK    7  A    between atoms: C_10  and  N_11
REMARK    8  A    between atoms: C_12  and  C_14
REMARK    9  A    between atoms: C_16  and  N_37
REMARK   10  A    between atoms: C_18  and  O_19
REMARK   11  A    between atoms: O_19  and  C_20
REMARK   12  A    between atoms: C_23  and  C_25
REMARK   13  A    between atoms: C_25  and  O_26
REMARK   14  A    between atoms: C_27  and  O_29
REMARK   15  A    between atoms: C_30  and  O_32
REMARK   16  A    between atoms: C_33  and  O_35
REMARK                            x       y       z     vdW  Elec       q    Type
REMARK                         _______ _______ _______ _____ _____    ______ ____
ROOT
ATOM      1  C   UNL     1       6.983  -5.382  26.083  0.00  0.00    +0.047 A 
ATOM      2  C   UNL     1       5.781  -5.705  25.436  0.00  0.00    +0.059 A 
ATOM      3  C   UNL     1       4.669  -6.119  26.171  0.00  0.00    +0.131 A 
ATOM      4  C   UNL     1       4.792  -6.325  27.545  0.00  0.00    +0.130 A 
ATOM      5  C   UNL     1       6.000  -6.009  28.186  0.00  0.00    +0.277 A 
ATOM      6  C   UNL     1       7.085  -5.505  27.466  0.00  0.00    +0.097 A 
ENDROOT
BRANCH   1   9
ATOM      7  N   UNL     1       7.819  -3.670  24.572  0.00  0.00    -0.311 N 
ATOM      8  H   UNL     1       6.935  -3.193  24.665  0.00  0.00    +0.149 HD
ATOM      9  C   UNL     1       8.097  -4.823  25.276  0.00  0.00    +0.244 C 
ATOM     10  O   UNL     1       9.176  -5.400  25.256  0.00  0.00    -0.270 OA
BRANCH   7  11
ATOM     11  C   UNL     1       8.763  -3.130  23.619  0.00  0.00    +0.106 C 
BRANCH  11  12
ATOM     12  C   UNL     1       9.596  -2.017  24.251  0.00  0.00    +0.034 C 
BRANCH  12  13
ATOM     13  C   UNL     1       9.523  -0.724  23.435  0.00  0.00    +0.086 C 
BRANCH  13  17
ATOM     14  N   UNL     1       9.067   2.947  22.672  0.00  0.00    -0.300 NA
ATOM     15  C   UNL     1       8.333   1.830  22.032  0.00  0.00    +0.100 C 
ATOM     16  C   UNL     1       7.692   0.823  23.019  0.00  0.00    +0.100 C 
ATOM     17  N   UNL     1       8.623   0.278  24.026  0.00  0.00    -0.300 NA
ATOM     18  C   UNL     1       9.344   1.396  24.671  0.00  0.00    +0.100 C 
ATOM     19  C   UNL     1       9.996   2.386  23.678  0.00  0.00    +0.100 C 
BRANCH  14  20
ATOM     20  C   UNL     1       8.122   3.925  23.238  0.00  0.00    +0.084 C 
BRANCH  20  22
ATOM     21  C   UNL     1       7.393   6.057  22.032  0.00  0.00    +0.005 C 
ATOM     22  C   UNL     1       7.160   4.567  22.228  0.00  0.00    +0.012 C 
ENDBRANCH  20  22
ENDBRANCH  14  20
ENDBRANCH  13  17
ENDBRANCH  12  13
ENDBRANCH  11  12
ENDBRANCH   7  11
ENDBRANCH   1   9
BRANCH   5  23
ATOM     23  N   UNL     1       6.129  -6.166  29.642  0.00  0.00    +0.080 N 
ATOM     24  O   UNL     1       6.486  -7.272  30.071  0.00  0.00    +0.041 OA
ATOM     25  O   UNL     1       5.884  -5.178  30.349  0.00  0.00    -0.576 OA
ENDBRANCH   5  23
BRANCH   3  26
ATOM     26  O   UNL     1       3.510  -6.229  25.443  0.00  0.00    -0.461 OA
BRANCH  26  27
ATOM     27  C   UNL     1       3.557  -7.044  24.252  0.00  0.00    +0.339 C 
ATOM     28  C   UNL     1       2.896  -6.293  23.071  0.00  0.00    +0.214 C 
ATOM     29  C   UNL     1       1.362  -6.264  23.213  0.00  0.00    +0.180 C 
ATOM     30  C   UNL     1       0.795  -7.671  23.503  0.00  0.00    +0.177 C 
ATOM     31  C   UNL     1       1.549  -8.278  24.695  0.00  0.00    +0.179 C 
ATOM     32  O   UNL     1       2.965  -8.334  24.436  0.00  0.00    -0.331 OA
BRANCH  28  33
ATOM     33  O   UNL     1       3.432  -4.962  22.959  0.00  0.00    -0.383 OA
ATOM     34  H   UNL     1       3.778  -4.863  22.054  0.00  0.00    +0.210 HD
ENDBRANCH  28  33
BRANCH  29  35
ATOM     35  O   UNL     1       0.778  -5.696  22.030  0.00  0.00    -0.386 OA
ATOM     36  H   UNL     1      -0.124  -6.042  21.929  0.00  0.00    +0.210 HD
ENDBRANCH  29  35
BRANCH  30  37
ATOM     37  O   UNL     1       0.922  -8.486  22.335  0.00  0.00    -0.386 OA
ATOM     38  H   UNL     1       0.209  -9.144  22.329  0.00  0.00    +0.210 HD
ENDBRANCH  30  37
BRANCH  31  39
ATOM     39  C   UNL     1       1.117  -9.710  25.013  0.00  0.00    +0.190 C 
BRANCH  39  40
ATOM     40  O   UNL     1       2.253 -10.450  25.468  0.00  0.00    -0.392 OA
ATOM     41  H   UNL     1       2.851  -9.784  25.858  0.00  0.00    +0.210 HD
ENDBRANCH  39  40
ENDBRANCH  31  39
ENDBRANCH  26  27
ENDBRANCH   3  26
TORSDOF 15
ENDMDL
MODEL 2
REMARK VINA RESULT:      -7.2      3.745      9.654
REMARK  Name = 
REMARK  16 active torsions:
REMARK  status: ('A' for Active; 'I' for Inactive)
REMARK    1  A    between atoms: C_1  and  C_2
REMARK    2  A    between atoms: C_2  and  C_3
REMARK    3  A    between atoms: C_3  and  N_4
REMARK    4  A    between atoms: N_7  and  C_8
REMARK    5  A    between atoms: C_8  and  C_9
REMARK    6  A    between atoms: C_9  and  C_10
REMARK    7  A    between atoms: C_10  and  N_11
REMARK    8  A    between atoms: C_12  and  C_14
REMARK    9  A    between atoms: C_16  and  N_37
REMARK   10  A    between atoms: C_18  and  O_19
REMARK   11  A    between atoms: O_19  and  C_20
REMARK   12  A    between atoms: C_23  and  C_25
REMARK   13  A    between atoms: C_25  and  O_26
REMARK   14  A    between atoms: C_27  and  O_29
REMARK   15  A    between atoms: C_30  and  O_32
REMARK   16  A    between atoms: C_33  and  O_35
REMARK                            x       y       z     vdW  Elec       q    Type
REMARK                         _______ _______ _______ _____ _____    ______ ____
ROOT
ATOM      1  C   UNL     1       7.790  -4.224  24.980  0.00  0.00    +0.047 A 
ATOM      2  C   UNL     1       8.299  -2.931  24.800  0.00  0.00    +0.059 A 
ATOM      3  C   UNL     1       8.181  -2.287  23.567  0.00  0.00    +0.131 A 
ATOM      4  C   UNL     1       7.659  -2.983  22.477  0.00  0.00    +0.130 A 
ATOM      5  C   UNL     1       7.159  -4.282  22.660  0.00  0.00    +0.277 A 
ATOM      6  C   UNL     1       7.190  -4.893  23.915  0.00  0.00    +0.097 A 
ENDROOT
BRANCH   1   9
ATOM      7  N   UNL     1       6.714  -5.555  26.708  0.00  0.00    -0.311 N 
ATOM      8  H   UNL     1       5.965  -5.745  26.059  0.00  0.00    +0.149 HD
ATOM      9  C   UNL     1       7.821  -4.818  26.341  0.00  0.00    +0.244 C 
ATOM     10  O   UNL     1       8.789  -4.620  27.065  0.00  0.00    -0.270 OA
BRANCH   7  11
ATOM     11  C   UNL     1       6.551  -6.034  28.063  0.00  0.00    +0.106 C 
BRANCH  11  12
ATOM     12  C   UNL     1       5.160  -6.633  28.261  0.00  0.00    +0.034 C 
BRANCH  12  13
ATOM     13  C   UNL     1       4.539  -7.071  26.933  0.00  0.00    +0.086 C 
BRANCH  13  17
ATOM     14  N   UNL     1       2.438  -7.116  23.794  0.00  0.00    -0.300 NA
ATOM     15  C   UNL     1       2.130  -7.833  25.054  0.00  0.00    +0.100 C 
ATOM     16  C   UNL     1       2.184  -6.957  26.331  0.00  0.00    +0.100 C 
ATOM     17  N   UNL     1       3.438  -6.198  26.497  0.00  0.00    -0.300 NA
ATOM     18  C   UNL     1       3.735  -5.474  25.243  0.00  0.00    +0.100 C 
ATOM     19  C   UNL     1       3.696  -6.360  23.976  0.00  0.00    +0.100 C 
BRANCH  14  20
ATOM     20  C   UNL     1       1.303  -6.264  23.397  0.00  0.00    +0.084 C 
BRANCH  20  22
ATOM     21  C   UNL     1       1.018  -8.063  21.604  0.00  0.00    +0.005 C 
ATOM     22  C   UNL     1       0.443  -6.811  22.248  0.00  0.00    +0.012 C 
ENDBRANCH  20  22
ENDBRANCH  14  20
ENDBRANCH  13  17
ENDBRANCH  12  13
ENDBRANCH  11  12
ENDBRANCH   7  11
ENDBRANCH   1   9
BRANCH   5  23
ATOM     23  N   UNL     1       6.555  -5.009  21.535  0.00  0.00    +0.080 N 
ATOM     24  O   UNL     1       5.800  -4.377  20.782  0.00  0.00    +0.041 OA
ATOM     25  O   UNL     1       6.847  -6.206  21.403  0.00  0.00    -0.576 OA
ENDBRANCH   5  23
BRANCH   3  26
ATOM     26  O   UNL     1       8.553  -0.965  23.573  0.00  0.00    -0.461 OA
BRANCH  26  27
ATOM     27  C   UNL     1       7.877  -0.088  22.646  0.00  0.00    +0.339 C 
ATOM     28  C   UNL     1       8.909   0.600  21.721  0.00  0.00    +0.214 C 
ATOM     29  C   UNL     1       9.693   1.694  22.470  0.00  0.00    +0.180 C 
ATOM     30  C   UNL     1       8.745   2.649  23.229  0.00  0.00    +0.177 C 
ATOM     31  C   UNL     1       7.791   1.818  24.099  0.00  0.00    +0.179 C 
ATOM     32  O   UNL     1       7.047   0.879  23.298  0.00  0.00    -0.331 OA
BRANCH  28  33
ATOM     33  O   UNL     1       9.798  -0.375  21.147  0.00  0.00    -0.383 OA
ATOM     34  H   UNL     1       9.352  -0.754  20.369  0.00  0.00    +0.210 HD
ENDBRANCH  28  33
BRANCH  29  35
ATOM     35  O   UNL     1      10.528   2.409  21.545  0.00  0.00    -0.386 OA
ATOM     36  H   UNL     1      10.975   3.130  22.020  0.00  0.00    +0.210 HD
ENDBRANCH  29  35
BRANCH  30  37
ATOM     37  O   UNL     1       8.028   3.454  22.291  0.00  0.00    -0.386 OA
ATOM     38  H   UNL     1       8.640   4.084  21.880  0.00  0.00    +0.210 HD
ENDBRANCH  30  37
BRANCH  31  39
ATOM     39  C   UNL     1       6.753   2.668  24.833  0.00  0.00    +0.190 C 
BRANCH  39  40
ATOM     40  O   UNL     1       5.737   3.066  23.908  0.00  0.00    -0.392 OA
ATOM     41  H   UNL     1       5.755   2.389  23.204  0.00  0.00    +0.210 HD
ENDBRANCH  39  40
ENDBRANCH  31  39
ENDBRANCH  26  27
ENDBRANCH   3  26
TORSDOF 15
ENDMDL
MODEL 3
REMARK VINA RESULT:      -7.0      3.953      8.978
REMARK  Name = 
REMARK  16 active torsions:
REMARK  status: ('A' for Active; 'I' for Inactive)
REMARK    1  A    between atoms: C_1  and  C_2
REMARK    2  A    between atoms: C_2  and  C_3
REMARK    3  A    between atoms: C_3  and  N_4
REMARK    4  A    between atoms: N_7  and  C_8
REMARK    5  A    between atoms: C_8  and  C_9
REMARK    6  A    between atoms: C_9  and  C_10
REMARK    7  A    between atoms: C_10  and  N_11
REMARK    8  A    between atoms: C_12  and  C_14
REMARK    9  A    between atoms: C_16  and  N_37
REMARK   10  A    between atoms: C_18  and  O_19
REMARK   11  A    between atoms: O_19  and  C_20
REMARK   12  A    between atoms: C_23  and  C_25
REMARK   13  A    between atoms: C_25  and  O_26
REMARK   14  A    between atoms: C_27  and  O_29
REMARK   15  A    between atoms: C_30  and  O_32
REMARK   16  A    between atoms: C_33  and  O_35
REMARK                            x       y       z     vdW  Elec       q    Type
REMARK                         _______ _______ _______ _____ _____    ______ ____
ROOT
ATOM      1  C   UNL     1       5.662  -2.274  26.417  0.00  0.00    +0.047 A 
ATOM      2  C   UNL     1       6.536  -1.281  25.952  0.00  0.00    +0.059 A 
ATOM      3  C   UNL     1       7.874  -1.578  25.691  0.00  0.00    +0.131 A 
ATOM      4  C   UNL     1       8.371  -2.843  26.007  0.00  0.00    +0.130 A 
ATOM      5  C   UNL     1       7.494  -3.831  26.481  0.00  0.00    +0.277 A 
ATOM      6  C   UNL     1       6.135  -3.563  26.653  0.00  0.00    +0.097 A 
ENDROOT
BRANCH   1   9
ATOM      7  N   UNL     1       3.397  -2.981  26.947  0.00  0.00    -0.311 N 
ATOM      8  H   UNL     1       3.766  -3.885  27.201  0.00  0.00    +0.149 HD
ATOM      9  C   UNL     1       4.221  -1.947  26.556  0.00  0.00    +0.244 C 
ATOM     10  O   UNL     1       3.833  -0.812  26.307  0.00  0.00    -0.270 OA
BRANCH   7  11
ATOM     11  C   UNL     1       1.959  -2.832  26.948  0.00  0.00    +0.106 C 
BRANCH  11  12
ATOM     12  C   UNL     1       1.298  -3.939  26.129  0.00  0.00    +0.034 C 
BRANCH  12  13
ATOM     13  C   UNL     1       2.127  -5.226  26.145  0.00  0.00    +0.086 C 
BRANCH  13  17
ATOM     14  N   UNL     1       5.030  -5.429  23.738  0.00  0.00    -0.300 NA
ATOM     15  C   UNL     1       4.720  -6.407  24.808  0.00  0.00    +0.100 C 
ATOM     16  C   UNL     1       3.259  -6.920  24.817  0.00  0.00    +0.100 C 
ATOM     17  N   UNL     1       2.238  -5.855  24.821  0.00  0.00    -0.300 NA
ATOM     18  C   UNL     1       2.543  -4.889  23.744  0.00  0.00    +0.100 C 
ATOM     19  C   UNL     1       3.999  -4.369  23.754  0.00  0.00    +0.100 C 
BRANCH  14  20
ATOM     20  C   UNL     1       5.139  -6.110  22.435  0.00  0.00    +0.084 C 
BRANCH  20  22
ATOM     21  C   UNL     1       7.600  -5.469  22.693  0.00  0.00    +0.005 C 
ATOM     22  C   UNL     1       6.536  -6.084  21.797  0.00  0.00    +0.012 C 
ENDBRANCH  20  22
ENDBRANCH  14  20
ENDBRANCH  13  17
ENDBRANCH  12  13
ENDBRANCH  11  12
ENDBRANCH   7  11
ENDBRANCH   1   9
BRANCH   5  23
ATOM     23  N   UNL     1       7.989  -5.186  26.766  0.00  0.00    +0.080 N 
ATOM     24  O   UNL     1       8.843  -5.658  26.002  0.00  0.00    +0.041 OA
ATOM     25  O   UNL     1       7.530  -5.767  27.760  0.00  0.00    -0.576 OA
ENDBRANCH   5  23
BRANCH   3  26
ATOM     26  O   UNL     1       8.574  -0.572  25.072  0.00  0.00    -0.461 OA
BRANCH  26  27
ATOM     27  C   UNL     1       7.886   0.170  24.042  0.00  0.00    +0.339 C 
ATOM     28  C   UNL     1       8.108  -0.505  22.667  0.00  0.00    +0.214 C 
ATOM     29  C   UNL     1       9.537  -0.262  22.146  0.00  0.00    +0.180 C 
ATOM     30  C   UNL     1       9.917   1.233  22.217  0.00  0.00    +0.177 C 
ATOM     31  C   UNL     1       9.643   1.752  23.636  0.00  0.00    +0.179 C 
ATOM     32  O   UNL     1       8.264   1.550  24.003  0.00  0.00    -0.331 OA
BRANCH  28  33
ATOM     33  O   UNL     1       7.816  -1.912  22.746  0.00  0.00    -0.383 OA
ATOM     34  H   UNL     1       8.634  -2.392  22.524  0.00  0.00    +0.210 HD
ENDBRANCH  28  33
BRANCH  29  35
ATOM     35  O   UNL     1       9.656  -0.770  20.807  0.00  0.00    -0.386 OA
ATOM     36  H   UNL     1      10.003  -0.067  20.235  0.00  0.00    +0.210 HD
ENDBRANCH  29  35
BRANCH  30  37
ATOM     37  O   UNL     1       9.167   1.963  21.242  0.00  0.00    -0.386 OA
ATOM     38  H   UNL     1       9.698   2.050  20.434  0.00  0.00    +0.210 HD
ENDBRANCH  30  37
BRANCH  31  39
ATOM     39  C   UNL     1       9.911   3.249  23.791  0.00  0.00    +0.190 C 
BRANCH  39  40
ATOM     40  O   UNL     1       8.933   3.978  23.044  0.00  0.00    -0.392 OA
ATOM     41  H   UNL     1       8.398   4.446  23.713  0.00  0.00    +0.210 HD
ENDBRANCH  39  40
ENDBRANCH  31  39
ENDBRANCH  26  27
ENDBRANCH   3  26
TORSDOF 15
ENDMDL
MODEL 4
REMARK VINA RESULT:      -7.0      3.004      6.006
REMARK  Name = 
REMARK  16 active torsions:
REMARK  status: ('A' for Active; 'I' for Inactive)
REMARK    1  A    between atoms: C_1  and  C_2
REMARK    2  A    between atoms: C_2  and  C_3
REMARK    3  A    between atoms: C_3  and  N_4
REMARK    4  A    between atoms: N_7  and  C_8
REMARK    5  A    between atoms: C_8  and  C_9
REMARK    6  A    between atoms: C_9  and  C_10
REMARK    7  A    between atoms: C_10  and  N_11
REMARK    8  A    between atoms: C_12  and  C_14
REMARK    9  A    between atoms: C_16  and  N_37
REMARK   10  A    between atoms: C_18  and  O_19
REMARK   11  A    between atoms: O_19  and  C_20
REMARK   12  A    between atoms: C_23  and  C_25
REMARK   13  A    between atoms: C_25  and  O_26
REMARK   14  A    between atoms: C_27  and  O_29
REMARK   15  A    between atoms: C_30  and  O_32
REMARK   16  A    between atoms: C_33  and  O_35
REMARK                            x       y       z     vdW  Elec       q    Type
REMARK                         _______ _______ _______ _____ _____    ______ ____
ROOT
ATOM      1  C   UNL     1       6.612  -0.360  24.121  0.00  0.00    +0.047 A 
ATOM      2  C   UNL     1       5.945  -1.577  23.926  0.00  0.00    +0.059 A 
ATOM      3  C   UNL     1       6.538  -2.602  23.187  0.00  0.00    +0.131 A 
ATOM      4  C   UNL     1       7.752  -2.369  22.541  0.00  0.00    +0.130 A 
ATOM      5  C   UNL     1       8.413  -1.145  22.733  0.00  0.00    +0.277 A 
ATOM      6  C   UNL     1       7.865  -0.153  23.548  0.00  0.00    +0.097 A 
ENDROOT
BRANCH   1   9
ATOM      7  N   UNL     1       5.105   1.521  24.437  0.00  0.00    -0.311 N 
ATOM      8  H   UNL     1       4.821   1.423  23.474  0.00  0.00    +0.149 HD
ATOM      9  C   UNL     1       6.002   0.651  25.020  0.00  0.00    +0.244 C 
ATOM     10  O   UNL     1       6.324   0.682  26.201  0.00  0.00    -0.270 OA
BRANCH   7  11
ATOM     11  C   UNL     1       4.579   2.654  25.166  0.00  0.00    +0.106 C 
BRANCH  11  12
ATOM     12  C   UNL     1       4.524   3.894  24.276  0.00  0.00    +0.034 C 
BRANCH  12  13
ATOM     13  C   UNL     1       5.800   4.731  24.393  0.00  0.00    +0.086 C 
BRANCH  13  17
ATOM     14  N   UNL     1       9.410   5.825  24.205  0.00  0.00    -0.300 NA
ATOM     15  C   UNL     1       8.758   5.181  25.370  0.00  0.00    +0.100 C 
ATOM     16  C   UNL     1       7.984   3.880  25.045  0.00  0.00    +0.100 C 
ATOM     17  N   UNL     1       7.003   4.010  23.950  0.00  0.00    -0.300 NA
ATOM     18  C   UNL     1       7.660   4.641  22.786  0.00  0.00    +0.100 C 
ATOM     19  C   UNL     1       8.416   5.949  23.117  0.00  0.00    +0.100 C 
BRANCH  14  20
ATOM     20  C   UNL     1      10.613   5.071  23.808  0.00  0.00    +0.084 C 
BRANCH  20  22
ATOM     21  C   UNL     1      13.024   5.266  22.983  0.00  0.00    +0.005 C 
ATOM     22  C   UNL     1      11.927   5.864  23.850  0.00  0.00    +0.012 C 
ENDBRANCH  20  22
ENDBRANCH  14  20
ENDBRANCH  13  17
ENDBRANCH  12  13
ENDBRANCH  11  12
ENDBRANCH   7  11
ENDBRANCH   1   9
BRANCH   5  23
ATOM     23  N   UNL     1       9.720  -0.903  22.105  0.00  0.00    +0.080 N 
ATOM     24  O   UNL     1      10.590  -1.775  22.237  0.00  0.00    +0.041 OA
ATOM     25  O   UNL     1       9.866   0.154  21.473  0.00  0.00    -0.576 OA
ENDBRANCH   5  23
BRANCH   3  26
ATOM     26  O   UNL     1       5.865  -3.798  23.223  0.00  0.00    -0.461 OA
BRANCH  26  27
ATOM     27  C   UNL     1       6.507  -4.894  23.911  0.00  0.00    +0.339 C 
ATOM     28  C   UNL     1       5.770  -6.218  23.598  0.00  0.00    +0.214 C 
ATOM     29  C   UNL     1       4.424  -6.300  24.342  0.00  0.00    +0.180 C 
ATOM     30  C   UNL     1       4.585  -5.971  25.842  0.00  0.00    +0.177 C 
ATOM     31  C   UNL     1       5.328  -4.635  25.983  0.00  0.00    +0.179 C 
ATOM     32  O   UNL     1       6.608  -4.683  25.323  0.00  0.00    -0.331 OA
BRANCH  28  33
ATOM     33  O   UNL     1       5.590  -6.370  22.179  0.00  0.00    -0.383 OA
ATOM     34  H   UNL     1       6.235  -7.032  21.872  0.00  0.00    +0.210 HD
ENDBRANCH  28  33
BRANCH  29  35
ATOM     35  O   UNL     1       3.844  -7.600  24.149  0.00  0.00    -0.386 OA
ATOM     36  H   UNL     1       3.290  -7.581  23.352  0.00  0.00    +0.210 HD
ENDBRANCH  29  35
BRANCH  30  37
ATOM     37  O   UNL     1       5.293  -7.032  26.490  0.00  0.00    -0.386 OA
ATOM     38  H   UNL     1       5.365  -6.833  27.436  0.00  0.00    +0.210 HD
ENDBRANCH  30  37
BRANCH  31  39
ATOM     39  C   UNL     1       5.613  -4.256  27.437  0.00  0.00    +0.190 C 
BRANCH  39  40
ATOM     40  O   UNL     1       6.860  -4.833  27.834  0.00  0.00    -0.392 OA
ATOM     41  H   UNL     1       6.722  -5.129  28.754  0.00  0.00    +0.210 HD
ENDBRANCH  39  40
ENDBRANCH  31  39
ENDBRANCH  26  27
ENDBRANCH   3  26
TORSDOF 15
ENDMDL
MODEL 5
REMARK VINA RESULT:      -6.9      3.187      5.250
REMARK  Name = 
REMARK  16 active torsions:
REMARK  status: ('A' for Active; 'I' for Inactive)
REMARK    1  A    between atoms: C_1  and  C_2
REMARK    2  A    between atoms: C_2  and  C_3
REMARK    3  A    between atoms: C_3  and  N_4
REMARK    4  A    between atoms: N_7  and  C_8
REMARK    5  A    between atoms: C_8  and  C_9
REMARK    6  A    between atoms: C_9  and  C_10
REMARK    7  A    between atoms: C_10  and  N_11
REMARK    8  A    between atoms: C_12  and  C_14
REMARK    9  A    between atoms: C_16  and  N_37
REMARK   10  A    between atoms: C_18  and  O_19
REMARK   11  A    between atoms: O_19  and  C_20
REMARK   12  A    between atoms: C_23  and  C_25
REMARK   13  A    between atoms: C_25  and  O_26
REMARK   14  A    between atoms: C_27  and  O_29
REMARK   15  A    between atoms: C_30  and  O_32
REMARK   16  A    between atoms: C_33  and  O_35
REMARK                            x       y       z     vdW  Elec       q    Type
REMARK                         _______ _______ _______ _____ _____    ______ ____
ROOT
ATOM      1  C   UNL     1       8.518  -3.186  23.656  0.00  0.00    +0.047 A 
ATOM      2  C   UNL     1       8.144  -3.853  24.831  0.00  0.00    +0.059 A 
ATOM      3  C   UNL     1       7.157  -4.839  24.803  0.00  0.00    +0.131 A 
ATOM      4  C   UNL     1       6.457  -5.077  23.620  0.00  0.00    +0.130 A 
ATOM      5  C   UNL     1       6.829  -4.400  22.448  0.00  0.00    +0.277 A 
ATOM      6  C   UNL     1       7.881  -3.481  22.453  0.00  0.00    +0.097 A 
ENDROOT
BRANCH   1   9
ATOM      7  N   UNL     1       9.528  -1.172  24.571  0.00  0.00    -0.311 N 
ATOM      8  H   UNL     1       8.735  -1.085  25.188  0.00  0.00    +0.149 HD
ATOM      9  C   UNL     1       9.661  -2.240  23.708  0.00  0.00    +0.244 C 
ATOM     10  O   UNL     1      10.635  -2.430  22.991  0.00  0.00    -0.270 OA
BRANCH   7  11
ATOM     11  C   UNL     1      10.493  -0.094  24.581  0.00  0.00    +0.106 C 
BRANCH  11  12
ATOM     12  C   UNL     1       9.799   1.252  24.774  0.00  0.00    +0.034 C 
BRANCH  12  13
ATOM     13  C   UNL     1       9.355   1.856  23.440  0.00  0.00    +0.086 C 
BRANCH  13  17
ATOM     14  N   UNL     1       5.999   3.564  23.140  0.00  0.00    -0.300 NA
ATOM     15  C   UNL     1       7.037   3.499  22.084  0.00  0.00    +0.100 C 
ATOM     16  C   UNL     1       7.579   2.078  21.792  0.00  0.00    +0.100 C 
ATOM     17  N   UNL     1       8.053   1.348  22.983  0.00  0.00    -0.300 NA
ATOM     18  C   UNL     1       7.010   1.404  24.030  0.00  0.00    +0.100 C 
ATOM     19  C   UNL     1       6.487   2.829  24.327  0.00  0.00    +0.100 C 
BRANCH  14  20
ATOM     20  C   UNL     1       4.715   3.053  22.631  0.00  0.00    +0.084 C 
BRANCH  20  22
ATOM     21  C   UNL     1       2.470   3.606  21.541  0.00  0.00    +0.005 C 
ATOM     22  C   UNL     1       3.649   4.123  22.350  0.00  0.00    +0.012 C 
ENDBRANCH  20  22
ENDBRANCH  14  20
ENDBRANCH  13  17
ENDBRANCH  12  13
ENDBRANCH  11  12
ENDBRANCH   7  11
ENDBRANCH   1   9
BRANCH   5  23
ATOM     23  N   UNL     1       6.140  -4.679  21.180  0.00  0.00    +0.080 N 
ATOM     24  O   UNL     1       6.070  -5.860  20.813  0.00  0.00    +0.041 OA
ATOM     25  O   UNL     1       5.661  -3.716  20.564  0.00  0.00    -0.576 OA
ENDBRANCH   5  23
BRANCH   3  26
ATOM     26  O   UNL     1       7.012  -5.538  25.976  0.00  0.00    -0.461 OA
BRANCH  26  27
ATOM     27  C   UNL     1       6.433  -4.832  27.095  0.00  0.00    +0.339 C 
ATOM     28  C   UNL     1       6.155  -5.818  28.255  0.00  0.00    +0.214 C 
ATOM     29  C   UNL     1       4.938  -6.712  27.952  0.00  0.00    +0.180 C 
ATOM     30  C   UNL     1       3.724  -5.877  27.489  0.00  0.00    +0.177 C 
ATOM     31  C   UNL     1       4.160  -4.958  26.340  0.00  0.00    +0.179 C 
ATOM     32  O   UNL     1       5.250  -4.106  26.743  0.00  0.00    -0.331 OA
BRANCH  28  33
ATOM     33  O   UNL     1       7.325  -6.609  28.533  0.00  0.00    -0.383 OA
ATOM     34  H   UNL     1       7.912  -6.542  27.760  0.00  0.00    +0.210 HD
ENDBRANCH  28  33
BRANCH  29  35
ATOM     35  O   UNL     1       4.620  -7.503  29.109  0.00  0.00    -0.386 OA
ATOM     36  H   UNL     1       3.889  -8.102  28.887  0.00  0.00    +0.210 HD
ENDBRANCH  29  35
BRANCH  30  37
ATOM     37  O   UNL     1       3.213  -5.125  28.593  0.00  0.00    -0.386 OA
ATOM     38  H   UNL     1       2.475  -5.611  28.993  0.00  0.00    +0.210 HD
ENDBRANCH  30  37
BRANCH  31  39
ATOM     39  C   UNL     1       3.046  -4.025  25.860  0.00  0.00    +0.190 C 
BRANCH  39  40
ATOM     40  O   UNL     1       2.942  -2.920  26.762  0.00  0.00    -0.392 OA
ATOM     41  H   UNL     1       1.990  -2.710  26.799  0.00  0.00    +0.210 HD
ENDBRANCH  39  40
ENDBRANCH  31  39
ENDBRANCH  26  27
ENDBRANCH   3  26
TORSDOF 15
ENDMDL
MODEL 6
REMARK VINA RESULT:      -6.8      4.186      8.741
REMARK  Name = 
REMARK  16 active torsions:
REMARK  status: ('A' for Active; 'I' for Inactive)
REMARK    1  A    between atoms: C_1  and  C_2
REMARK    2  A    between atoms: C_2  and  C_3
REMARK    3  A    between atoms: C_3  and  N_4
REMARK    4  A    between atoms: N_7  and  C_8
REMARK    5  A    between atoms: C_8  and  C_9
REMARK    6  A    between atoms: C_9  and  C_10
REMARK    7  A    between atoms: C_10  and  N_11
REMARK    8  A    between atoms: C_12  and  C_14
REMARK    9  A    between atoms: C_16  and  N_37
REMARK   10  A    between atoms: C_18  and  O_19
REMARK   11  A    between atoms: O_19  and  C_20
REMARK   12  A    between atoms: C_23  and  C_25
REMARK   13  A    between atoms: C_25  and  O_26
REMARK   14  A    between atoms: C_27  and  O_29
REMARK   15  A    between atoms: C_30  and  O_32
REMARK   16  A    between atoms: C_33  and  O_35
REMARK                            x       y       z     vdW  Elec       q    Type
REMARK                         _______ _______ _______ _____ _____    ______ ____
ROOT
ATOM      1  C   UNL     1       7.831  -4.424  25.017  0.00  0.00    +0.047 A 
ATOM      2  C   UNL     1       8.453  -3.191  24.781  0.00  0.00    +0.059 A 
ATOM      3  C   UNL     1       8.353  -2.572  23.534  0.00  0.00    +0.131 A 
ATOM      4  C   UNL     1       7.730  -3.244  22.482  0.00  0.00    +0.130 A 
ATOM      5  C   UNL     1       7.116  -4.484  22.722  0.00  0.00    +0.277 A 
ATOM      6  C   UNL     1       7.133  -5.060  23.993  0.00  0.00    +0.097 A 
ENDROOT
BRANCH   1   9
ATOM      7  N   UNL     1       6.762  -5.740  26.760  0.00  0.00    -0.311 N 
ATOM      8  H   UNL     1       6.031  -5.969  26.103  0.00  0.00    +0.149 HD
ATOM      9  C   UNL     1       7.853  -4.981  26.393  0.00  0.00    +0.244 C 
ATOM     10  O   UNL     1       8.801  -4.735  27.129  0.00  0.00    -0.270 OA
BRANCH   7  11
ATOM     11  C   UNL     1       6.587  -6.188  28.124  0.00  0.00    +0.106 C 
BRANCH  11  12
ATOM     12  C   UNL     1       5.104  -6.269  28.482  0.00  0.00    +0.034 C 
BRANCH  12  13
ATOM     13  C   UNL     1       4.295  -5.169  27.791  0.00  0.00    +0.086 C 
BRANCH  13  17
ATOM     14  N   UNL     1       2.379  -1.918  27.964  0.00  0.00    -0.300 NA
ATOM     15  C   UNL     1       2.534  -2.894  29.069  0.00  0.00    +0.100 C 
ATOM     16  C   UNL     1       3.993  -3.328  29.353  0.00  0.00    +0.100 C 
ATOM     17  N   UNL     1       4.727  -3.814  28.169  0.00  0.00    -0.300 NA
ATOM     18  C   UNL     1       4.581  -2.833  27.073  0.00  0.00    +0.100 C 
ATOM     19  C   UNL     1       3.119  -2.419  26.785  0.00  0.00    +0.100 C 
BRANCH  14  20
ATOM     20  C   UNL     1       2.816  -0.579  28.396  0.00  0.00    +0.084 C 
BRANCH  20  22
ATOM     21  C   UNL     1       4.195   1.168  27.140  0.00  0.00    +0.005 C 
ATOM     22  C   UNL     1       2.843   0.489  27.292  0.00  0.00    +0.012 C 
ENDBRANCH  20  22
ENDBRANCH  14  20
ENDBRANCH  13  17
ENDBRANCH  12  13
ENDBRANCH  11  12
ENDBRANCH   7  11
ENDBRANCH   1   9
BRANCH   5  23
ATOM     23  N   UNL     1       6.405  -5.179  21.639  0.00  0.00    +0.080 N 
ATOM     24  O   UNL     1       6.483  -6.415  21.603  0.00  0.00    +0.041 OA
ATOM     25  O   UNL     1       5.761  -4.486  20.838  0.00  0.00    -0.576 OA
ENDBRANCH   5  23
BRANCH   3  26
ATOM     26  O   UNL     1       8.850  -1.293  23.487  0.00  0.00    -0.461 OA
BRANCH  26  27
ATOM     27  C   UNL     1       8.007  -0.282  22.892  0.00  0.00    +0.339 C 
ATOM     28  C   UNL     1       8.815   0.538  21.857  0.00  0.00    +0.214 C 
ATOM     29  C   UNL     1       9.797   1.502  22.549  0.00  0.00    +0.180 C 
ATOM     30  C   UNL     1       9.096   2.331  23.647  0.00  0.00    +0.177 C 
ATOM     31  C   UNL     1       8.345   1.379  24.589  0.00  0.00    +0.179 C 
ATOM     32  O   UNL     1       7.395   0.575  23.862  0.00  0.00    -0.331 OA
BRANCH  28  33
ATOM     33  O   UNL     1       9.503  -0.340  20.948  0.00  0.00    -0.383 OA
ATOM     34  H   UNL     1       9.509  -1.227  21.348  0.00  0.00    +0.210 HD
ENDBRANCH  28  33
BRANCH  29  35
ATOM     35  O   UNL     1      10.415   2.349  21.567  0.00  0.00    -0.386 OA
ATOM     36  H   UNL     1      11.045   1.821  21.049  0.00  0.00    +0.210 HD
ENDBRANCH  29  35
BRANCH  30  37
ATOM     37  O   UNL     1       8.207   3.273  23.041  0.00  0.00    -0.386 OA
ATOM     38  H   UNL     1       7.481   3.465  23.655  0.00  0.00    +0.210 HD
ENDBRANCH  30  37
BRANCH  31  39
ATOM     39  C   UNL     1       7.546   2.108  25.670  0.00  0.00    +0.190 C 
BRANCH  39  40
ATOM     40  O   UNL     1       8.179   3.359  25.954  0.00  0.00    -0.392 OA
ATOM     41  H   UNL     1       7.796   3.651  26.804  0.00  0.00    +0.210 HD
ENDBRANCH  39  40
ENDBRANCH  31  39
ENDBRANCH  26  27
ENDBRANCH   3  26
TORSDOF 15
ENDMDL
MODEL 7
REMARK VINA RESULT:      -6.6      3.602      5.358
REMARK  Name = 
REMARK  16 active torsions:
REMARK  status: ('A' for Active; 'I' for Inactive)
REMARK    1  A    between atoms: C_1  and  C_2
REMARK    2  A    between atoms: C_2  and  C_3
REMARK    3  A    between atoms: C_3  and  N_4
REMARK    4  A    between atoms: N_7  and  C_8
REMARK    5  A    between atoms: C_8  and  C_9
REMARK    6  A    between atoms: C_9  and  C_10
REMARK    7  A    between atoms: C_10  and  N_11
REMARK    8  A    between atoms: C_12  and  C_14
REMARK    9  A    between atoms: C_16  and  N_37
REMARK   10  A    between atoms: C_18  and  O_19
REMARK   11  A    between atoms: O_19  and  C_20
REMARK   12  A    between atoms: C_23  and  C_25
REMARK   13  A    between atoms: C_25  and  O_26
REMARK   14  A    between atoms: C_27  and  O_29
REMARK   15  A    between atoms: C_30  and  O_32
REMARK   16  A    between atoms: C_33  and  O_35
REMARK                            x       y       z     vdW  Elec       q    Type
REMARK                         _______ _______ _______ _____ _____    ______ ____
ROOT
ATOM      1  C   UNL     1       8.460  -2.312  23.715  0.00  0.00    +0.047 A 
ATOM      2  C   UNL     1       7.747  -2.407  24.918  0.00  0.00    +0.059 A 
ATOM      3  C   UNL     1       6.664  -3.279  25.035  0.00  0.00    +0.131 A 
ATOM      4  C   UNL     1       6.216  -3.972  23.910  0.00  0.00    +0.130 A 
ATOM      5  C   UNL     1       6.928  -3.866  22.704  0.00  0.00    +0.277 A 
ATOM      6  C   UNL     1       8.068  -3.067  22.611  0.00  0.00    +0.097 A 
ENDROOT
BRANCH   1   9
ATOM      7  N   UNL     1       9.792  -0.511  24.659  0.00  0.00    -0.311 N 
ATOM      8  H   UNL     1       9.119  -0.440  25.407  0.00  0.00    +0.149 HD
ATOM      9  C   UNL     1       9.682  -1.471  23.675  0.00  0.00    +0.244 C 
ATOM     10  O   UNL     1      10.508  -1.646  22.788  0.00  0.00    -0.270 OA
BRANCH   7  11
ATOM     11  C   UNL     1      10.845   0.480  24.624  0.00  0.00    +0.106 C 
BRANCH  11  12
ATOM     12  C   UNL     1      10.409   1.707  23.826  0.00  0.00    +0.034 C 
BRANCH  12  13
ATOM     13  C   UNL     1       9.108   2.302  24.371  0.00  0.00    +0.086 C 
BRANCH  13  17
ATOM     14  N   UNL     1       5.946   3.884  23.041  0.00  0.00    -0.300 NA
ATOM     15  C   UNL     1       7.172   3.603  22.257  0.00  0.00    +0.100 C 
ATOM     16  C   UNL     1       7.710   2.156  22.386  0.00  0.00    +0.100 C 
ATOM     17  N   UNL     1       7.906   1.699  23.775  0.00  0.00    -0.300 NA
ATOM     18  C   UNL     1       6.677   1.969  24.551  0.00  0.00    +0.100 C 
ATOM     19  C   UNL     1       6.158   3.421  24.430  0.00  0.00    +0.100 C 
BRANCH  14  20
ATOM     20  C   UNL     1       4.773   3.268  22.398  0.00  0.00    +0.084 C 
BRANCH  20  22
ATOM     21  C   UNL     1       2.444   3.681  21.428  0.00  0.00    +0.005 C 
ATOM     22  C   UNL     1       3.481   4.096  22.461  0.00  0.00    +0.012 C 
ENDBRANCH  20  22
ENDBRANCH  14  20
ENDBRANCH  13  17
ENDBRANCH  12  13
ENDBRANCH  11  12
ENDBRANCH   7  11
ENDBRANCH   1   9
BRANCH   5  23
ATOM     23  N   UNL     1       6.503  -4.633  21.524  0.00  0.00    +0.080 N 
ATOM     24  O   UNL     1       5.681  -4.106  20.762  0.00  0.00    +0.041 OA
ATOM     25  O   UNL     1       7.004  -5.755  21.359  0.00  0.00    -0.576 OA
ENDBRANCH   5  23
BRANCH   3  26
ATOM     26  O   UNL     1       6.169  -3.412  26.309  0.00  0.00    -0.461 OA
BRANCH  26  27
ATOM     27  C   UNL     1       5.032  -4.284  26.485  0.00  0.00    +0.339 C 
ATOM     28  C   UNL     1       3.869  -3.509  27.150  0.00  0.00    +0.214 C 
ATOM     29  C   UNL     1       4.143  -3.260  28.645  0.00  0.00    +0.180 C 
ATOM     30  C   UNL     1       4.569  -4.558  29.365  0.00  0.00    +0.177 C 
ATOM     31  C   UNL     1       5.726  -5.203  28.589  0.00  0.00    +0.179 C 
ATOM     32  O   UNL     1       5.348  -5.469  27.224  0.00  0.00    -0.331 OA
BRANCH  28  33
ATOM     33  O   UNL     1       3.626  -2.274  26.453  0.00  0.00    -0.383 OA
ATOM     34  H   UNL     1       3.006  -1.752  26.992  0.00  0.00    +0.210 HD
ENDBRANCH  28  33
BRANCH  29  35
ATOM     35  O   UNL     1       2.982  -2.677  29.258  0.00  0.00    -0.386 OA
ATOM     36  H   UNL     1       2.448  -2.245  28.571  0.00  0.00    +0.210 HD
ENDBRANCH  29  35
BRANCH  30  37
ATOM     37  O   UNL     1       3.449  -5.441  29.460  0.00  0.00    -0.386 OA
ATOM     38  H   UNL     1       3.770  -6.353  29.542  0.00  0.00    +0.210 HD
ENDBRANCH  30  37
BRANCH  31  39
ATOM     39  C   UNL     1       6.171  -6.543  29.177  0.00  0.00    +0.190 C 
BRANCH  39  40
ATOM     40  O   UNL     1       5.441  -7.597  28.542  0.00  0.00    -0.392 OA
ATOM     41  H   UNL     1       4.537  -7.247  28.429  0.00  0.00    +0.210 HD
ENDBRANCH  39  40
ENDBRANCH  31  39
ENDBRANCH  26  27
ENDBRANCH   3  26
TORSDOF 15
ENDMDL
MODEL 8
REMARK VINA RESULT:      -6.5      3.739      5.846
REMARK  Name = 
REMARK  16 active torsions:
REMARK  status: ('A' for Active; 'I' for Inactive)
REMARK    1  A    between atoms: C_1  and  C_2
REMARK    2  A    between atoms: C_2  and  C_3
REMARK    3  A    between atoms: C_3  and  N_4
REMARK    4  A    between atoms: N_7  and  C_8
REMARK    5  A    between atoms: C_8  and  C_9
REMARK    6  A    between atoms: C_9  and  C_10
REMARK    7  A    between atoms: C_10  and  N_11
REMARK    8  A    between atoms: C_12  and  C_14
REMARK    9  A    between atoms: C_16  and  N_37
REMARK   10  A    between atoms: C_18  and  O_19
REMARK   11  A    between atoms: O_19  and  C_20
REMARK   12  A    between atoms: C_23  and  C_25
REMARK   13  A    between atoms: C_25  and  O_26
REMARK   14  A    between atoms: C_27  and  O_29
REMARK   15  A    between atoms: C_30  and  O_32
REMARK   16  A    between atoms: C_33  and  O_35
REMARK                            x       y       z     vdW  Elec       q    Type
REMARK                         _______ _______ _______ _____ _____    ______ ____
ROOT
ATOM      1  C   UNL     1       4.560  -0.390  26.967  0.00  0.00    +0.047 A 
ATOM      2  C   UNL     1       5.643  -1.269  26.834  0.00  0.00    +0.059 A 
ATOM      3  C   UNL     1       5.496  -2.627  27.126  0.00  0.00    +0.131 A 
ATOM      4  C   UNL     1       4.295  -3.086  27.667  0.00  0.00    +0.130 A 
ATOM      5  C   UNL     1       3.216  -2.199  27.807  0.00  0.00    +0.277 A 
ATOM      6  C   UNL     1       3.332  -0.860  27.426  0.00  0.00    +0.097 A 
ENDROOT
BRANCH   1   9
ATOM      7  N   UNL     1       5.614   1.784  27.246  0.00  0.00    -0.311 N 
ATOM      8  H   UNL     1       6.175   1.388  27.985  0.00  0.00    +0.149 HD
ATOM      9  C   UNL     1       4.726   1.016  26.521  0.00  0.00    +0.244 C 
ATOM     10  O   UNL     1       4.075   1.429  25.570  0.00  0.00    -0.270 OA
BRANCH   7  11
ATOM     11  C   UNL     1       5.730   3.207  27.020  0.00  0.00    +0.106 C 
BRANCH  11  12
ATOM     12  C   UNL     1       7.196   3.635  26.997  0.00  0.00    +0.034 C 
BRANCH  12  13
ATOM     13  C   UNL     1       7.764   3.630  25.576  0.00  0.00    +0.086 C 
BRANCH  13  17
ATOM     14  N   UNL     1       9.049   2.315  22.277  0.00  0.00    -0.300 NA
ATOM     15  C   UNL     1       9.618   2.014  23.612  0.00  0.00    +0.100 C 
ATOM     16  C   UNL     1       8.590   1.532  24.664  0.00  0.00    +0.100 C 
ATOM     17  N   UNL     1       7.419   2.415  24.823  0.00  0.00    -0.300 NA
ATOM     18  C   UNL     1       6.845   2.702  23.491  0.00  0.00    +0.100 C 
ATOM     19  C   UNL     1       7.877   3.200  22.452  0.00  0.00    +0.100 C 
BRANCH  14  20
ATOM     20  C   UNL     1       8.730   1.066  21.562  0.00  0.00    +0.084 C 
BRANCH  20  22
ATOM     21  C   UNL     1       9.256  -1.402  21.964  0.00  0.00    +0.005 C 
ATOM     22  C   UNL     1       9.808  -0.025  21.634  0.00  0.00    +0.012 C 
ENDBRANCH  20  22
ENDBRANCH  14  20
ENDBRANCH  13  17
ENDBRANCH  12  13
ENDBRANCH  11  12
ENDBRANCH   7  11
ENDBRANCH   1   9
BRANCH   5  23
ATOM     23  N   UNL     1       1.925  -2.678  28.322  0.00  0.00    +0.080 N 
ATOM     24  O   UNL     1       1.738  -3.902  28.353  0.00  0.00    +0.041 OA
ATOM     25  O   UNL     1       1.110  -1.826  28.706  0.00  0.00    -0.576 OA
ENDBRANCH   5  23
BRANCH   3  26
ATOM     26  O   UNL     1       6.572  -3.407  26.783  0.00  0.00    -0.461 OA
BRANCH  26  27
ATOM     27  C   UNL     1       6.302  -4.598  26.012  0.00  0.00    +0.339 C 
ATOM     28  C   UNL     1       7.583  -5.460  25.905  0.00  0.00    +0.214 C 
ATOM     29  C   UNL     1       8.599  -4.836  24.930  0.00  0.00    +0.180 C 
ATOM     30  C   UNL     1       7.937  -4.466  23.585  0.00  0.00    +0.177 C 
ATOM     31  C   UNL     1       6.690  -3.614  23.859  0.00  0.00    +0.179 C 
ATOM     32  O   UNL     1       5.765  -4.312  24.716  0.00  0.00    -0.331 OA
BRANCH  28  33
ATOM     33  O   UNL     1       8.165  -5.658  27.206  0.00  0.00    -0.383 OA
ATOM     34  H   UNL     1       8.950  -6.222  27.091  0.00  0.00    +0.210 HD
ENDBRANCH  28  33
BRANCH  29  35
ATOM     35  O   UNL     1       9.702  -5.737  24.741  0.00  0.00    -0.386 OA
ATOM     36  H   UNL     1      10.092  -5.576  23.866  0.00  0.00    +0.210 HD
ENDBRANCH  29  35
BRANCH  30  37
ATOM     37  O   UNL     1       7.606  -5.660  22.870  0.00  0.00    -0.386 OA
ATOM     38  H   UNL     1       8.420  -6.059  22.525  0.00  0.00    +0.210 HD
ENDBRANCH  30  37
BRANCH  31  39
ATOM     39  C   UNL     1       5.912  -3.260  22.591  0.00  0.00    +0.190 C 
BRANCH  39  40
ATOM     40  O   UNL     1       5.034  -4.341  22.266  0.00  0.00    -0.392 OA
ATOM     41  H   UNL     1       5.619  -5.065  21.972  0.00  0.00    +0.210 HD
ENDBRANCH  39  40
ENDBRANCH  31  39
ENDBRANCH  26  27
ENDBRANCH   3  26
TORSDOF 15
ENDMDL
MODEL 9
REMARK VINA RESULT:      -6.5      3.666      8.878
REMARK  Name = 
REMARK  16 active torsions:
REMARK  status: ('A' for Active; 'I' for Inactive)
REMARK    1  A    between atoms: C_1  and  C_2
REMARK    2  A    between atoms: C_2  and  C_3
REMARK    3  A    between atoms: C_3  and  N_4
REMARK    4  A    between atoms: N_7  and  C_8
REMARK    5  A    between atoms: C_8  and  C_9
REMARK    6  A    between atoms: C_9  and  C_10
REMARK    7  A    between atoms: C_10  and  N_11
REMARK    8  A    between atoms: C_12  and  C_14
REMARK    9  A    between atoms: C_16  and  N_37
REMARK   10  A    between atoms: C_18  and  O_19
REMARK   11  A    between atoms: O_19  and  C_20
REMARK   12  A    between atoms: C_23  and  C_25
REMARK   13  A    between atoms: C_25  and  O_26
REMARK   14  A    between atoms: C_27  and  O_29
REMARK   15  A    between atoms: C_30  and  O_32
REMARK   16  A    between atoms: C_33  and  O_35
REMARK                            x       y       z     vdW  Elec       q    Type
REMARK                         _______ _______ _______ _____ _____    ______ ____
ROOT
ATOM      1  C   UNL     1       6.742  -4.045  23.107  0.00  0.00    +0.047 A 
ATOM      2  C   UNL     1       7.056  -2.758  22.647  0.00  0.00    +0.059 A 
ATOM      3  C   UNL     1       8.224  -2.119  23.066  0.00  0.00    +0.131 A 
ATOM      4  C   UNL     1       9.022  -2.719  24.041  0.00  0.00    +0.130 A 
ATOM      5  C   UNL     1       8.698  -4.004  24.505  0.00  0.00    +0.277 A 
ATOM      6  C   UNL     1       7.582  -4.684  24.016  0.00  0.00    +0.097 A 
ENDROOT
BRANCH   1   9
ATOM      7  N   UNL     1       4.544  -5.036  23.417  0.00  0.00    -0.311 N 
ATOM      8  H   UNL     1       4.569  -4.729  24.378  0.00  0.00    +0.149 HD
ATOM      9  C   UNL     1       5.560  -4.737  22.534  0.00  0.00    +0.244 C 
ATOM     10  O   UNL     1       5.545  -5.022  21.343  0.00  0.00    -0.270 OA
BRANCH   7  11
ATOM     11  C   UNL     1       3.424  -5.859  23.017  0.00  0.00    +0.106 C 
BRANCH  11  12
ATOM     12  C   UNL     1       3.069  -6.861  24.114  0.00  0.00    +0.034 C 
BRANCH  12  13
ATOM     13  C   UNL     1       4.199  -7.003  25.137  0.00  0.00    +0.086 C 
BRANCH  13  17
ATOM     14  N   UNL     1       4.762  -4.290  27.704  0.00  0.00    -0.300 NA
ATOM     15  C   UNL     1       3.643  -4.347  26.733  0.00  0.00    +0.100 C 
ATOM     16  C   UNL     1       2.877  -5.693  26.704  0.00  0.00    +0.100 C 
ATOM     17  N   UNL     1       3.735  -6.880  26.527  0.00  0.00    -0.300 NA
ATOM     18  C   UNL     1       4.842  -6.826  27.505  0.00  0.00    +0.100 C 
ATOM     19  C   UNL     1       5.613  -5.485  27.515  0.00  0.00    +0.100 C 
BRANCH  14  20
ATOM     20  C   UNL     1       4.245  -4.158  29.077  0.00  0.00    +0.084 C 
BRANCH  20  22
ATOM     21  C   UNL     1       3.906  -1.636  29.316  0.00  0.00    +0.005 C 
ATOM     22  C   UNL     1       3.251  -3.008  29.296  0.00  0.00    +0.012 C 
ENDBRANCH  20  22
ENDBRANCH  14  20
ENDBRANCH  13  17
ENDBRANCH  12  13
ENDBRANCH  11  12
ENDBRANCH   7  11
ENDBRANCH   1   9
BRANCH   5  23
ATOM     23  N   UNL     1       9.559  -4.674  25.490  0.00  0.00    +0.080 N 
ATOM     24  O   UNL     1      10.589  -5.223  25.074  0.00  0.00    +0.041 OA
ATOM     25  O   UNL     1       9.207  -4.637  26.678  0.00  0.00    -0.576 OA
ENDBRANCH   5  23
BRANCH   3  26
ATOM     26  O   UNL     1       8.505  -0.948  22.407  0.00  0.00    -0.461 OA
BRANCH  26  27
ATOM     27  C   UNL     1       7.641   0.178  22.673  0.00  0.00    +0.339 C 
ATOM     28  C   UNL     1       8.307   1.484  22.175  0.00  0.00    +0.214 C 
ATOM     29  C   UNL     1       9.459   1.914  23.102  0.00  0.00    +0.180 C 
ATOM     30  C   UNL     1       9.022   1.918  24.583  0.00  0.00    +0.177 C 
ATOM     31  C   UNL     1       8.387   0.561  24.920  0.00  0.00    +0.179 C 
ATOM     32  O   UNL     1       7.271   0.284  24.052  0.00  0.00    -0.331 OA
BRANCH  28  33
ATOM     33  O   UNL     1       8.761   1.331  20.819  0.00  0.00    -0.383 OA
ATOM     34  H   UNL     1       9.350   0.556  20.794  0.00  0.00    +0.210 HD
ENDBRANCH  28  33
BRANCH  29  35
ATOM     35  O   UNL     1       9.950   3.202  22.697  0.00  0.00    -0.386 OA
ATOM     36  H   UNL     1      10.018   3.221  21.728  0.00  0.00    +0.210 HD
ENDBRANCH  29  35
BRANCH  30  37
ATOM     37  O   UNL     1       8.106   2.993  24.808  0.00  0.00    -0.386 OA
ATOM     38  H   UNL     1       8.512   3.822  24.511  0.00  0.00    +0.210 HD
ENDBRANCH  30  37
BRANCH  31  39
ATOM     39  C   UNL     1       7.844   0.489  26.348  0.00  0.00    +0.190 C 
BRANCH  39  40
ATOM     40  O   UNL     1       6.571   1.142  26.397  0.00  0.00    -0.392 OA
ATOM     41  H   UNL     1       6.562   1.739  25.624  0.00  0.00    +0.210 HD
ENDBRANCH  39  40
ENDBRANCH  31  39
ENDBRANCH  26  27
ENDBRANCH   3  26
TORSDOF 15
ENDMDL
