MODEL 1
REMARK VINA RESULT:      -5.2      0.000      0.000
REMARK  Name = 
REMARK  5 active torsions:
REMARK  status: ('A' for Active; 'I' for Inactive)
REMARK    1  A    between atoms: O_1  and  S_2
REMARK    2  A    between atoms: S_2  and  C_5
REMARK    3  A    between atoms: C_5  and  C_6
REMARK    4  A    between atoms: C_6  and  N_7
REMARK    5  A    between atoms: N_7  and  C_8
REMARK                            x       y       z     vdW  Elec       q    Type
REMARK                         _______ _______ _______ _____ _____    ______ ____
ROOT
ATOM      1  N   UNL     1       8.804  -1.176  24.320  0.00  0.00    -0.312 NA
ATOM      2  H   UNL     1       8.753  -0.760  25.250  0.00  0.00    +0.122 HD
ENDROOT
BRANCH   1   3
ATOM      3  C   UNL     1      10.146  -0.961  23.752  0.00  0.00    +0.054 C 
ATOM      4  C   UNL     1      10.685   0.419  24.184  0.00  0.00    +0.019 C 
ATOM      5  C   UNL     1       9.995   1.595  23.493  0.00  0.00    +0.002 C 
ATOM      6  C   UNL     1       9.975   1.437  21.975  0.00  0.00    +0.000 C 
ATOM      7  C   UNL     1       9.412   0.085  21.549  0.00  0.00    +0.002 C 
ATOM      8  C   UNL     1      10.178  -1.057  22.216  0.00  0.00    +0.019 C 
ENDBRANCH   1   3
BRANCH   1   9
ATOM      9  C   UNL     1       8.363  -2.580  24.374  0.00  0.00    +0.106 C 
BRANCH   9  10
ATOM     10  C   UNL     1       8.913  -3.385  25.545  0.00  0.00    +0.213 C 
BRANCH  10  11
ATOM     11  S   UNL     1       8.794  -5.130  25.195  0.00  0.00    +0.081 S 
ATOM     12  O   UNL     1       8.058  -5.805  26.239  0.00  0.00    -0.147 OA
ATOM     13  O   UNL     1       8.514  -5.342  23.795  0.00  0.00    -0.147 OA
BRANCH  11  14
ATOM     14  O   UNL     1      10.349  -5.509  25.417  0.00  0.00    -0.254 OA
ATOM     15  H   UNL     1      10.899  -4.802  25.017  0.00  0.00    +0.244 HD
ENDBRANCH  11  14
ENDBRANCH  10  11
ENDBRANCH   9  10
ENDBRANCH   1   9
TORSDOF 5
ENDMDL
MODEL 2
REMARK VINA RESULT:      -5.1      0.966      1.680
REMARK  Name = 
REMARK  5 active torsions:
REMARK  status: ('A' for Active; 'I' for Inactive)
REMARK    1  A    between atoms: O_1  and  S_2
REMARK    2  A    between atoms: S_2  and  C_5
REMARK    3  A    between atoms: C_5  and  C_6
REMARK    4  A    between atoms: C_6  and  N_7
REMARK    5  A    between atoms: N_7  and  C_8
REMARK                            x       y       z     vdW  Elec       q    Type
REMARK                         _______ _______ _______ _____ _____    ______ ____
ROOT
ATOM      1  N   UNL     1       9.980  -1.471  23.866  0.00  0.00    -0.312 NA
ATOM      2  H   UNL     1      10.578  -1.336  23.050  0.00  0.00    +0.122 HD
ENDROOT
BRANCH   1   3
ATOM      3  C   UNL     1       8.992  -0.381  23.944  0.00  0.00    +0.054 C 
ATOM      4  C   UNL     1       8.567   0.046  22.523  0.00  0.00    +0.019 C 
ATOM      5  C   UNL     1       9.644   0.820  21.764  0.00  0.00    +0.002 C 
ATOM      6  C   UNL     1      10.190   1.992  22.576  0.00  0.00    +0.000 C 
ATOM      7  C   UNL     1      10.639   1.561  23.967  0.00  0.00    +0.002 C 
ATOM      8  C   UNL     1       9.507   0.851  24.709  0.00  0.00    +0.019 C 
ENDBRANCH   1   3
BRANCH   1   9
ATOM      9  C   UNL     1       9.414  -2.830  23.852  0.00  0.00    +0.106 C 
BRANCH   9  10
ATOM     10  C   UNL     1       9.045  -3.390  25.220  0.00  0.00    +0.213 C 
BRANCH  10  11
ATOM     11  S   UNL     1       8.887  -5.165  25.131  0.00  0.00    +0.081 S 
ATOM     12  O   UNL     1       8.147  -5.663  26.268  0.00  0.00    -0.147 OA
ATOM     13  O   UNL     1       8.588  -5.573  23.779  0.00  0.00    -0.147 OA
BRANCH  11  14
ATOM     14  O   UNL     1      10.435  -5.541  25.395  0.00  0.00    -0.254 OA
ATOM     15  H   UNL     1      10.503  -5.975  26.272  0.00  0.00    +0.244 HD
ENDBRANCH  11  14
ENDBRANCH  10  11
ENDBRANCH   9  10
ENDBRANCH   1   9
TORSDOF 5
ENDMDL
MODEL 3
REMARK VINA RESULT:      -5.0      1.639      2.070
REMARK  Name = 
REMARK  5 active torsions:
REMARK  status: ('A' for Active; 'I' for Inactive)
REMARK    1  A    between atoms: O_1  and  S_2
REMARK    2  A    between atoms: S_2  and  C_5
REMARK    3  A    between atoms: C_5  and  C_6
REMARK    4  A    between atoms: C_6  and  N_7
REMARK    5  A    between atoms: N_7  and  C_8
REMARK                            x       y       z     vdW  Elec       q    Type
REMARK                         _______ _______ _______ _____ _____    ______ ____
ROOT
ATOM      1  N   UNL     1       9.093  -0.691  23.339  0.00  0.00    -0.312 NA
ATOM      2  H   UNL     1       9.245  -1.151  24.237  0.00  0.00    +0.122 HD
ENDROOT
BRANCH   1   3
ATOM      3  C   UNL     1      10.174   0.276  23.086  0.00  0.00    +0.054 C 
ATOM      4  C   UNL     1      10.396   1.155  24.336  0.00  0.00    +0.019 C 
ATOM      5  C   UNL     1       9.283   2.173  24.579  0.00  0.00    +0.002 C 
ATOM      6  C   UNL     1       8.987   3.008  23.336  0.00  0.00    +0.000 C 
ATOM      7  C   UNL     1       8.736   2.137  22.110  0.00  0.00    +0.002 C 
ATOM      8  C   UNL     1       9.906   1.183  21.873  0.00  0.00    +0.019 C 
ENDBRANCH   1   3
BRANCH   1   9
ATOM      9  C   UNL     1       8.897  -1.702  22.286  0.00  0.00    +0.106 C 
BRANCH   9  10
ATOM     10  C   UNL     1       8.034  -2.892  22.686  0.00  0.00    +0.213 C 
BRANCH  10  11
ATOM     11  S   UNL     1       8.688  -3.651  24.163  0.00  0.00    +0.081 S 
ATOM     12  O   UNL     1       8.210  -2.960  25.339  0.00  0.00    -0.147 OA
ATOM     13  O   UNL     1       8.649  -5.089  24.046  0.00  0.00    -0.147 OA
BRANCH  11  14
ATOM     14  O   UNL     1      10.231  -3.214  23.975  0.00  0.00    -0.254 OA
ATOM     15  H   UNL     1      10.366  -2.949  23.040  0.00  0.00    +0.244 HD
ENDBRANCH  11  14
ENDBRANCH  10  11
ENDBRANCH   9  10
ENDBRANCH   1   9
TORSDOF 5
ENDMDL
MODEL 4
REMARK VINA RESULT:      -4.9      2.313      3.372
REMARK  Name = 
REMARK  5 active torsions:
REMARK  status: ('A' for Active; 'I' for Inactive)
REMARK    1  A    between atoms: O_1  and  S_2
REMARK    2  A    between atoms: S_2  and  C_5
REMARK    3  A    between atoms: C_5  and  C_6
REMARK    4  A    between atoms: C_6  and  N_7
REMARK    5  A    between atoms: N_7  and  C_8
REMARK                            x       y       z     vdW  Elec       q    Type
REMARK                         _______ _______ _______ _____ _____    ______ ____
ROOT
ATOM      1  N   UNL     1       8.568   0.208  22.157  0.00  0.00    -0.312 NA
ATOM      2  H   UNL     1       8.648   0.157  23.173  0.00  0.00    +0.122 HD
ENDROOT
BRANCH   1   3
ATOM      3  C   UNL     1       8.884   1.572  21.700  0.00  0.00    +0.054 C 
ATOM      4  C   UNL     1      10.268   1.998  22.235  0.00  0.00    +0.019 C 
ATOM      5  C   UNL     1      10.286   2.291  23.734  0.00  0.00    +0.002 C 
ATOM      6  C   UNL     1       9.188   3.270  24.142  0.00  0.00    +0.000 C 
ATOM      7  C   UNL     1       7.817   2.829  23.641  0.00  0.00    +0.002 C 
ATOM      8  C   UNL     1       7.835   2.614  22.128  0.00  0.00    +0.019 C 
ENDBRANCH   1   3
BRANCH   1   9
ATOM      9  C   UNL     1       9.366  -0.862  21.537  0.00  0.00    +0.106 C 
BRANCH   9  10
ATOM     10  C   UNL     1      10.258  -1.641  22.496  0.00  0.00    +0.213 C 
BRANCH  10  11
ATOM     11  S   UNL     1       9.264  -2.427  23.752  0.00  0.00    +0.081 S 
ATOM     12  O   UNL     1       7.876  -2.457  23.352  0.00  0.00    -0.147 OA
ATOM     13  O   UNL     1       9.941  -3.592  24.270  0.00  0.00    -0.147 OA
BRANCH  11  14
ATOM     14  O   UNL     1       9.386  -1.281  24.884  0.00  0.00    -0.254 OA
ATOM     15  H   UNL     1      10.010  -1.593  25.574  0.00  0.00    +0.244 HD
ENDBRANCH  11  14
ENDBRANCH  10  11
ENDBRANCH   9  10
ENDBRANCH   1   9
TORSDOF 5
ENDMDL
MODEL 5
REMARK VINA RESULT:      -4.8      2.480      3.280
REMARK  Name = 
REMARK  5 active torsions:
REMARK  status: ('A' for Active; 'I' for Inactive)
REMARK    1  A    between atoms: O_1  and  S_2
REMARK    2  A    between atoms: S_2  and  C_5
REMARK    3  A    between atoms: C_5  and  C_6
REMARK    4  A    between atoms: C_6  and  N_7
REMARK    5  A    between atoms: N_7  and  C_8
REMARK                            x       y       z     vdW  Elec       q    Type
REMARK                         _______ _______ _______ _____ _____    ______ ____
ROOT
ATOM      1  N   UNL     1       7.573  -1.750  22.702  0.00  0.00    -0.312 NA
ATOM      2  H   UNL     1       7.381  -0.777  22.946  0.00  0.00    +0.122 HD
ENDROOT
BRANCH   1   3
ATOM      3  C   UNL     1       8.987  -1.897  22.321  0.00  0.00    +0.054 C 
ATOM      4  C   UNL     1       9.869  -1.966  23.586  0.00  0.00    +0.019 C 
ATOM      5  C   UNL     1      10.007  -0.629  24.314  0.00  0.00    +0.002 C 
ATOM      6  C   UNL     1      10.438   0.495  23.375  0.00  0.00    +0.000 C 
ATOM      7  C   UNL     1       9.545   0.581  22.142  0.00  0.00    +0.002 C 
ATOM      8  C   UNL     1       9.493  -0.762  21.414  0.00  0.00    +0.019 C 
ENDBRANCH   1   3
BRANCH   1   9
ATOM      9  C   UNL     1       7.119  -2.637  23.786  0.00  0.00    +0.106 C 
BRANCH   9  10
ATOM     10  C   UNL     1       5.768  -3.301  23.554  0.00  0.00    +0.213 C 
BRANCH  10  11
ATOM     11  S   UNL     1       5.896  -4.501  22.239  0.00  0.00    +0.081 S 
ATOM     12  O   UNL     1       7.261  -4.952  22.099  0.00  0.00    -0.147 OA
ATOM     13  O   UNL     1       4.782  -5.419  22.290  0.00  0.00    -0.147 OA
BRANCH  11  14
ATOM     14  O   UNL     1       5.616  -3.504  21.000  0.00  0.00    -0.254 OA
ATOM     15  H   UNL     1       5.457  -2.604  21.356  0.00  0.00    +0.244 HD
ENDBRANCH  11  14
ENDBRANCH  10  11
ENDBRANCH   9  10
ENDBRANCH   1   9
TORSDOF 5
ENDMDL
MODEL 6
REMARK VINA RESULT:      -4.7      2.021      2.858
REMARK  Name = 
REMARK  5 active torsions:
REMARK  status: ('A' for Active; 'I' for Inactive)
REMARK    1  A    between atoms: O_1  and  S_2
REMARK    2  A    between atoms: S_2  and  C_5
REMARK    3  A    between atoms: C_5  and  C_6
REMARK    4  A    between atoms: C_6  and  N_7
REMARK    5  A    between atoms: N_7  and  C_8
REMARK                            x       y       z     vdW  Elec       q    Type
REMARK                         _______ _______ _______ _____ _____    ______ ____
ROOT
ATOM      1  N   UNL     1       7.757  -0.308  23.104  0.00  0.00    -0.312 NA
ATOM      2  H   UNL     1       7.261  -0.690  22.297  0.00  0.00    +0.122 HD
ENDROOT
BRANCH   1   3
ATOM      3  C   UNL     1       7.653   1.162  23.101  0.00  0.00    +0.054 C 
ATOM      4  C   UNL     1       8.370   1.737  21.861  0.00  0.00    +0.019 C 
ATOM      5  C   UNL     1       9.894   1.655  21.938  0.00  0.00    +0.002 C 
ATOM      6  C   UNL     1      10.436   2.242  23.238  0.00  0.00    +0.000 C 
ATOM      7  C   UNL     1       9.749   1.647  24.462  0.00  0.00    +0.002 C 
ATOM      8  C   UNL     1       8.233   1.814  24.368  0.00  0.00    +0.019 C 
ENDBRANCH   1   3
BRANCH   1   9
ATOM      9  C   UNL     1       7.292  -0.968  24.335  0.00  0.00    +0.106 C 
BRANCH   9  10
ATOM     10  C   UNL     1       8.325  -1.850  25.024  0.00  0.00    +0.213 C 
BRANCH  10  11
ATOM     11  S   UNL     1       9.094  -2.934  23.833  0.00  0.00    +0.081 S 
ATOM     12  O   UNL     1       9.848  -3.967  24.504  0.00  0.00    -0.147 OA
ATOM     13  O   UNL     1       8.176  -3.226  22.757  0.00  0.00    -0.147 OA
BRANCH  11  14
ATOM     14  O   UNL     1      10.175  -1.888  23.245  0.00  0.00    -0.254 OA
ATOM     15  H   UNL     1      11.044  -2.340  23.191  0.00  0.00    +0.244 HD
ENDBRANCH  11  14
ENDBRANCH  10  11
ENDBRANCH   9  10
ENDBRANCH   1   9
TORSDOF 5
ENDMDL
MODEL 7
REMARK VINA RESULT:      -4.7      3.648      5.808
REMARK  Name = 
REMARK  5 active torsions:
REMARK  status: ('A' for Active; 'I' for Inactive)
REMARK    1  A    between atoms: O_1  and  S_2
REMARK    2  A    between atoms: S_2  and  C_5
REMARK    3  A    between atoms: C_5  and  C_6
REMARK    4  A    between atoms: C_6  and  N_7
REMARK    5  A    between atoms: N_7  and  C_8
REMARK                            x       y       z     vdW  Elec       q    Type
REMARK                         _______ _______ _______ _____ _____    ______ ____
ROOT
ATOM      1  N   UNL     1       8.378  -2.929  24.068  0.00  0.00    -0.312 NA
ATOM      2  H   UNL     1       7.674  -2.599  24.730  0.00  0.00    +0.122 HD
ENDROOT
BRANCH   1   3
ATOM      3  C   UNL     1       8.466  -4.398  24.125  0.00  0.00    +0.054 C 
ATOM      4  C   UNL     1       7.072  -4.997  24.411  0.00  0.00    +0.019 C 
ATOM      5  C   UNL     1       6.590  -4.780  25.844  0.00  0.00    +0.002 C 
ATOM      6  C   UNL     1       7.627  -5.224  26.873  0.00  0.00    +0.000 C 
ATOM      7  C   UNL     1       8.995  -4.605  26.607  0.00  0.00    +0.002 C 
ATOM      8  C   UNL     1       9.460  -4.906  25.183  0.00  0.00    +0.019 C 
ENDBRANCH   1   3
BRANCH   1   9
ATOM      9  C   UNL     1       8.112  -2.367  22.733  0.00  0.00    +0.106 C 
BRANCH   9  10
ATOM     10  C   UNL     1       8.172  -0.847  22.648  0.00  0.00    +0.213 C 
BRANCH  10  11
ATOM     11  S   UNL     1       9.871  -0.304  22.623  0.00  0.00    +0.081 S 
ATOM     12  O   UNL     1      10.026   0.826  21.736  0.00  0.00    -0.147 OA
ATOM     13  O   UNL     1      10.420  -0.316  23.958  0.00  0.00    -0.147 OA
BRANCH  11  14
ATOM     14  O   UNL     1      10.501  -1.576  21.853  0.00  0.00    -0.254 OA
ATOM     15  H   UNL     1       9.909  -1.811  21.107  0.00  0.00    +0.244 HD
ENDBRANCH  11  14
ENDBRANCH  10  11
ENDBRANCH   9  10
ENDBRANCH   1   9
TORSDOF 5
ENDMDL
MODEL 8
REMARK VINA RESULT:      -4.7      4.822      5.950
REMARK  Name = 
REMARK  5 active torsions:
REMARK  status: ('A' for Active; 'I' for Inactive)
REMARK    1  A    between atoms: O_1  and  S_2
REMARK    2  A    between atoms: S_2  and  C_5
REMARK    3  A    between atoms: C_5  and  C_6
REMARK    4  A    between atoms: C_6  and  N_7
REMARK    5  A    between atoms: N_7  and  C_8
REMARK                            x       y       z     vdW  Elec       q    Type
REMARK                         _______ _______ _______ _____ _____    ______ ____
ROOT
ATOM      1  N   UNL     1       8.586   0.332  23.595  0.00  0.00    -0.312 NA
ATOM      2  H   UNL     1       8.149  -0.010  24.451  0.00  0.00    +0.122 HD
ENDROOT
BRANCH   1   3
ATOM      3  C   UNL     1       8.514  -0.705  22.551  0.00  0.00    +0.054 C 
ATOM      4  C   UNL     1       7.280  -1.602  22.786  0.00  0.00    +0.019 C 
ATOM      5  C   UNL     1       7.423  -2.545  23.980  0.00  0.00    +0.002 C 
ATOM      6  C   UNL     1       8.717  -3.353  23.924  0.00  0.00    +0.000 C 
ATOM      7  C   UNL     1       9.937  -2.460  23.724  0.00  0.00    +0.002 C 
ATOM      8  C   UNL     1       9.774  -1.586  22.482  0.00  0.00    +0.019 C 
ENDBRANCH   1   3
BRANCH   1   9
ATOM      9  C   UNL     1       8.011   1.636  23.226  0.00  0.00    +0.106 C 
BRANCH   9  10
ATOM     10  C   UNL     1       8.763   2.848  23.762  0.00  0.00    +0.213 C 
BRANCH  10  11
ATOM     11  S   UNL     1      10.499   2.711  23.373  0.00  0.00    +0.081 S 
ATOM     12  O   UNL     1      11.126   4.012  23.398  0.00  0.00    -0.147 OA
ATOM     13  O   UNL     1      11.072   1.567  24.042  0.00  0.00    -0.147 OA
BRANCH  11  14
ATOM     14  O   UNL     1      10.349   2.307  21.817  0.00  0.00    -0.254 OA
ATOM     15  H   UNL     1       9.560   2.763  21.454  0.00  0.00    +0.244 HD
ENDBRANCH  11  14
ENDBRANCH  10  11
ENDBRANCH   9  10
ENDBRANCH   1   9
TORSDOF 5
ENDMDL
MODEL 9
REMARK VINA RESULT:      -4.6      1.489      2.188
REMARK  Name = 
REMARK  5 active torsions:
REMARK  status: ('A' for Active; 'I' for Inactive)
REMARK    1  A    between atoms: O_1  and  S_2
REMARK    2  A    between atoms: S_2  and  C_5
REMARK    3  A    between atoms: C_5  and  C_6
REMARK    4  A    between atoms: C_6  and  N_7
REMARK    5  A    between atoms: N_7  and  C_8
REMARK                            x       y       z     vdW  Elec       q    Type
REMARK                         _______ _______ _______ _____ _____    ______ ____
ROOT
ATOM      1  N   UNL     1       8.632  -2.278  24.096  0.00  0.00    -0.312 NA
ATOM      2  H   UNL     1       9.474  -2.823  24.286  0.00  0.00    +0.122 HD
ENDROOT
BRANCH   1   3
ATOM      3  C   UNL     1       8.928  -1.236  23.098  0.00  0.00    +0.054 C 
ATOM      4  C   UNL     1      10.341  -0.664  23.340  0.00  0.00    +0.019 C 
ATOM      5  C   UNL     1      10.443   0.226  24.578  0.00  0.00    +0.002 C 
ATOM      6  C   UNL     1       9.373   1.314  24.593  0.00  0.00    +0.000 C 
ATOM      7  C   UNL     1       7.975   0.742  24.387  0.00  0.00    +0.002 C 
ATOM      8  C   UNL     1       7.909  -0.083  23.103  0.00  0.00    +0.019 C 
ENDBRANCH   1   3
BRANCH   1   9
ATOM      9  C   UNL     1       7.519  -3.178  23.752  0.00  0.00    +0.106 C 
BRANCH   9  10
ATOM     10  C   UNL     1       7.521  -4.516  24.481  0.00  0.00    +0.213 C 
BRANCH  10  11
ATOM     11  S   UNL     1       8.892  -4.587  25.621  0.00  0.00    +0.081 S 
ATOM     12  O   UNL     1      10.130  -4.803  24.909  0.00  0.00    -0.147 OA
ATOM     13  O   UNL     1       8.754  -3.567  26.634  0.00  0.00    -0.147 OA
BRANCH  11  14
ATOM     14  O   UNL     1       8.523  -5.992  26.328  0.00  0.00    -0.254 OA
ATOM     15  H   UNL     1       8.813  -5.952  27.264  0.00  0.00    +0.244 HD
ENDBRANCH  11  14
ENDBRANCH  10  11
ENDBRANCH   9  10
ENDBRANCH   1   9
TORSDOF 5
ENDMDL
