MODEL 1
REMARK VINA RESULT:      -6.8      0.000      0.000
REMARK  Name = 
REMARK  10 active torsions:
REMARK  status: ('A' for Active; 'I' for Inactive)
REMARK    1  A    between atoms: C_1  and  N_2
REMARK    2  A    between atoms: N_2  and  C_3
REMARK    3  A    between atoms: N_12  and  C_13
REMARK    4  A    between atoms: C_16  and  C_18
REMARK    5  A    between atoms: C_18  and  O_19
REMARK    6  A    between atoms: O_19  and  P_20
REMARK    7  A    between atoms: P_20  and  O_21
REMARK    8  A    between atoms: P_20  and  O_22
REMARK    9  A    between atoms: C_24  and  N_26
REMARK   10  A    between atoms: C_27  and  O_29
REMARK                            x       y       z     vdW  Elec       q    Type
REMARK                         _______ _______ _______ _____ _____    ______ ____
ROOT
ATOM      1  C   UNL     1       7.832  -0.997  22.454  0.00  0.00    +0.252 C 
ATOM      2  C   UNL     1       8.250   0.297  23.157  0.00  0.00    +0.183 C 
ATOM      3  C   UNL     1       9.556  -0.031  23.907  0.00  0.00    +0.115 C 
ATOM      4  C   UNL     1       9.839  -1.502  23.564  0.00  0.00    +0.166 C 
ATOM      5  O   UNL     1       9.026  -1.817  22.421  0.00  0.00    -0.347 OA
ENDROOT
BRANCH   1  12
ATOM      6  C   UNL     1       2.635  -6.031  23.518  0.00  0.00    +0.130 C 
ATOM      7  N   UNL     1       3.356  -4.860  23.972  0.00  0.00    -0.319 N 
ATOM      8  C   UNL     1       4.491  -4.474  23.273  0.00  0.00    +0.152 A 
ATOM      9  C   UNL     1       5.221  -3.275  23.502  0.00  0.00    +0.148 A 
ATOM     10  N   UNL     1       5.057  -2.240  24.401  0.00  0.00    -0.231 NA
ATOM     11  C   UNL     1       6.031  -1.400  24.145  0.00  0.00    +0.203 A 
ATOM     12  N   UNL     1       6.767  -1.787  23.052  0.00  0.00    -0.286 N 
ATOM     13  C   UNL     1       6.316  -3.023  22.686  0.00  0.00    +0.167 A 
ATOM     14  N   UNL     1       6.787  -3.814  21.709  0.00  0.00    -0.216 NA
ATOM     15  C   UNL     1       6.058  -4.936  21.587  0.00  0.00    +0.225 A 
ATOM     16  N   UNL     1       4.960  -5.290  22.281  0.00  0.00    -0.218 NA
ATOM     17  C   UNL     1       2.773  -3.981  24.969  0.00  0.00    +0.130 C 
ENDBRANCH   1  12
BRANCH   3  18
ATOM     18  N   UNL     1      10.639   0.895  23.498  0.00  0.00    -0.323 NA
ATOM     19  H   UNL     1      10.398   1.338  22.610  0.00  0.00    +0.119 HD
ATOM     20  H   UNL     1      10.689   1.665  24.174  0.00  0.00    +0.119 HD
ENDBRANCH   3  18
BRANCH   2  21
ATOM     21  O   UNL     1       8.494   1.323  22.171  0.00  0.00    -0.386 OA
ATOM     22  H   UNL     1       9.443   1.219  21.941  0.00  0.00    +0.210 HD
ENDBRANCH   2  21
BRANCH   4  23
ATOM     23  C   UNL     1       9.523  -2.430  24.748  0.00  0.00    +0.205 C 
BRANCH  23  24
ATOM     24  O   UNL     1       9.844  -3.788  24.438  0.00  0.00    -0.284 OA
BRANCH  24  25
ATOM     25  P   UNL     1       8.835  -4.874  25.328  0.00  0.00    +0.472 P 
ATOM     26  O   UNL     1       7.931  -5.847  26.125  0.00  0.00    -0.228 OA
BRANCH  25  27
ATOM     27  O   UNL     1      10.202  -5.739  25.593  0.00  0.00    -0.303 OA
ATOM     28  H   UNL     1      10.975  -5.150  25.643  0.00  0.00    +0.222 HD
ENDBRANCH  25  27
BRANCH  25  29
ATOM     29  O   UNL     1       8.539  -5.552  23.872  0.00  0.00    -0.303 OA
ATOM     30  H   UNL     1       7.618  -5.338  23.641  0.00  0.00    +0.222 HD
ENDBRANCH  25  29
ENDBRANCH  24  25
ENDBRANCH  23  24
ENDBRANCH   4  23
TORSDOF 8
ENDMDL
MODEL 2
REMARK VINA RESULT:      -6.8      2.988      6.173
REMARK  Name = 
REMARK  10 active torsions:
REMARK  status: ('A' for Active; 'I' for Inactive)
REMARK    1  A    between atoms: C_1  and  N_2
REMARK    2  A    between atoms: N_2  and  C_3
REMARK    3  A    between atoms: N_12  and  C_13
REMARK    4  A    between atoms: C_16  and  C_18
REMARK    5  A    between atoms: C_18  and  O_19
REMARK    6  A    between atoms: O_19  and  P_20
REMARK    7  A    between atoms: P_20  and  O_21
REMARK    8  A    between atoms: P_20  and  O_22
REMARK    9  A    between atoms: C_24  and  N_26
REMARK   10  A    between atoms: C_27  and  O_29
REMARK                            x       y       z     vdW  Elec       q    Type
REMARK                         _______ _______ _______ _____ _____    ______ ____
ROOT
ATOM      1  C   UNL     1       7.712  -4.742  26.246  0.00  0.00    +0.252 C 
ATOM      2  C   UNL     1       6.766  -5.174  27.371  0.00  0.00    +0.183 C 
ATOM      3  C   UNL     1       5.506  -5.725  26.676  0.00  0.00    +0.115 C 
ATOM      4  C   UNL     1       5.810  -5.610  25.174  0.00  0.00    +0.166 C 
ATOM      5  O   UNL     1       7.231  -5.424  25.061  0.00  0.00    -0.347 OA
ENDROOT
BRANCH   1  12
ATOM      6  C   UNL     1      10.098   1.721  23.797  0.00  0.00    +0.130 C 
ATOM      7  N   UNL     1       9.117   0.942  24.523  0.00  0.00    -0.319 N 
ATOM      8  C   UNL     1       9.187  -0.442  24.444  0.00  0.00    +0.152 A 
ATOM      9  C   UNL     1       8.394  -1.343  25.208  0.00  0.00    +0.148 A 
ATOM     10  N   UNL     1       7.406  -1.146  26.151  0.00  0.00    -0.231 NA
ATOM     11  C   UNL     1       7.034  -2.348  26.521  0.00  0.00    +0.203 A 
ATOM     12  N   UNL     1       7.804  -3.324  25.937  0.00  0.00    -0.286 N 
ATOM     13  C   UNL     1       8.618  -2.703  25.033  0.00  0.00    +0.167 A 
ATOM     14  N   UNL     1       9.493  -3.269  24.187  0.00  0.00    -0.216 NA
ATOM     15  C   UNL     1      10.170  -2.346  23.486  0.00  0.00    +0.225 A 
ATOM     16  N   UNL     1      10.083  -1.006  23.577  0.00  0.00    -0.218 NA
ATOM     17  C   UNL     1       8.248   1.579  25.494  0.00  0.00    +0.130 C 
ENDBRANCH   1  12
BRANCH   3  18
ATOM     18  N   UNL     1       5.227  -7.110  27.124  0.00  0.00    -0.323 NA
ATOM     19  H   UNL     1       5.954  -7.738  26.777  0.00  0.00    +0.119 HD
ATOM     20  H   UNL     1       5.306  -7.150  28.146  0.00  0.00    +0.119 HD
ENDBRANCH   3  18
BRANCH   2  21
ATOM     21  O   UNL     1       7.391  -6.215  28.152  0.00  0.00    -0.386 OA
ATOM     22  H   UNL     1       8.338  -5.958  28.188  0.00  0.00    +0.210 HD
ENDBRANCH   2  21
BRANCH   4  23
ATOM     23  C   UNL     1       5.041  -4.448  24.527  0.00  0.00    +0.205 C 
BRANCH  23  24
ATOM     24  O   UNL     1       5.789  -3.867  23.458  0.00  0.00    -0.284 OA
BRANCH  24  25
ATOM     25  P   UNL     1       5.900  -4.960  22.123  0.00  0.00    +0.472 P 
ATOM     26  O   UNL     1       5.999  -5.939  20.927  0.00  0.00    -0.228 OA
BRANCH  25  27
ATOM     27  O   UNL     1       7.514  -4.681  22.181  0.00  0.00    -0.303 OA
ATOM     28  H   UNL     1       7.836  -4.355  21.323  0.00  0.00    +0.222 HD
ENDBRANCH  25  27
BRANCH  25  29
ATOM     29  O   UNL     1       5.579  -3.643  21.212  0.00  0.00    -0.303 OA
ATOM     30  H   UNL     1       6.309  -3.554  20.575  0.00  0.00    +0.222 HD
ENDBRANCH  25  29
ENDBRANCH  24  25
ENDBRANCH  23  24
ENDBRANCH   4  23
TORSDOF 8
ENDMDL
MODEL 3
REMARK VINA RESULT:      -6.5      2.025      5.395
REMARK  Name = 
REMARK  10 active torsions:
REMARK  status: ('A' for Active; 'I' for Inactive)
REMARK    1  A    between atoms: C_1  and  N_2
REMARK    2  A    between atoms: N_2  and  C_3
REMARK    3  A    between atoms: N_12  and  C_13
REMARK    4  A    between atoms: C_16  and  C_18
REMARK    5  A    between atoms: C_18  and  O_19
REMARK    6  A    between atoms: O_19  and  P_20
REMARK    7  A    between atoms: P_20  and  O_21
REMARK    8  A    between atoms: P_20  and  O_22
REMARK    9  A    between atoms: C_24  and  N_26
REMARK   10  A    between atoms: C_27  and  O_29
REMARK                            x       y       z     vdW  Elec       q    Type
REMARK                         _______ _______ _______ _____ _____    ______ ____
ROOT
ATOM      1  C   UNL     1       4.332  -3.770  24.316  0.00  0.00    +0.252 C 
ATOM      2  C   UNL     1       4.686  -4.954  23.411  0.00  0.00    +0.183 C 
ATOM      3  C   UNL     1       5.218  -6.057  24.347  0.00  0.00    +0.115 C 
ATOM      4  C   UNL     1       5.110  -5.455  25.756  0.00  0.00    +0.166 C 
ATOM      5  O   UNL     1       4.225  -4.328  25.649  0.00  0.00    -0.347 OA
ENDROOT
BRANCH   1  12
ATOM      6  C   UNL     1      10.207   0.473  23.339  0.00  0.00    +0.130 C 
ATOM      7  N   UNL     1       8.918   0.242  23.957  0.00  0.00    -0.319 N 
ATOM      8  C   UNL     1       8.160  -0.833  23.515  0.00  0.00    +0.152 A 
ATOM      9  C   UNL     1       6.948  -1.277  24.114  0.00  0.00    +0.148 A 
ATOM     10  N   UNL     1       6.219  -0.819  25.192  0.00  0.00    -0.231 NA
ATOM     11  C   UNL     1       5.188  -1.625  25.283  0.00  0.00    +0.203 A 
ATOM     12  N   UNL     1       5.261  -2.653  24.375  0.00  0.00    -0.286 N 
ATOM     13  C   UNL     1       6.332  -2.395  23.566  0.00  0.00    +0.167 A 
ATOM     14  N   UNL     1       6.746  -3.097  22.500  0.00  0.00    -0.216 NA
ATOM     15  C   UNL     1       7.875  -2.587  21.981  0.00  0.00    +0.225 A 
ATOM     16  N   UNL     1       8.593  -1.539  22.426  0.00  0.00    -0.218 NA
ATOM     17  C   UNL     1       8.543   0.960  25.161  0.00  0.00    +0.130 C 
ENDBRANCH   1  12
BRANCH   3  18
ATOM     18  N   UNL     1       4.443  -7.308  24.172  0.00  0.00    -0.323 NA
ATOM     19  H   UNL     1       3.450  -7.088  24.070  0.00  0.00    +0.119 HD
ATOM     20  H   UNL     1       4.711  -7.743  23.282  0.00  0.00    +0.119 HD
ENDBRANCH   3  18
BRANCH   2  21
ATOM     21  O   UNL     1       3.497  -5.415  22.735  0.00  0.00    -0.386 OA
ATOM     22  H   UNL     1       3.355  -4.761  22.017  0.00  0.00    +0.210 HD
ENDBRANCH   2  21
BRANCH   4  23
ATOM     23  C   UNL     1       6.485  -5.037  26.301  0.00  0.00    +0.205 C 
BRANCH  23  24
ATOM     24  O   UNL     1       7.527  -5.833  25.734  0.00  0.00    -0.284 OA
BRANCH  24  25
ATOM     25  P   UNL     1       8.800  -4.832  25.126  0.00  0.00    +0.472 P 
ATOM     26  O   UNL     1       9.940  -3.936  24.583  0.00  0.00    -0.228 OA
BRANCH  25  27
ATOM     27  O   UNL     1       8.464  -5.495  23.665  0.00  0.00    -0.303 OA
ATOM     28  H   UNL     1       8.544  -6.464  23.703  0.00  0.00    +0.222 HD
ENDBRANCH  25  27
BRANCH  25  29
ATOM     29  O   UNL     1       9.779  -6.053  25.594  0.00  0.00    -0.303 OA
ATOM     30  H   UNL     1       9.829  -6.678  24.851  0.00  0.00    +0.222 HD
ENDBRANCH  25  29
ENDBRANCH  24  25
ENDBRANCH  23  24
ENDBRANCH   4  23
TORSDOF 8
ENDMDL
MODEL 4
REMARK VINA RESULT:      -6.5      2.129      5.697
REMARK  Name = 
REMARK  10 active torsions:
REMARK  status: ('A' for Active; 'I' for Inactive)
REMARK    1  A    between atoms: C_1  and  N_2
REMARK    2  A    between atoms: N_2  and  C_3
REMARK    3  A    between atoms: N_12  and  C_13
REMARK    4  A    between atoms: C_16  and  C_18
REMARK    5  A    between atoms: C_18  and  O_19
REMARK    6  A    between atoms: O_19  and  P_20
REMARK    7  A    between atoms: P_20  and  O_21
REMARK    8  A    between atoms: P_20  and  O_22
REMARK    9  A    between atoms: C_24  and  N_26
REMARK   10  A    between atoms: C_27  and  O_29
REMARK                            x       y       z     vdW  Elec       q    Type
REMARK                         _______ _______ _______ _____ _____    ______ ____
ROOT
ATOM      1  C   UNL     1       4.910  -4.036  23.216  0.00  0.00    +0.252 C 
ATOM      2  C   UNL     1       5.174  -5.509  22.888  0.00  0.00    +0.183 C 
ATOM      3  C   UNL     1       5.367  -6.217  24.243  0.00  0.00    +0.115 C 
ATOM      4  C   UNL     1       5.170  -5.110  25.290  0.00  0.00    +0.166 C 
ATOM      5  O   UNL     1       4.521  -4.021  24.612  0.00  0.00    -0.347 OA
ENDROOT
BRANCH   1  12
ATOM      6  C   UNL     1       8.923   2.077  23.305  0.00  0.00    +0.130 C 
ATOM      7  N   UNL     1       8.769   0.685  22.935  0.00  0.00    -0.319 N 
ATOM      8  C   UNL     1       7.685  -0.015  23.447  0.00  0.00    +0.152 A 
ATOM      9  C   UNL     1       7.316  -1.336  23.067  0.00  0.00    +0.148 A 
ATOM     10  N   UNL     1       7.866  -2.239  22.181  0.00  0.00    -0.231 NA
ATOM     11  C   UNL     1       7.095  -3.299  22.241  0.00  0.00    +0.203 A 
ATOM     12  N   UNL     1       6.004  -3.093  23.050  0.00  0.00    -0.286 N 
ATOM     13  C   UNL     1       6.178  -1.878  23.651  0.00  0.00    +0.167 A 
ATOM     14  N   UNL     1       5.393  -1.294  24.570  0.00  0.00    -0.216 NA
ATOM     15  C   UNL     1       5.836  -0.068  24.892  0.00  0.00    +0.225 A 
ATOM     16  N   UNL     1       6.894   0.591  24.384  0.00  0.00    -0.218 NA
ATOM     17  C   UNL     1       9.578   0.115  21.875  0.00  0.00    +0.130 C 
ENDBRANCH   1  12
BRANCH   3  18
ATOM     18  N   UNL     1       4.416  -7.345  24.381  0.00  0.00    -0.323 NA
ATOM     19  H   UNL     1       4.721  -7.965  25.134  0.00  0.00    +0.119 HD
ATOM     20  H   UNL     1       3.509  -6.978  24.691  0.00  0.00    +0.119 HD
ENDBRANCH   3  18
BRANCH   2  21
ATOM     21  O   UNL     1       4.029  -6.061  22.203  0.00  0.00    -0.386 OA
ATOM     22  H   UNL     1       3.754  -6.820  22.762  0.00  0.00    +0.210 HD
ENDBRANCH   2  21
BRANCH   4  23
ATOM     23  C   UNL     1       6.507  -4.668  25.906  0.00  0.00    +0.205 C 
BRANCH  23  24
ATOM     24  O   UNL     1       7.559  -5.566  25.550  0.00  0.00    -0.284 OA
BRANCH  24  25
ATOM     25  P   UNL     1       8.950  -4.694  25.004  0.00  0.00    +0.472 P 
ATOM     26  O   UNL     1      10.194  -3.913  24.515  0.00  0.00    -0.228 OA
BRANCH  25  27
ATOM     27  O   UNL     1       9.498  -6.141  24.464  0.00  0.00    -0.303 OA
ATOM     28  H   UNL     1       8.756  -6.749  24.301  0.00  0.00    +0.222 HD
ENDBRANCH  25  27
BRANCH  25  29
ATOM     29  O   UNL     1       9.498  -4.914  26.527  0.00  0.00    -0.303 OA
ATOM     30  H   UNL     1      10.119  -5.662  26.499  0.00  0.00    +0.222 HD
ENDBRANCH  25  29
ENDBRANCH  24  25
ENDBRANCH  23  24
ENDBRANCH   4  23
TORSDOF 8
ENDMDL
MODEL 5
REMARK VINA RESULT:      -6.4      3.080      6.116
REMARK  Name = 
REMARK  10 active torsions:
REMARK  status: ('A' for Active; 'I' for Inactive)
REMARK    1  A    between atoms: C_1  and  N_2
REMARK    2  A    between atoms: N_2  and  C_3
REMARK    3  A    between atoms: N_12  and  C_13
REMARK    4  A    between atoms: C_16  and  C_18
REMARK    5  A    between atoms: C_18  and  O_19
REMARK    6  A    between atoms: O_19  and  P_20
REMARK    7  A    between atoms: P_20  and  O_21
REMARK    8  A    between atoms: P_20  and  O_22
REMARK    9  A    between atoms: C_24  and  N_26
REMARK   10  A    between atoms: C_27  and  O_29
REMARK                            x       y       z     vdW  Elec       q    Type
REMARK                         _______ _______ _______ _____ _____    ______ ____
ROOT
ATOM      1  C   UNL     1       9.437  -3.846  24.929  0.00  0.00    +0.252 C 
ATOM      2  C   UNL     1       8.705  -4.010  26.265  0.00  0.00    +0.183 C 
ATOM      3  C   UNL     1       7.326  -4.606  25.921  0.00  0.00    +0.115 C 
ATOM      4  C   UNL     1       7.351  -4.785  24.395  0.00  0.00    +0.166 C 
ATOM      5  O   UNL     1       8.730  -4.703  23.999  0.00  0.00    -0.347 OA
ENDROOT
BRANCH   1  12
ATOM      6  C   UNL     1       8.194   3.222  23.523  0.00  0.00    +0.130 C 
ATOM      7  N   UNL     1       8.866   1.981  23.201  0.00  0.00    -0.319 N 
ATOM      8  C   UNL     1       8.771   0.928  24.100  0.00  0.00    +0.152 A 
ATOM      9  C   UNL     1       9.248  -0.391  23.865  0.00  0.00    +0.148 A 
ATOM     10  N   UNL     1       9.898  -0.970  22.794  0.00  0.00    -0.231 NA
ATOM     11  C   UNL     1      10.088  -2.222  23.138  0.00  0.00    +0.203 A 
ATOM     12  N   UNL     1       9.502  -2.515  24.345  0.00  0.00    -0.286 N 
ATOM     13  C   UNL     1       9.038  -1.338  24.860  0.00  0.00    +0.167 A 
ATOM     14  N   UNL     1       8.452  -1.134  26.050  0.00  0.00    -0.216 NA
ATOM     15  C   UNL     1       8.065   0.143  26.197  0.00  0.00    +0.225 A 
ATOM     16  N   UNL     1       8.171   1.150  25.310  0.00  0.00    -0.218 NA
ATOM     17  C   UNL     1       9.412   1.766  21.874  0.00  0.00    +0.130 C 
ENDBRANCH   1  12
BRANCH   3  18
ATOM     18  N   UNL     1       7.104  -5.869  26.665  0.00  0.00    -0.323 NA
ATOM     19  H   UNL     1       6.431  -5.713  27.417  0.00  0.00    +0.119 HD
ATOM     20  H   UNL     1       6.653  -6.547  26.041  0.00  0.00    +0.119 HD
ENDBRANCH   3  18
BRANCH   2  21
ATOM     21  O   UNL     1       9.440  -4.925  27.106  0.00  0.00    -0.386 OA
ATOM     22  H   UNL     1       9.688  -4.390  27.890  0.00  0.00    +0.210 HD
ENDBRANCH   2  21
BRANCH   4  23
ATOM     23  C   UNL     1       6.501  -3.719  23.686  0.00  0.00    +0.205 C 
BRANCH  23  24
ATOM     24  O   UNL     1       5.598  -4.316  22.754  0.00  0.00    -0.284 OA
BRANCH  24  25
ATOM     25  P   UNL     1       5.018  -5.834  23.349  0.00  0.00    +0.472 P 
ATOM     26  O   UNL     1       4.499  -7.191  23.883  0.00  0.00    -0.228 OA
BRANCH  25  27
ATOM     27  O   UNL     1       5.445  -6.436  21.886  0.00  0.00    -0.303 OA
ATOM     28  H   UNL     1       4.658  -6.718  21.389  0.00  0.00    +0.222 HD
ENDBRANCH  25  27
BRANCH  25  29
ATOM     29  O   UNL     1       3.559  -5.302  22.844  0.00  0.00    -0.303 OA
ATOM     30  H   UNL     1       3.128  -6.046  22.389  0.00  0.00    +0.222 HD
ENDBRANCH  25  29
ENDBRANCH  24  25
ENDBRANCH  23  24
ENDBRANCH   4  23
TORSDOF 8
ENDMDL
MODEL 6
REMARK VINA RESULT:      -6.4      2.387      5.818
REMARK  Name = 
REMARK  10 active torsions:
REMARK  status: ('A' for Active; 'I' for Inactive)
REMARK    1  A    between atoms: C_1  and  N_2
REMARK    2  A    between atoms: N_2  and  C_3
REMARK    3  A    between atoms: N_12  and  C_13
REMARK    4  A    between atoms: C_16  and  C_18
REMARK    5  A    between atoms: C_18  and  O_19
REMARK    6  A    between atoms: O_19  and  P_20
REMARK    7  A    between atoms: P_20  and  O_21
REMARK    8  A    between atoms: P_20  and  O_22
REMARK    9  A    between atoms: C_24  and  N_26
REMARK   10  A    between atoms: C_27  and  O_29
REMARK                            x       y       z     vdW  Elec       q    Type
REMARK                         _______ _______ _______ _____ _____    ______ ____
ROOT
ATOM      1  C   UNL     1       6.671  -3.383  22.269  0.00  0.00    +0.252 C 
ATOM      2  C   UNL     1       7.015  -4.875  22.287  0.00  0.00    +0.183 C 
ATOM      3  C   UNL     1       6.168  -5.491  23.418  0.00  0.00    +0.115 C 
ATOM      4  C   UNL     1       5.349  -4.315  23.972  0.00  0.00    +0.166 C 
ATOM      5  O   UNL     1       5.416  -3.272  22.985  0.00  0.00    -0.347 OA
ENDROOT
BRANCH   1  12
ATOM      6  C   UNL     1      10.197   2.736  24.165  0.00  0.00    +0.130 C 
ATOM      7  N   UNL     1      10.081   1.293  24.207  0.00  0.00    -0.319 N 
ATOM      8  C   UNL     1       8.923   0.712  23.712  0.00  0.00    +0.152 A 
ATOM      9  C   UNL     1       8.717  -0.687  23.550  0.00  0.00    +0.148 A 
ATOM     10  N   UNL     1       9.511  -1.783  23.820  0.00  0.00    -0.231 NA
ATOM     11  C   UNL     1       8.799  -2.825  23.463  0.00  0.00    +0.203 A 
ATOM     12  N   UNL     1       7.613  -2.456  22.876  0.00  0.00    -0.286 N 
ATOM     13  C   UNL     1       7.509  -1.100  23.004  0.00  0.00    +0.167 A 
ATOM     14  N   UNL     1       6.486  -0.314  22.632  0.00  0.00    -0.216 NA
ATOM     15  C   UNL     1       6.755   0.983  22.851  0.00  0.00    +0.225 A 
ATOM     16  N   UNL     1       7.888   1.525  23.338  0.00  0.00    -0.218 NA
ATOM     17  C   UNL     1      11.234   0.475  24.529  0.00  0.00    +0.130 C 
ENDBRANCH   1  12
BRANCH   3  18
ATOM     18  N   UNL     1       5.337  -6.604  22.899  0.00  0.00    -0.323 NA
ATOM     19  H   UNL     1       4.354  -6.432  23.116  0.00  0.00    +0.119 HD
ATOM     20  H   UNL     1       5.386  -6.604  21.874  0.00  0.00    +0.119 HD
ENDBRANCH   3  18
BRANCH   2  21
ATOM     21  O   UNL     1       6.653  -5.468  21.022  0.00  0.00    -0.386 OA
ATOM     22  H   UNL     1       6.895  -6.415  21.118  0.00  0.00    +0.210 HD
ENDBRANCH   2  21
BRANCH   4  23
ATOM     23  C   UNL     1       5.890  -3.837  25.328  0.00  0.00    +0.205 C 
BRANCH  23  24
ATOM     24  O   UNL     1       6.912  -4.711  25.812  0.00  0.00    -0.284 OA
BRANCH  24  25
ATOM     25  P   UNL     1       6.604  -5.165  27.452  0.00  0.00    +0.472 P 
ATOM     26  O   UNL     1       6.328  -5.571  28.920  0.00  0.00    -0.228 OA
BRANCH  25  27
ATOM     27  O   UNL     1       8.108  -5.815  27.430  0.00  0.00    -0.303 OA
ATOM     28  H   UNL     1       8.476  -5.795  26.530  0.00  0.00    +0.222 HD
ENDBRANCH  25  27
BRANCH  25  29
ATOM     29  O   UNL     1       5.890  -6.479  26.796  0.00  0.00    -0.303 OA
ATOM     30  H   UNL     1       6.590  -7.138  26.649  0.00  0.00    +0.222 HD
ENDBRANCH  25  29
ENDBRANCH  24  25
ENDBRANCH  23  24
ENDBRANCH   4  23
TORSDOF 8
ENDMDL
MODEL 7
REMARK VINA RESULT:      -6.3      3.006      6.135
REMARK  Name = 
REMARK  10 active torsions:
REMARK  status: ('A' for Active; 'I' for Inactive)
REMARK    1  A    between atoms: C_1  and  N_2
REMARK    2  A    between atoms: N_2  and  C_3
REMARK    3  A    between atoms: N_12  and  C_13
REMARK    4  A    between atoms: C_16  and  C_18
REMARK    5  A    between atoms: C_18  and  O_19
REMARK    6  A    between atoms: O_19  and  P_20
REMARK    7  A    between atoms: P_20  and  O_21
REMARK    8  A    between atoms: P_20  and  O_22
REMARK    9  A    between atoms: C_24  and  N_26
REMARK   10  A    between atoms: C_27  and  O_29
REMARK                            x       y       z     vdW  Elec       q    Type
REMARK                         _______ _______ _______ _____ _____    ______ ____
ROOT
ATOM      1  C   UNL     1       4.724  -4.365  23.558  0.00  0.00    +0.252 C 
ATOM      2  C   UNL     1       4.749  -5.823  23.088  0.00  0.00    +0.183 C 
ATOM      3  C   UNL     1       4.960  -6.673  24.357  0.00  0.00    +0.115 C 
ATOM      4  C   UNL     1       5.012  -5.651  25.503  0.00  0.00    +0.166 C 
ATOM      5  O   UNL     1       4.465  -4.428  24.983  0.00  0.00    -0.347 OA
ENDROOT
BRANCH   1  12
ATOM      6  C   UNL     1       9.351   1.286  23.199  0.00  0.00    +0.130 C 
ATOM      7  N   UNL     1       9.072  -0.120  22.990  0.00  0.00    -0.319 N 
ATOM      8  C   UNL     1       7.892  -0.640  23.502  0.00  0.00    +0.152 A 
ATOM      9  C   UNL     1       7.407  -1.955  23.259  0.00  0.00    +0.148 A 
ATOM     10  N   UNL     1       7.910  -3.014  22.531  0.00  0.00    -0.231 NA
ATOM     11  C   UNL     1       7.029  -3.976  22.662  0.00  0.00    +0.203 A 
ATOM     12  N   UNL     1       5.920  -3.562  23.359  0.00  0.00    -0.286 N 
ATOM     13  C   UNL     1       6.185  -2.304  23.820  0.00  0.00    +0.167 A 
ATOM     14  N   UNL     1       5.413  -1.534  24.602  0.00  0.00    -0.216 NA
ATOM     15  C   UNL     1       5.964  -0.326  24.805  0.00  0.00    +0.225 A 
ATOM     16  N   UNL     1       7.115   0.156  24.299  0.00  0.00    -0.218 NA
ATOM     17  C   UNL     1       9.878  -0.897  22.068  0.00  0.00    +0.130 C 
ENDBRANCH   1  12
BRANCH   3  18
ATOM     18  N   UNL     1       3.876  -7.674  24.499  0.00  0.00    -0.323 NA
ATOM     19  H   UNL     1       3.876  -8.050  25.449  0.00  0.00    +0.119 HD
ATOM     20  H   UNL     1       2.972  -7.199  24.402  0.00  0.00    +0.119 HD
ENDBRANCH   3  18
BRANCH   2  21
ATOM     21  O   UNL     1       3.482  -6.154  22.480  0.00  0.00    -0.386 OA
ATOM     22  H   UNL     1       3.648  -6.082  21.516  0.00  0.00    +0.210 HD
ENDBRANCH   2  21
BRANCH   4  23
ATOM     23  C   UNL     1       6.447  -5.447  26.015  0.00  0.00    +0.205 C 
BRANCH  23  24
ATOM     24  O   UNL     1       6.679  -6.199  27.208  0.00  0.00    -0.284 OA
BRANCH  24  25
ATOM     25  P   UNL     1       5.326  -6.082  28.279  0.00  0.00    +0.472 P 
ATOM     26  O   UNL     1       4.114  -5.978  29.237  0.00  0.00    -0.228 OA
BRANCH  25  27
ATOM     27  O   UNL     1       6.420  -5.664  29.425  0.00  0.00    -0.303 OA
ATOM     28  H   UNL     1       7.067  -5.032  29.066  0.00  0.00    +0.222 HD
ENDBRANCH  25  27
BRANCH  25  29
ATOM     29  O   UNL     1       5.541  -7.689  28.482  0.00  0.00    -0.303 OA
ATOM     30  H   UNL     1       6.308  -7.800  29.070  0.00  0.00    +0.222 HD
ENDBRANCH  25  29
ENDBRANCH  24  25
ENDBRANCH  23  24
ENDBRANCH   4  23
TORSDOF 8
ENDMDL
MODEL 8
REMARK VINA RESULT:      -6.3      3.196      6.289
REMARK  Name = 
REMARK  10 active torsions:
REMARK  status: ('A' for Active; 'I' for Inactive)
REMARK    1  A    between atoms: C_1  and  N_2
REMARK    2  A    between atoms: N_2  and  C_3
REMARK    3  A    between atoms: N_12  and  C_13
REMARK    4  A    between atoms: C_16  and  C_18
REMARK    5  A    between atoms: C_18  and  O_19
REMARK    6  A    between atoms: O_19  and  P_20
REMARK    7  A    between atoms: P_20  and  O_21
REMARK    8  A    between atoms: P_20  and  O_22
REMARK    9  A    between atoms: C_24  and  N_26
REMARK   10  A    between atoms: C_27  and  O_29
REMARK                            x       y       z     vdW  Elec       q    Type
REMARK                         _______ _______ _______ _____ _____    ______ ____
ROOT
ATOM      1  C   UNL     1       8.081  -4.200  25.622  0.00  0.00    +0.252 C 
ATOM      2  C   UNL     1       7.282  -4.652  26.848  0.00  0.00    +0.183 C 
ATOM      3  C   UNL     1       5.939  -5.180  26.307  0.00  0.00    +0.115 C 
ATOM      4  C   UNL     1       6.052  -5.033  24.782  0.00  0.00    +0.166 C 
ATOM      5  O   UNL     1       7.448  -4.852  24.493  0.00  0.00    -0.347 OA
ENDROOT
BRANCH   1  12
ATOM      6  C   UNL     1      10.237   2.317  23.101  0.00  0.00    +0.130 C 
ATOM      7  N   UNL     1       9.326   1.521  23.897  0.00  0.00    -0.319 N 
ATOM      8  C   UNL     1       9.388   0.139  23.783  0.00  0.00    +0.152 A 
ATOM      9  C   UNL     1       8.667  -0.779  24.597  0.00  0.00    +0.148 A 
ATOM     10  N   UNL     1       7.769  -0.603  25.629  0.00  0.00    -0.231 NA
ATOM     11  C   UNL     1       7.431  -1.814  26.007  0.00  0.00    +0.203 A 
ATOM     12  N   UNL     1       8.145  -2.776  25.336  0.00  0.00    -0.286 N 
ATOM     13  C   UNL     1       8.873  -2.135  24.374  0.00  0.00    +0.167 A 
ATOM     14  N   UNL     1       9.668  -2.682  23.441  0.00  0.00    -0.216 NA
ATOM     15  C   UNL     1      10.279  -1.743  22.701  0.00  0.00    +0.225 A 
ATOM     16  N   UNL     1      10.201  -0.405  22.828  0.00  0.00    -0.218 NA
ATOM     17  C   UNL     1       8.548   2.136  24.955  0.00  0.00    +0.130 C 
ENDBRANCH   1  12
BRANCH   3  18
ATOM     18  N   UNL     1       5.708  -6.574  26.756  0.00  0.00    -0.323 NA
ATOM     19  H   UNL     1       5.757  -7.207  25.956  0.00  0.00    +0.119 HD
ATOM     20  H   UNL     1       6.481  -6.858  27.367  0.00  0.00    +0.119 HD
ENDBRANCH   3  18
BRANCH   2  21
ATOM     21  O   UNL     1       7.992  -5.714  27.521  0.00  0.00    -0.386 OA
ATOM     22  H   UNL     1       8.111  -6.403  26.831  0.00  0.00    +0.210 HD
ENDBRANCH   2  21
BRANCH   4  23
ATOM     23  C   UNL     1       5.216  -3.852  24.263  0.00  0.00    +0.205 C 
BRANCH  23  24
ATOM     24  O   UNL     1       4.342  -4.262  23.210  0.00  0.00    -0.284 OA
BRANCH  24  25
ATOM     25  P   UNL     1       3.641  -5.804  23.562  0.00  0.00    +0.472 P 
ATOM     26  O   UNL     1       3.013  -7.184  23.878  0.00  0.00    -0.228 OA
BRANCH  25  27
ATOM     27  O   UNL     1       4.292  -6.293  22.140  0.00  0.00    -0.303 OA
ATOM     28  H   UNL     1       5.038  -5.720  21.890  0.00  0.00    +0.222 HD
ENDBRANCH  25  27
BRANCH  25  29
ATOM     29  O   UNL     1       2.297  -5.180  22.876  0.00  0.00    -0.303 OA
ATOM     30  H   UNL     1       2.159  -4.301  23.269  0.00  0.00    +0.222 HD
ENDBRANCH  25  29
ENDBRANCH  24  25
ENDBRANCH  23  24
ENDBRANCH   4  23
TORSDOF 8
ENDMDL
MODEL 9
REMARK VINA RESULT:      -6.3      2.689      5.521
REMARK  Name = 
REMARK  10 active torsions:
REMARK  status: ('A' for Active; 'I' for Inactive)
REMARK    1  A    between atoms: C_1  and  N_2
REMARK    2  A    between atoms: N_2  and  C_3
REMARK    3  A    between atoms: N_12  and  C_13
REMARK    4  A    between atoms: C_16  and  C_18
REMARK    5  A    between atoms: C_18  and  O_19
REMARK    6  A    between atoms: O_19  and  P_20
REMARK    7  A    between atoms: P_20  and  O_21
REMARK    8  A    between atoms: P_20  and  O_22
REMARK    9  A    between atoms: C_24  and  N_26
REMARK   10  A    between atoms: C_27  and  O_29
REMARK                            x       y       z     vdW  Elec       q    Type
REMARK                         _______ _______ _______ _____ _____    ______ ____
ROOT
ATOM      1  C   UNL     1       5.963  -2.615  22.907  0.00  0.00    +0.252 C 
ATOM      2  C   UNL     1       6.766  -3.617  22.072  0.00  0.00    +0.183 C 
ATOM      3  C   UNL     1       7.294  -4.670  23.065  0.00  0.00    +0.115 C 
ATOM      4  C   UNL     1       6.734  -4.231  24.428  0.00  0.00    +0.166 C 
ATOM      5  O   UNL     1       5.674  -3.301  24.151  0.00  0.00    -0.347 OA
ENDROOT
BRANCH   1  12
ATOM      6  C   UNL     1      10.839   2.793  23.570  0.00  0.00    +0.130 C 
ATOM      7  N   UNL     1       9.523   2.254  23.842  0.00  0.00    -0.319 N 
ATOM      8  C   UNL     1       9.141   1.092  23.186  0.00  0.00    +0.152 A 
ATOM      9  C   UNL     1       7.949   0.362  23.450  0.00  0.00    +0.148 A 
ATOM     10  N   UNL     1       6.906   0.566  24.331  0.00  0.00    -0.231 NA
ATOM     11  C   UNL     1       6.083  -0.436  24.134  0.00  0.00    +0.203 A 
ATOM     12  N   UNL     1       6.588  -1.344  23.235  0.00  0.00    -0.286 N 
ATOM     13  C   UNL     1       7.736  -0.805  22.727  0.00  0.00    +0.167 A 
ATOM     14  N   UNL     1       8.530  -1.312  21.771  0.00  0.00    -0.216 NA
ATOM     15  C   UNL     1       9.611  -0.541  21.567  0.00  0.00    +0.225 A 
ATOM     16  N   UNL     1       9.959   0.587  22.213  0.00  0.00    -0.218 NA
ATOM     17  C   UNL     1       8.731   2.772  24.941  0.00  0.00    +0.130 C 
ENDBRANCH   1  12
BRANCH   3  18
ATOM     18  N   UNL     1       6.871  -6.031  22.658  0.00  0.00    -0.323 NA
ATOM     19  H   UNL     1       7.178  -6.712  23.353  0.00  0.00    +0.119 HD
ATOM     20  H   UNL     1       5.846  -6.078  22.674  0.00  0.00    +0.119 HD
ENDBRANCH   3  18
BRANCH   2  21
ATOM     21  O   UNL     1       5.895  -4.246  21.107  0.00  0.00    -0.386 OA
ATOM     22  H   UNL     1       6.490  -4.821  20.579  0.00  0.00    +0.210 HD
ENDBRANCH   2  21
BRANCH   4  23
ATOM     23  C   UNL     1       7.821  -3.595  25.308  0.00  0.00    +0.205 C 
BRANCH  23  24
ATOM     24  O   UNL     1       7.563  -3.828  26.694  0.00  0.00    -0.284 OA
BRANCH  24  25
ATOM     25  P   UNL     1       6.691  -5.306  26.914  0.00  0.00    +0.472 P 
ATOM     26  O   UNL     1       5.912  -6.629  27.111  0.00  0.00    -0.228 OA
BRANCH  25  27
ATOM     27  O   UNL     1       6.268  -4.701  28.378  0.00  0.00    -0.303 OA
ATOM     28  H   UNL     1       5.766  -5.359  28.888  0.00  0.00    +0.222 HD
ENDBRANCH  25  27
BRANCH  25  29
ATOM     29  O   UNL     1       8.123  -5.897  27.433  0.00  0.00    -0.303 OA
ATOM     30  H   UNL     1       7.970  -6.278  28.315  0.00  0.00    +0.222 HD
ENDBRANCH  25  29
ENDBRANCH  24  25
ENDBRANCH  23  24
ENDBRANCH   4  23
TORSDOF 8
ENDMDL
