MODEL 1
REMARK VINA RESULT:      -4.0      0.000      0.000
REMARK  Name = 
REMARK  7 active torsions:
REMARK  status: ('A' for Active; 'I' for Inactive)
REMARK    1  A    between atoms: C_1  and  C_2
REMARK    2  A    between atoms: C_2  and  C_4
REMARK    3  A    between atoms: C_2  and  C_6
REMARK    4  A    between atoms: C_6  and  C_7
REMARK    5  A    between atoms: C_7  and  N_9
REMARK    6  A    between atoms: C_7  and  C_10
REMARK    7  A    between atoms: C_10  and  O_11
REMARK                            x       y       z     vdW  Elec       q    Type
REMARK                         _______ _______ _______ _____ _____    ______ ____
ROOT
ATOM      1  C   UNK     1       9.018  -4.642  26.394  0.00  0.00    +0.161 C 
ENDROOT
BRANCH   1   2
ATOM      2  N   UNK     1       9.935  -5.531  25.626  0.00  0.00    -0.318 NA
ATOM      3  H   UNK     1      10.788  -5.002  25.416  0.00  0.00    +0.119 HD
ATOM      4  H   UNK     1      10.261  -6.269  26.261  0.00  0.00    +0.119 HD
ENDBRANCH   1   2
BRANCH   1   5
ATOM      5  C   UNK     1       7.693  -5.391  26.609  0.00  0.00    +0.322 C 
ATOM      6  O   UNK     1       6.782  -5.456  25.801  0.00  0.00    -0.249 OA
BRANCH   5   7
ATOM      7  O   UNK     1       7.676  -6.020  27.816  0.00  0.00    -0.480 OA
ATOM      8  H   UNK     1       8.613  -6.265  28.017  0.00  0.00    +0.295 HD
ENDBRANCH   5   7
ENDBRANCH   1   5
BRANCH   1   9
ATOM      9  C   UNK     1       8.708  -3.346  25.631  0.00  0.00    +0.035 C 
BRANCH   9  11
ATOM     10  C   UNK     1       9.870  -1.934  23.855  0.00  0.00    +0.010 C 
ATOM     11  C   UNK     1       9.205  -3.274  24.174  0.00  0.00    +0.019 C 
BRANCH  11  12
ATOM     12  C   UNK     1       8.033  -3.509  23.222  0.00  0.00    +0.216 C 
ATOM     13  F   UNK     1       7.916  -4.842  22.978  0.00  0.00    -0.249 F 
ENDBRANCH  11  12
ENDBRANCH   9  11
ENDBRANCH   1   9
TORSDOF 6
ENDMDL
MODEL 2
REMARK VINA RESULT:      -4.0      1.353      1.748
REMARK  Name = 
REMARK  7 active torsions:
REMARK  status: ('A' for Active; 'I' for Inactive)
REMARK    1  A    between atoms: C_1  and  C_2
REMARK    2  A    between atoms: C_2  and  C_4
REMARK    3  A    between atoms: C_2  and  C_6
REMARK    4  A    between atoms: C_6  and  C_7
REMARK    5  A    between atoms: C_7  and  N_9
REMARK    6  A    between atoms: C_7  and  C_10
REMARK    7  A    between atoms: C_10  and  O_11
REMARK                            x       y       z     vdW  Elec       q    Type
REMARK                         _______ _______ _______ _____ _____    ______ ____
ROOT
ATOM      1  C   UNK     1       8.892  -4.707  25.432  0.00  0.00    +0.161 C 
ENDROOT
BRANCH   1   2
ATOM      2  N   UNK     1      10.018  -5.680  25.350  0.00  0.00    -0.318 NA
ATOM      3  H   UNK     1       9.622  -6.613  25.196  0.00  0.00    +0.119 HD
ATOM      4  H   UNK     1      10.531  -5.491  24.480  0.00  0.00    +0.119 HD
ENDBRANCH   1   2
BRANCH   1   5
ATOM      5  C   UNK     1       7.728  -5.383  26.174  0.00  0.00    +0.322 C 
ATOM      6  O   UNK     1       6.612  -5.562  25.717  0.00  0.00    -0.249 OA
BRANCH   5   7
ATOM      7  O   UNK     1       8.112  -5.802  27.410  0.00  0.00    -0.480 OA
ATOM      8  H   UNK     1       9.066  -5.559  27.504  0.00  0.00    +0.295 HD
ENDBRANCH   5   7
ENDBRANCH   1   5
BRANCH   1   9
ATOM      9  C   UNK     1       8.389  -4.298  24.040  0.00  0.00    +0.035 C 
BRANCH   9  11
ATOM     10  C   UNK     1       7.878  -2.477  22.330  0.00  0.00    +0.010 C 
ATOM     11  C   UNK     1       8.240  -2.785  23.784  0.00  0.00    +0.019 C 
BRANCH  11  12
ATOM     12  C   UNK     1       9.540  -2.073  24.156  0.00  0.00    +0.216 C 
ATOM     13  F   UNK     1      10.563  -2.605  23.435  0.00  0.00    -0.249 F 
ENDBRANCH  11  12
ENDBRANCH   9  11
ENDBRANCH   1   9
TORSDOF 6
ENDMDL
MODEL 3
REMARK VINA RESULT:      -3.9      4.361      5.476
REMARK  Name = 
REMARK  7 active torsions:
REMARK  status: ('A' for Active; 'I' for Inactive)
REMARK    1  A    between atoms: C_1  and  C_2
REMARK    2  A    between atoms: C_2  and  C_4
REMARK    3  A    between atoms: C_2  and  C_6
REMARK    4  A    between atoms: C_6  and  C_7
REMARK    5  A    between atoms: C_7  and  N_9
REMARK    6  A    between atoms: C_7  and  C_10
REMARK    7  A    between atoms: C_10  and  O_11
REMARK                            x       y       z     vdW  Elec       q    Type
REMARK                         _______ _______ _______ _____ _____    ______ ____
ROOT
ATOM      1  C   UNK     1       9.518  -0.590  23.759  0.00  0.00    +0.161 C 
ENDROOT
BRANCH   1   2
ATOM      2  N   UNK     1       9.213  -0.825  25.199  0.00  0.00    -0.318 NA
ATOM      3  H   UNK     1      10.070  -1.152  25.657  0.00  0.00    +0.119 HD
ATOM      4  H   UNK     1       9.042   0.088  25.636  0.00  0.00    +0.119 HD
ENDBRANCH   1   2
BRANCH   1   5
ATOM      5  C   UNK     1      10.088  -1.890  23.171  0.00  0.00    +0.322 C 
ATOM      6  O   UNK     1      10.214  -2.941  23.777  0.00  0.00    -0.249 OA
BRANCH   5   7
ATOM      7  O   UNK     1      10.403  -1.736  21.856  0.00  0.00    -0.480 OA
ATOM      8  H   UNK     1      10.768  -2.603  21.552  0.00  0.00    +0.295 HD
ENDBRANCH   5   7
ENDBRANCH   1   5
BRANCH   1   9
ATOM      9  C   UNK     1      10.570   0.513  23.573  0.00  0.00    +0.035 C 
BRANCH   9  11
ATOM     10  C   UNK     1      10.149   3.025  23.462  0.00  0.00    +0.010 C 
ATOM     11  C   UNK     1      10.162   1.706  22.687  0.00  0.00    +0.019 C 
BRANCH  11  12
ATOM     12  C   UNK     1       8.781   1.447  22.085  0.00  0.00    +0.216 C 
ATOM     13  F   UNK     1       8.928   0.884  20.856  0.00  0.00    -0.249 F 
ENDBRANCH  11  12
ENDBRANCH   9  11
ENDBRANCH   1   9
TORSDOF 6
ENDMDL
MODEL 4
REMARK VINA RESULT:      -3.9      1.621      2.041
REMARK  Name = 
REMARK  7 active torsions:
REMARK  status: ('A' for Active; 'I' for Inactive)
REMARK    1  A    between atoms: C_1  and  C_2
REMARK    2  A    between atoms: C_2  and  C_4
REMARK    3  A    between atoms: C_2  and  C_6
REMARK    4  A    between atoms: C_6  and  C_7
REMARK    5  A    between atoms: C_7  and  N_9
REMARK    6  A    between atoms: C_7  and  C_10
REMARK    7  A    between atoms: C_10  and  O_11
REMARK                            x       y       z     vdW  Elec       q    Type
REMARK                         _______ _______ _______ _____ _____    ______ ____
ROOT
ATOM      1  C   UNK     1       8.937  -4.693  25.127  0.00  0.00    +0.161 C 
ENDROOT
BRANCH   1   2
ATOM      2  N   UNK     1      10.146  -5.548  25.301  0.00  0.00    -0.318 NA
ATOM      3  H   UNK     1      10.871  -5.208  24.661  0.00  0.00    +0.119 HD
ATOM      4  H   UNK     1      10.535  -5.353  26.231  0.00  0.00    +0.119 HD
ENDBRANCH   1   2
BRANCH   1   5
ATOM      5  C   UNK     1       8.164  -4.680  26.455  0.00  0.00    +0.322 C 
ATOM      6  O   UNK     1       7.544  -3.729  26.899  0.00  0.00    -0.249 OA
BRANCH   5   7
ATOM      7  O   UNK     1       8.220  -5.894  27.067  0.00  0.00    -0.480 OA
ATOM      8  H   UNK     1       7.520  -6.452  26.647  0.00  0.00    +0.295 HD
ENDBRANCH   5   7
ENDBRANCH   1   5
BRANCH   1   9
ATOM      9  C   UNK     1       8.001  -5.244  24.042  0.00  0.00    +0.035 C 
BRANCH   9  11
ATOM     10  C   UNK     1       6.616  -3.185  23.454  0.00  0.00    +0.010 C 
ATOM     11  C   UNK     1       7.578  -4.256  22.937  0.00  0.00    +0.019 C 
BRANCH  11  12
ATOM     12  C   UNK     1       6.926  -5.024  21.787  0.00  0.00    +0.216 C 
ATOM     13  F   UNK     1       7.326  -6.323  21.834  0.00  0.00    -0.249 F 
ENDBRANCH  11  12
ENDBRANCH   9  11
ENDBRANCH   1   9
TORSDOF 6
ENDMDL
MODEL 5
REMARK VINA RESULT:      -3.9      2.584      3.206
REMARK  Name = 
REMARK  7 active torsions:
REMARK  status: ('A' for Active; 'I' for Inactive)
REMARK    1  A    between atoms: C_1  and  C_2
REMARK    2  A    between atoms: C_2  and  C_4
REMARK    3  A    between atoms: C_2  and  C_6
REMARK    4  A    between atoms: C_6  and  C_7
REMARK    5  A    between atoms: C_7  and  N_9
REMARK    6  A    between atoms: C_7  and  C_10
REMARK    7  A    between atoms: C_10  and  O_11
REMARK                            x       y       z     vdW  Elec       q    Type
REMARK                         _______ _______ _______ _____ _____    ______ ____
ROOT
ATOM      1  C   UNK     1       8.170  -5.432  25.291  0.00  0.00    +0.161 C 
ENDROOT
BRANCH   1   2
ATOM      2  N   UNK     1       7.974  -5.711  26.742  0.00  0.00    -0.318 NA
ATOM      3  H   UNK     1       8.889  -5.922  27.152  0.00  0.00    +0.119 HD
ATOM      4  H   UNK     1       7.705  -4.830  27.196  0.00  0.00    +0.119 HD
ENDBRANCH   1   2
BRANCH   1   5
ATOM      5  C   UNK     1       9.574  -4.834  25.103  0.00  0.00    +0.322 C 
ATOM      6  O   UNK     1       9.838  -3.864  24.414  0.00  0.00    -0.249 OA
BRANCH   5   7
ATOM      7  O   UNK     1      10.495  -5.504  25.847  0.00  0.00    -0.480 OA
ATOM      8  H   UNK     1      11.086  -5.970  25.206  0.00  0.00    +0.295 HD
ENDBRANCH   5   7
ENDBRANCH   1   5
BRANCH   1   9
ATOM      9  C   UNK     1       7.149  -4.415  24.763  0.00  0.00    +0.035 C 
BRANCH   9  11
ATOM     10  C   UNK     1       5.322  -6.017  23.992  0.00  0.00    +0.010 C 
ATOM     11  C   UNK     1       6.262  -4.880  23.591  0.00  0.00    +0.019 C 
BRANCH  11  12
ATOM     12  C   UNK     1       7.146  -5.326  22.427  0.00  0.00    +0.216 C 
ATOM     13  F   UNK     1       6.828  -6.605  22.089  0.00  0.00    -0.249 F 
ENDBRANCH  11  12
ENDBRANCH   9  11
ENDBRANCH   1   9
TORSDOF 6
ENDMDL
MODEL 6
REMARK VINA RESULT:      -3.8      2.152      2.805
REMARK  Name = 
REMARK  7 active torsions:
REMARK  status: ('A' for Active; 'I' for Inactive)
REMARK    1  A    between atoms: C_1  and  C_2
REMARK    2  A    between atoms: C_2  and  C_4
REMARK    3  A    between atoms: C_2  and  C_6
REMARK    4  A    between atoms: C_6  and  C_7
REMARK    5  A    between atoms: C_7  and  N_9
REMARK    6  A    between atoms: C_7  and  C_10
REMARK    7  A    between atoms: C_10  and  O_11
REMARK                            x       y       z     vdW  Elec       q    Type
REMARK                         _______ _______ _______ _____ _____    ______ ____
ROOT
ATOM      1  C   UNK     1       8.587  -4.109  24.709  0.00  0.00    +0.161 C 
ENDROOT
BRANCH   1   2
ATOM      2  N   UNK     1       9.781  -3.429  24.130  0.00  0.00    -0.318 NA
ATOM      3  H   UNK     1      10.619  -3.847  24.547  0.00  0.00    +0.119 HD
ATOM      4  H   UNK     1       9.846  -3.699  23.142  0.00  0.00    +0.119 HD
ENDBRANCH   1   2
BRANCH   1   5
ATOM      5  C   UNK     1       9.030  -4.860  25.975  0.00  0.00    +0.322 C 
ATOM      6  O   UNK     1       8.442  -4.847  27.042  0.00  0.00    -0.249 OA
BRANCH   5   7
ATOM      7  O   UNK     1      10.156  -5.588  25.744  0.00  0.00    -0.480 OA
ATOM      8  H   UNK     1      10.558  -5.772  26.628  0.00  0.00    +0.295 HD
ENDBRANCH   5   7
ENDBRANCH   1   5
BRANCH   1   9
ATOM      9  C   UNK     1       7.989  -5.135  23.737  0.00  0.00    +0.035 C 
BRANCH   9  11
ATOM     10  C   UNK     1       5.930  -3.909  22.867  0.00  0.00    +0.010 C 
ATOM     11  C   UNK     1       7.262  -4.566  22.502  0.00  0.00    +0.019 C 
BRANCH  11  12
ATOM     12  C   UNK     1       7.026  -5.685  21.488  0.00  0.00    +0.216 C 
ATOM     13  F   UNK     1       6.614  -6.803  22.143  0.00  0.00    -0.249 F 
ENDBRANCH  11  12
ENDBRANCH   9  11
ENDBRANCH   1   9
TORSDOF 6
ENDMDL
MODEL 7
REMARK VINA RESULT:      -3.8      5.526      6.670
REMARK  Name = 
REMARK  7 active torsions:
REMARK  status: ('A' for Active; 'I' for Inactive)
REMARK    1  A    between atoms: C_1  and  C_2
REMARK    2  A    between atoms: C_2  and  C_4
REMARK    3  A    between atoms: C_2  and  C_6
REMARK    4  A    between atoms: C_6  and  C_7
REMARK    5  A    between atoms: C_7  and  N_9
REMARK    6  A    between atoms: C_7  and  C_10
REMARK    7  A    between atoms: C_10  and  O_11
REMARK                            x       y       z     vdW  Elec       q    Type
REMARK                         _______ _______ _______ _____ _____    ______ ____
ROOT
ATOM      1  C   UNK     1       8.879   0.935  22.121  0.00  0.00    +0.161 C 
ENDROOT
BRANCH   1   2
ATOM      2  N   UNK     1       8.225   1.814  21.110  0.00  0.00    -0.318 NA
ATOM      3  H   UNK     1       7.348   2.163  21.512  0.00  0.00    +0.119 HD
ATOM      4  H   UNK     1       8.798   2.660  21.014  0.00  0.00    +0.119 HD
ENDBRANCH   1   2
BRANCH   1   5
ATOM      5  C   UNK     1      10.052   1.710  22.743  0.00  0.00    +0.322 C 
ATOM      6  O   UNK     1      10.498   1.532  23.863  0.00  0.00    -0.249 OA
BRANCH   5   7
ATOM      7  O   UNK     1      10.568   2.608  21.860  0.00  0.00    -0.480 OA
ATOM      8  H   UNK     1      11.482   2.296  21.646  0.00  0.00    +0.295 HD
ENDBRANCH   5   7
ENDBRANCH   1   5
BRANCH   1   9
ATOM      9  C   UNK     1       9.443  -0.343  21.485  0.00  0.00    +0.035 C 
BRANCH   9  11
ATOM     10  C   UNK     1       7.739  -1.621  22.887  0.00  0.00    +0.010 C 
ATOM     11  C   UNK     1       9.102  -1.669  22.194  0.00  0.00    +0.019 C 
BRANCH  11  12
ATOM     12  C   UNK     1      10.190  -1.997  23.215  0.00  0.00    +0.216 C 
ATOM     13  F   UNK     1       9.825  -1.507  24.430  0.00  0.00    -0.249 F 
ENDBRANCH  11  12
ENDBRANCH   9  11
ENDBRANCH   1   9
TORSDOF 6
ENDMDL
MODEL 8
REMARK VINA RESULT:      -3.7      5.530      6.603
REMARK  Name = 
REMARK  7 active torsions:
REMARK  status: ('A' for Active; 'I' for Inactive)
REMARK    1  A    between atoms: C_1  and  C_2
REMARK    2  A    between atoms: C_2  and  C_4
REMARK    3  A    between atoms: C_2  and  C_6
REMARK    4  A    between atoms: C_6  and  C_7
REMARK    5  A    between atoms: C_7  and  N_9
REMARK    6  A    between atoms: C_7  and  C_10
REMARK    7  A    between atoms: C_10  and  O_11
REMARK                            x       y       z     vdW  Elec       q    Type
REMARK                         _______ _______ _______ _____ _____    ______ ____
ROOT
ATOM      1  C   UNK     1      10.043   1.822  24.020  0.00  0.00    +0.161 C 
ENDROOT
BRANCH   1   2
ATOM      2  N   UNK     1       8.998   1.855  25.082  0.00  0.00    -0.318 NA
ATOM      3  H   UNK     1       8.824   0.892  25.388  0.00  0.00    +0.119 HD
ATOM      4  H   UNK     1       9.409   2.299  25.912  0.00  0.00    +0.119 HD
ENDBRANCH   1   2
BRANCH   1   5
ATOM      5  C   UNK     1       9.400   2.276  22.700  0.00  0.00    +0.322 C 
ATOM      6  O   UNK     1       8.226   2.570  22.554  0.00  0.00    -0.249 OA
BRANCH   5   7
ATOM      7  O   UNK     1      10.326   2.353  21.706  0.00  0.00    -0.480 OA
ATOM      8  H   UNK     1       9.843   2.652  20.896  0.00  0.00    +0.295 HD
ENDBRANCH   5   7
ENDBRANCH   1   5
BRANCH   1   9
ATOM      9  C   UNK     1      10.598   0.406  23.811  0.00  0.00    +0.035 C 
BRANCH   9  11
ATOM     10  C   UNK     1       9.450  -1.764  24.502  0.00  0.00    +0.010 C 
ATOM     11  C   UNK     1       9.574  -0.681  23.429  0.00  0.00    +0.019 C 
BRANCH  11  12
ATOM     12  C   UNK     1       9.977  -1.317  22.099  0.00  0.00    +0.216 C 
ATOM     13  F   UNK     1       9.490  -0.563  21.077  0.00  0.00    -0.249 F 
ENDBRANCH  11  12
ENDBRANCH   9  11
ENDBRANCH   1   9
TORSDOF 6
ENDMDL
MODEL 9
REMARK VINA RESULT:      -3.7      5.327      6.225
REMARK  Name = 
REMARK  7 active torsions:
REMARK  status: ('A' for Active; 'I' for Inactive)
REMARK    1  A    between atoms: C_1  and  C_2
REMARK    2  A    between atoms: C_2  and  C_4
REMARK    3  A    between atoms: C_2  and  C_6
REMARK    4  A    between atoms: C_6  and  C_7
REMARK    5  A    between atoms: C_7  and  N_9
REMARK    6  A    between atoms: C_7  and  C_10
REMARK    7  A    between atoms: C_10  and  O_11
REMARK                            x       y       z     vdW  Elec       q    Type
REMARK                         _______ _______ _______ _____ _____    ______ ____
ROOT
ATOM      1  C   UNK     1       9.586  -0.498  23.496  0.00  0.00    +0.161 C 
ENDROOT
BRANCH   1   2
ATOM      2  N   UNK     1       9.751  -1.822  24.161  0.00  0.00    -0.318 NA
ATOM      3  H   UNK     1       8.862  -2.327  24.090  0.00  0.00    +0.119 HD
ATOM      4  H   UNK     1      10.392  -2.382  23.587  0.00  0.00    +0.119 HD
ENDBRANCH   1   2
BRANCH   1   5
ATOM      5  C   UNK     1       9.716  -0.705  21.978  0.00  0.00    +0.322 C 
ATOM      6  O   UNK     1       9.222   0.013  21.126  0.00  0.00    -0.249 OA
BRANCH   5   7
ATOM      7  O   UNK     1      10.497  -1.783  21.696  0.00  0.00    -0.480 OA
ATOM      8  H   UNK     1      10.987  -1.999  22.527  0.00  0.00    +0.295 HD
ENDBRANCH   5   7
ENDBRANCH   1   5
BRANCH   1   9
ATOM      9  C   UNK     1      10.671   0.497  23.930  0.00  0.00    +0.035 C 
BRANCH   9  11
ATOM     10  C   UNK     1       8.660   1.996  24.390  0.00  0.00    +0.010 C 
ATOM     11  C   UNK     1      10.186   1.900  24.348  0.00  0.00    +0.019 C 
BRANCH  11  12
ATOM     12  C   UNK     1      10.743   2.942  23.379  0.00  0.00    +0.216 C 
ATOM     13  F   UNK     1      10.650   2.467  22.108  0.00  0.00    -0.249 F 
ENDBRANCH  11  12
ENDBRANCH   9  11
ENDBRANCH   1   9
TORSDOF 6
ENDMDL
