MODEL 1
REMARK VINA RESULT:      -7.9      0.000      0.000
REMARK  Name = 
REMARK  8 active torsions:
REMARK  status: ('A' for Active; 'I' for Inactive)
REMARK    1  A    between atoms: N_10  and  C_11
REMARK    2  A    between atoms: C_14  and  C_16
REMARK    3  A    between atoms: C_16  and  O_17
REMARK    4  A    between atoms: O_17  and  S_18
REMARK    5  A    between atoms: S_18  and  N_21
REMARK    6  A    between atoms: C_22  and  C_24
REMARK    7  A    between atoms: C_30  and  O_32
REMARK    8  A    between atoms: C_33  and  O_35
REMARK                            x       y       z     vdW  Elec       q    Type
REMARK                         _______ _______ _______ _____ _____    ______ ____
ROOT
ATOM      1  C   UNL     1       7.410  -2.795  23.165  0.00  0.00    +0.253 C 
ATOM      2  C   UNL     1       7.945  -4.233  23.190  0.00  0.00    +0.195 C 
ATOM      3  C   UNL     1       8.525  -4.415  24.597  0.00  0.00    +0.178 C 
ATOM      4  C   UNL     1       8.095  -3.155  25.351  0.00  0.00    +0.180 C 
ATOM      5  O   UNL     1       7.072  -2.526  24.553  0.00  0.00    -0.346 OA
ENDROOT
BRANCH   1  13
ATOM      6  N   UNL     1      10.259   2.370  21.756  0.00  0.00    -0.341 N 
ATOM      7  H   UNL     1      10.989   1.833  21.304  0.00  0.00    +0.144 HD
ATOM      8  H   UNL     1      10.014   3.269  21.362  0.00  0.00    +0.144 HD
ATOM      9  C   UNL     1       9.139   1.619  22.091  0.00  0.00    +0.147 A 
ATOM     10  C   UNL     1       9.159   0.219  22.225  0.00  0.00    +0.147 A 
ATOM     11  N   UNL     1      10.161  -0.712  22.064  0.00  0.00    -0.231 NA
ATOM     12  C   UNL     1       9.597  -1.862  22.367  0.00  0.00    +0.203 A 
ATOM     13  N   UNL     1       8.261  -1.729  22.669  0.00  0.00    -0.286 N 
ATOM     14  C   UNL     1       7.972  -0.391  22.602  0.00  0.00    +0.167 A 
ATOM     15  N   UNL     1       6.804   0.218  22.858  0.00  0.00    -0.216 NA
ATOM     16  C   UNL     1       6.893   1.549  22.660  0.00  0.00    +0.225 A 
ATOM     17  N   UNL     1       7.972   2.271  22.292  0.00  0.00    -0.219 NA
ENDBRANCH   1  13
BRANCH   2  18
ATOM     18  O   UNL     1       6.843  -5.155  23.017  0.00  0.00    -0.385 OA
ATOM     19  H   UNL     1       7.077  -6.002  23.438  0.00  0.00    +0.210 HD
ENDBRANCH   2  18
BRANCH   3  20
ATOM     20  O   UNL     1       9.947  -4.501  24.547  0.00  0.00    -0.386 OA
ATOM     21  H   UNL     1      10.173  -5.430  24.346  0.00  0.00    +0.210 HD
ENDBRANCH   3  20
BRANCH   4  22
ATOM     22  C   UNL     1       7.568  -3.416  26.763  0.00  0.00    +0.229 C 
BRANCH  22  23
ATOM     23  O   UNL     1       7.679  -4.791  27.086  0.00  0.00    -0.220 OA
BRANCH  23  24
ATOM     24  S   UNL     1       6.403  -5.504  27.800  0.00  0.00    +0.169 S 
ATOM     25  O   UNL     1       5.458  -4.473  28.169  0.00  0.00    -0.126 OA
ATOM     26  O   UNL     1       6.915  -6.420  28.796  0.00  0.00    -0.126 OA
BRANCH  24  27
ATOM     27  N   UNL     1       5.697  -6.433  26.633  0.00  0.00    -0.164 N 
ATOM     28  H   UNL     1       5.595  -7.422  26.852  0.00  0.00    +0.179 HD
ATOM     29  C   UNL     1       4.956  -5.939  25.553  0.00  0.00    +0.250 C 
ATOM     30  O   UNL     1       4.880  -4.744  25.302  0.00  0.00    -0.272 OA
BRANCH  29  31
ATOM     31  C   UNL     1       4.329  -7.029  24.657  0.00  0.00    +0.142 C 
ATOM     32  N   UNL     1       3.541  -8.015  25.454  0.00  0.00    -0.306 NA
ATOM     33  H   UNL     1       3.678  -8.935  25.026  0.00  0.00    +0.123 HD
ATOM     34  C   UNL     1       2.113  -7.677  25.273  0.00  0.00    +0.081 C 
ATOM     35  C   UNL     1       2.047  -6.427  24.415  0.00  0.00    +0.017 C 
ATOM     36  C   UNL     1       3.352  -6.449  23.650  0.00  0.00    +0.029 C 
ENDBRANCH  29  31
ENDBRANCH  24  27
ENDBRANCH  23  24
ENDBRANCH  22  23
ENDBRANCH   4  22
TORSDOF 8
ENDMDL
MODEL 2
REMARK VINA RESULT:      -7.7      1.454      1.791
REMARK  Name = 
REMARK  8 active torsions:
REMARK  status: ('A' for Active; 'I' for Inactive)
REMARK    1  A    between atoms: N_10  and  C_11
REMARK    2  A    between atoms: C_14  and  C_16
REMARK    3  A    between atoms: C_16  and  O_17
REMARK    4  A    between atoms: O_17  and  S_18
REMARK    5  A    between atoms: S_18  and  N_21
REMARK    6  A    between atoms: C_22  and  C_24
REMARK    7  A    between atoms: C_30  and  O_32
REMARK    8  A    between atoms: C_33  and  O_35
REMARK                            x       y       z     vdW  Elec       q    Type
REMARK                         _______ _______ _______ _____ _____    ______ ____
ROOT
ATOM      1  C   UNL     1       7.705  -3.150  24.484  0.00  0.00    +0.253 C 
ATOM      2  C   UNL     1       8.312  -4.389  23.810  0.00  0.00    +0.195 C 
ATOM      3  C   UNL     1       8.906  -5.213  24.958  0.00  0.00    +0.178 C 
ATOM      4  C   UNL     1       8.415  -4.508  26.224  0.00  0.00    +0.180 C 
ATOM      5  O   UNL     1       7.359  -3.616  25.817  0.00  0.00    -0.346 OA
ENDROOT
BRANCH   1  13
ATOM      6  N   UNL     1      10.591   2.146  23.853  0.00  0.00    -0.341 N 
ATOM      7  H   UNL     1      10.876   2.095  24.824  0.00  0.00    +0.144 HD
ATOM      8  H   UNL     1      11.225   2.571  23.190  0.00  0.00    +0.144 HD
ATOM      9  C   UNL     1      10.037   0.966  23.372  0.00  0.00    +0.147 A 
ATOM     10  C   UNL     1       9.503  -0.033  24.204  0.00  0.00    +0.147 A 
ATOM     11  N   UNL     1       9.399  -0.140  25.573  0.00  0.00    -0.231 NA
ATOM     12  C   UNL     1       8.768  -1.278  25.770  0.00  0.00    +0.203 A 
ATOM     13  N   UNL     1       8.500  -1.941  24.595  0.00  0.00    -0.286 N 
ATOM     14  C   UNL     1       8.949  -1.140  23.578  0.00  0.00    +0.167 A 
ATOM     15  N   UNL     1       8.866  -1.355  22.255  0.00  0.00    -0.216 NA
ATOM     16  C   UNL     1       9.444  -0.353  21.561  0.00  0.00    +0.225 A 
ATOM     17  N   UNL     1      10.019   0.772  22.034  0.00  0.00    -0.219 NA
ENDBRANCH   1  13
BRANCH   2  18
ATOM     18  O   UNL     1       7.258  -5.155  23.181  0.00  0.00    -0.385 OA
ATOM     19  H   UNL     1       7.070  -4.768  22.308  0.00  0.00    +0.210 HD
ENDBRANCH   2  18
BRANCH   3  20
ATOM     20  O   UNL     1      10.330  -5.199  24.903  0.00  0.00    -0.386 OA
ATOM     21  H   UNL     1      10.587  -4.522  24.246  0.00  0.00    +0.210 HD
ENDBRANCH   3  20
BRANCH   4  22
ATOM     22  C   UNL     1       7.907  -5.454  27.313  0.00  0.00    +0.229 C 
BRANCH  22  23
ATOM     23  O   UNL     1       6.646  -5.022  27.796  0.00  0.00    -0.220 OA
BRANCH  23  24
ATOM     24  S   UNL     1       5.481  -6.143  27.975  0.00  0.00    +0.169 S 
ATOM     25  O   UNL     1       4.277  -5.476  28.416  0.00  0.00    -0.126 OA
ATOM     26  O   UNL     1       6.039  -7.234  28.745  0.00  0.00    -0.126 OA
BRANCH  24  27
ATOM     27  N   UNL     1       5.196  -6.739  26.462  0.00  0.00    -0.164 N 
ATOM     28  H   UNL     1       5.189  -7.753  26.378  0.00  0.00    +0.179 HD
ATOM     29  C   UNL     1       4.655  -6.006  25.400  0.00  0.00    +0.250 C 
ATOM     30  O   UNL     1       4.467  -4.799  25.464  0.00  0.00    -0.272 OA
BRANCH  29  31
ATOM     31  C   UNL     1       4.407  -6.829  24.117  0.00  0.00    +0.142 C 
ATOM     32  N   UNL     1       3.481  -7.974  24.364  0.00  0.00    -0.306 NA
ATOM     33  H   UNL     1       3.804  -8.759  23.791  0.00  0.00    +0.123 HD
ATOM     34  C   UNL     1       2.158  -7.584  23.832  0.00  0.00    +0.081 C 
ATOM     35  C   UNL     1       2.274  -6.159  23.326  0.00  0.00    +0.017 C 
ATOM     36  C   UNL     1       3.749  -6.004  23.027  0.00  0.00    +0.029 C 
ENDBRANCH  29  31
ENDBRANCH  24  27
ENDBRANCH  23  24
ENDBRANCH  22  23
ENDBRANCH   4  22
TORSDOF 8
ENDMDL
MODEL 3
REMARK VINA RESULT:      -7.6      1.524      1.674
REMARK  Name = 
REMARK  8 active torsions:
REMARK  status: ('A' for Active; 'I' for Inactive)
REMARK    1  A    between atoms: N_10  and  C_11
REMARK    2  A    between atoms: C_14  and  C_16
REMARK    3  A    between atoms: C_16  and  O_17
REMARK    4  A    between atoms: O_17  and  S_18
REMARK    5  A    between atoms: S_18  and  N_21
REMARK    6  A    between atoms: C_22  and  C_24
REMARK    7  A    between atoms: C_30  and  O_32
REMARK    8  A    between atoms: C_33  and  O_35
REMARK                            x       y       z     vdW  Elec       q    Type
REMARK                         _______ _______ _______ _____ _____    ______ ____
ROOT
ATOM      1  C   UNL     1       7.618  -1.123  23.020  0.00  0.00    +0.253 C 
ATOM      2  C   UNL     1       8.143  -2.520  22.660  0.00  0.00    +0.195 C 
ATOM      3  C   UNL     1       8.778  -3.049  23.951  0.00  0.00    +0.178 C 
ATOM      4  C   UNL     1       8.386  -2.022  25.015  0.00  0.00    +0.180 C 
ATOM      5  O   UNL     1       7.337  -1.216  24.443  0.00  0.00    -0.346 OA
ENDROOT
BRANCH   1  13
ATOM      6  N   UNL     1      10.886   3.983  23.151  0.00  0.00    -0.341 N 
ATOM      7  H   UNL     1      11.257   3.758  22.236  0.00  0.00    +0.144 HD
ATOM      8  H   UNL     1      10.733   4.957  23.378  0.00  0.00    +0.144 HD
ATOM      9  C   UNL     1       9.821   3.178  23.536  0.00  0.00    +0.147 A 
ATOM     10  C   UNL     1       9.561   1.918  22.969  0.00  0.00    +0.147 A 
ATOM     11  N   UNL     1      10.190   1.202  21.974  0.00  0.00    -0.231 NA
ATOM     12  C   UNL     1       9.521   0.070  21.906  0.00  0.00    +0.203 A 
ATOM     13  N   UNL     1       8.456   0.036  22.776  0.00  0.00    -0.286 N 
ATOM     14  C   UNL     1       8.483   1.211  23.481  0.00  0.00    +0.167 A 
ATOM     15  N   UNL     1       7.663   1.604  24.468  0.00  0.00    -0.216 NA
ATOM     16  C   UNL     1       7.983   2.839  24.906  0.00  0.00    +0.225 A 
ATOM     17  N   UNL     1       8.993   3.637  24.500  0.00  0.00    -0.219 NA
ENDBRANCH   1  13
BRANCH   2  18
ATOM     18  O   UNL     1       7.030  -3.372  22.303  0.00  0.00    -0.385 OA
ATOM     19  H   UNL     1       6.422  -2.868  21.733  0.00  0.00    +0.210 HD
ENDBRANCH   2  18
BRANCH   3  20
ATOM     20  O   UNL     1      10.196  -3.115  23.824  0.00  0.00    -0.386 OA
ATOM     21  H   UNL     1      10.493  -2.260  23.453  0.00  0.00    +0.210 HD
ENDBRANCH   3  20
BRANCH   4  22
ATOM     22  C   UNL     1       7.913  -2.633  26.335  0.00  0.00    +0.229 C 
BRANCH  22  23
ATOM     23  O   UNL     1       8.051  -4.043  26.305  0.00  0.00    -0.220 OA
BRANCH  23  24
ATOM     24  S   UNL     1       6.856  -4.932  26.960  0.00  0.00    +0.169 S 
ATOM     25  O   UNL     1       5.862  -4.028  27.493  0.00  0.00    -0.126 OA
ATOM     26  O   UNL     1       7.469  -5.932  27.807  0.00  0.00    -0.126 OA
BRANCH  24  27
ATOM     27  N   UNL     1       6.165  -5.749  25.703  0.00  0.00    -0.164 N 
ATOM     28  H   UNL     1       6.095  -6.758  25.813  0.00  0.00    +0.179 HD
ATOM     29  C   UNL     1       5.398  -5.162  24.690  0.00  0.00    +0.250 C 
ATOM     30  O   UNL     1       5.284  -3.950  24.571  0.00  0.00    -0.272 OA
BRANCH  29  31
ATOM     31  C   UNL     1       4.793  -6.166  23.684  0.00  0.00    +0.142 C 
ATOM     32  N   UNL     1       4.422  -7.454  24.343  0.00  0.00    -0.306 NA
ATOM     33  H   UNL     1       4.625  -8.207  23.679  0.00  0.00    +0.123 HD
ATOM     34  C   UNL     1       2.955  -7.440  24.526  0.00  0.00    +0.081 C 
ATOM     35  C   UNL     1       2.449  -6.096  24.038  0.00  0.00    +0.017 C 
ATOM     36  C   UNL     1       3.511  -5.647  23.059  0.00  0.00    +0.029 C 
ENDBRANCH  29  31
ENDBRANCH  24  27
ENDBRANCH  23  24
ENDBRANCH  22  23
ENDBRANCH   4  22
TORSDOF 8
ENDMDL
MODEL 4
REMARK VINA RESULT:      -7.5      2.829      7.980
REMARK  Name = 
REMARK  8 active torsions:
REMARK  status: ('A' for Active; 'I' for Inactive)
REMARK    1  A    between atoms: N_10  and  C_11
REMARK    2  A    between atoms: C_14  and  C_16
REMARK    3  A    between atoms: C_16  and  O_17
REMARK    4  A    between atoms: O_17  and  S_18
REMARK    5  A    between atoms: S_18  and  N_21
REMARK    6  A    between atoms: C_22  and  C_24
REMARK    7  A    between atoms: C_30  and  O_32
REMARK    8  A    between atoms: C_33  and  O_35
REMARK                            x       y       z     vdW  Elec       q    Type
REMARK                         _______ _______ _______ _____ _____    ______ ____
ROOT
ATOM      1  C   UNL     1       8.459  -4.328  25.530  0.00  0.00    +0.253 C 
ATOM      2  C   UNL     1       8.707  -3.447  24.298  0.00  0.00    +0.195 C 
ATOM      3  C   UNL     1       8.203  -2.056  24.697  0.00  0.00    +0.178 C 
ATOM      4  C   UNL     1       7.902  -2.177  26.192  0.00  0.00    +0.180 C 
ATOM      5  O   UNL     1       8.528  -3.395  26.642  0.00  0.00    -0.346 OA
ENDROOT
BRANCH   1  13
ATOM      6  N   UNL     1       3.403  -7.286  27.101  0.00  0.00    -0.341 N 
ATOM      7  H   UNL     1       3.164  -7.378  26.120  0.00  0.00    +0.144 HD
ATOM      8  H   UNL     1       3.147  -8.036  27.728  0.00  0.00    +0.144 HD
ATOM      9  C   UNL     1       4.699  -6.834  27.319  0.00  0.00    +0.147 A 
ATOM     10  C   UNL     1       5.453  -6.149  26.350  0.00  0.00    +0.147 A 
ATOM     11  N   UNL     1       5.177  -5.782  25.051  0.00  0.00    -0.231 NA
ATOM     12  C   UNL     1       6.247  -5.124  24.658  0.00  0.00    +0.203 A 
ATOM     13  N   UNL     1       7.226  -5.088  25.624  0.00  0.00    -0.286 N 
ATOM     14  C   UNL     1       6.719  -5.725  26.726  0.00  0.00    +0.167 A 
ATOM     15  N   UNL     1       7.300  -5.899  27.923  0.00  0.00    -0.216 NA
ATOM     16  C   UNL     1       6.504  -6.601  28.754  0.00  0.00    +0.225 A 
ATOM     17  N   UNL     1       5.262  -7.075  28.524  0.00  0.00    -0.219 NA
ENDBRANCH   1  13
BRANCH   2  18
ATOM     18  O   UNL     1      10.130  -3.373  24.042  0.00  0.00    -0.385 OA
ATOM     19  H   UNL     1      10.587  -3.185  24.882  0.00  0.00    +0.210 HD
ENDBRANCH   2  18
BRANCH   3  20
ATOM     20  O   UNL     1       7.017  -1.725  23.978  0.00  0.00    -0.386 OA
ATOM     21  H   UNL     1       6.269  -2.146  24.446  0.00  0.00    +0.210 HD
ENDBRANCH   3  20
BRANCH   4  22
ATOM     22  C   UNL     1       8.395  -0.996  27.030  0.00  0.00    +0.229 C 
BRANCH  22  23
ATOM     23  O   UNL     1       7.330  -0.103  27.302  0.00  0.00    -0.220 OA
BRANCH  23  24
ATOM     24  S   UNL     1       7.192   1.216  26.360  0.00  0.00    +0.169 S 
ATOM     25  O   UNL     1       7.149   2.380  27.218  0.00  0.00    -0.126 OA
ATOM     26  O   UNL     1       6.130   0.966  25.410  0.00  0.00    -0.126 OA
BRANCH  24  27
ATOM     27  N   UNL     1       8.590   1.292  25.487  0.00  0.00    -0.164 N 
ATOM     28  H   UNL     1       9.182   0.464  25.523  0.00  0.00    +0.179 HD
ATOM     29  C   UNL     1       8.856   2.224  24.478  0.00  0.00    +0.250 C 
ATOM     30  O   UNL     1       8.115   3.168  24.244  0.00  0.00    -0.272 OA
BRANCH  29  31
ATOM     31  C   UNL     1      10.206   2.016  23.756  0.00  0.00    +0.142 C 
ATOM     32  N   UNL     1      10.745   0.641  23.975  0.00  0.00    -0.306 NA
ATOM     33  H   UNL     1      11.763   0.720  24.054  0.00  0.00    +0.123 HD
ATOM     34  C   UNL     1      10.478  -0.131  22.743  0.00  0.00    +0.081 C 
ATOM     35  C   UNL     1       9.704   0.771  21.800  0.00  0.00    +0.017 C 
ATOM     36  C   UNL     1      10.079   2.166  22.251  0.00  0.00    +0.029 C 
ENDBRANCH  29  31
ENDBRANCH  24  27
ENDBRANCH  23  24
ENDBRANCH  22  23
ENDBRANCH   4  22
TORSDOF 8
ENDMDL
MODEL 5
REMARK VINA RESULT:      -7.4      2.555      8.490
REMARK  Name = 
REMARK  8 active torsions:
REMARK  status: ('A' for Active; 'I' for Inactive)
REMARK    1  A    between atoms: N_10  and  C_11
REMARK    2  A    between atoms: C_14  and  C_16
REMARK    3  A    between atoms: C_16  and  O_17
REMARK    4  A    between atoms: O_17  and  S_18
REMARK    5  A    between atoms: S_18  and  N_21
REMARK    6  A    between atoms: C_22  and  C_24
REMARK    7  A    between atoms: C_30  and  O_32
REMARK    8  A    between atoms: C_33  and  O_35
REMARK                            x       y       z     vdW  Elec       q    Type
REMARK                         _______ _______ _______ _____ _____    ______ ____
ROOT
ATOM      1  C   UNL     1       7.654  -5.026  25.785  0.00  0.00    +0.253 C 
ATOM      2  C   UNL     1       8.472  -5.564  24.603  0.00  0.00    +0.195 C 
ATOM      3  C   UNL     1       7.946  -4.805  23.380  0.00  0.00    +0.178 C 
ATOM      4  C   UNL     1       7.023  -3.734  23.965  0.00  0.00    +0.180 C 
ATOM      5  O   UNL     1       7.304  -3.675  25.378  0.00  0.00    -0.346 OA
ENDROOT
BRANCH   1  13
ATOM      6  N   UNL     1       2.858  -7.477  28.571  0.00  0.00    -0.341 N 
ATOM      7  H   UNL     1       2.503  -7.781  27.672  0.00  0.00    +0.144 HD
ATOM      8  H   UNL     1       2.688  -8.066  29.375  0.00  0.00    +0.144 HD
ATOM      9  C   UNL     1       4.166  -7.010  28.526  0.00  0.00    +0.147 A 
ATOM     10  C   UNL     1       4.789  -6.569  27.345  0.00  0.00    +0.147 A 
ATOM     11  N   UNL     1       4.354  -6.495  26.040  0.00  0.00    -0.231 NA
ATOM     12  C   UNL     1       5.361  -5.958  25.385  0.00  0.00    +0.203 A 
ATOM     13  N   UNL     1       6.449  -5.725  26.193  0.00  0.00    -0.286 N 
ATOM     14  C   UNL     1       6.087  -6.094  27.462  0.00  0.00    +0.167 A 
ATOM     15  N   UNL     1       6.810  -6.008  28.589  0.00  0.00    -0.216 NA
ATOM     16  C   UNL     1       6.128  -6.495  29.645  0.00  0.00    +0.225 A 
ATOM     17  N   UNL     1       4.872  -6.988  29.678  0.00  0.00    -0.219 NA
ENDBRANCH   1  13
BRANCH   2  18
ATOM     18  O   UNL     1       9.867  -5.231  24.796  0.00  0.00    -0.385 OA
ATOM     19  H   UNL     1      10.067  -4.424  24.288  0.00  0.00    +0.210 HD
ENDBRANCH   2  18
BRANCH   3  20
ATOM     20  O   UNL     1       7.213  -5.677  22.523  0.00  0.00    -0.386 OA
ATOM     21  H   UNL     1       6.449  -6.009  23.035  0.00  0.00    +0.210 HD
ENDBRANCH   3  20
BRANCH   4  22
ATOM     22  C   UNL     1       7.191  -2.349  23.341  0.00  0.00    +0.229 C 
BRANCH  22  23
ATOM     23  O   UNL     1       8.391  -2.286  22.590  0.00  0.00    -0.220 OA
BRANCH  23  24
ATOM     24  S   UNL     1       9.686  -1.595  23.292  0.00  0.00    +0.169 S 
ATOM     25  O   UNL     1      10.874  -2.249  22.790  0.00  0.00    -0.126 OA
ATOM     26  O   UNL     1       9.430  -1.530  24.715  0.00  0.00    -0.126 OA
BRANCH  24  27
ATOM     27  N   UNL     1       9.709  -0.035  22.753  0.00  0.00    -0.164 N 
ATOM     28  H   UNL     1       8.977   0.218  22.092  0.00  0.00    +0.179 HD
ATOM     29  C   UNL     1      10.415   1.012  23.356  0.00  0.00    +0.250 C 
ATOM     30  O   UNL     1      11.200   0.830  24.276  0.00  0.00    -0.272 OA
BRANCH  29  31
ATOM     31  C   UNL     1      10.193   2.393  22.701  0.00  0.00    +0.142 C 
ATOM     32  N   UNL     1       9.123   2.346  21.660  0.00  0.00    -0.306 NA
ATOM     33  H   UNL     1       9.405   2.973  20.901  0.00  0.00    +0.123 HD
ATOM     34  C   UNL     1       7.907   2.935  22.261  0.00  0.00    +0.081 C 
ATOM     35  C   UNL     1       8.232   3.272  23.704  0.00  0.00    +0.017 C 
ATOM     36  C   UNL     1       9.736   3.435  23.704  0.00  0.00    +0.029 C 
ENDBRANCH  29  31
ENDBRANCH  24  27
ENDBRANCH  23  24
ENDBRANCH  22  23
ENDBRANCH   4  22
TORSDOF 8
ENDMDL
MODEL 6
REMARK VINA RESULT:      -7.4      2.745      7.611
REMARK  Name = 
REMARK  8 active torsions:
REMARK  status: ('A' for Active; 'I' for Inactive)
REMARK    1  A    between atoms: N_10  and  C_11
REMARK    2  A    between atoms: C_14  and  C_16
REMARK    3  A    between atoms: C_16  and  O_17
REMARK    4  A    between atoms: O_17  and  S_18
REMARK    5  A    between atoms: S_18  and  N_21
REMARK    6  A    between atoms: C_22  and  C_24
REMARK    7  A    between atoms: C_30  and  O_32
REMARK    8  A    between atoms: C_33  and  O_35
REMARK                            x       y       z     vdW  Elec       q    Type
REMARK                         _______ _______ _______ _____ _____    ______ ____
ROOT
ATOM      1  C   UNL     1       6.748  -2.961  24.737  0.00  0.00    +0.253 C 
ATOM      2  C   UNL     1       7.913  -3.477  25.593  0.00  0.00    +0.195 C 
ATOM      3  C   UNL     1       9.117  -3.508  24.646  0.00  0.00    +0.178 C 
ATOM      4  C   UNL     1       8.620  -2.808  23.378  0.00  0.00    +0.180 C 
ATOM      5  O   UNL     1       7.396  -2.135  23.732  0.00  0.00    -0.346 OA
ENDROOT
BRANCH   1  13
ATOM      6  N   UNL     1       2.806  -7.271  23.102  0.00  0.00    -0.341 N 
ATOM      7  H   UNL     1       2.876  -6.956  22.141  0.00  0.00    +0.144 HD
ATOM      8  H   UNL     1       2.674  -8.258  23.273  0.00  0.00    +0.144 HD
ATOM      9  C   UNL     1       3.763  -6.713  23.942  0.00  0.00    +0.147 A 
ATOM     10  C   UNL     1       4.455  -5.526  23.646  0.00  0.00    +0.147 A 
ATOM     11  N   UNL     1       4.414  -4.676  22.562  0.00  0.00    -0.231 NA
ATOM     12  C   UNL     1       5.253  -3.709  22.868  0.00  0.00    +0.203 A 
ATOM     13  N   UNL     1       5.874  -3.915  24.078  0.00  0.00    -0.286 N 
ATOM     14  C   UNL     1       5.354  -5.070  24.599  0.00  0.00    +0.167 A 
ATOM     15  N   UNL     1       5.629  -5.644  25.780  0.00  0.00    -0.216 NA
ATOM     16  C   UNL     1       4.939  -6.792  25.938  0.00  0.00    +0.225 A 
ATOM     17  N   UNL     1       4.043  -7.353  25.100  0.00  0.00    -0.219 NA
ENDBRANCH   1  13
BRANCH   2  18
ATOM     18  O   UNL     1       8.180  -2.532  26.656  0.00  0.00    -0.385 OA
ATOM     19  H   UNL     1       7.330  -2.228  27.023  0.00  0.00    +0.210 HD
ENDBRANCH   2  18
BRANCH   3  20
ATOM     20  O   UNL     1       9.494  -4.852  24.354  0.00  0.00    -0.386 OA
ATOM     21  H   UNL     1      10.468  -4.867  24.275  0.00  0.00    +0.210 HD
ENDBRANCH   3  20
BRANCH   4  22
ATOM     22  C   UNL     1       9.612  -1.808  22.783  0.00  0.00    +0.229 C 
BRANCH  22  23
ATOM     23  O   UNL     1      10.450  -1.279  23.795  0.00  0.00    -0.220 OA
BRANCH  23  24
ATOM     24  S   UNL     1      10.006   0.126  24.485  0.00  0.00    +0.169 S 
ATOM     25  O   UNL     1      11.095   1.066  24.336  0.00  0.00    -0.126 OA
ATOM     26  O   UNL     1       9.474  -0.179  25.796  0.00  0.00    -0.126 OA
BRANCH  24  27
ATOM     27  N   UNL     1       8.739   0.685  23.587  0.00  0.00    -0.164 N 
ATOM     28  H   UNL     1       7.819   0.601  24.016  0.00  0.00    +0.179 HD
ATOM     29  C   UNL     1       8.852   1.533  22.480  0.00  0.00    +0.250 C 
ATOM     30  O   UNL     1       9.932   1.831  21.989  0.00  0.00    -0.272 OA
BRANCH  29  31
ATOM     31  C   UNL     1       7.503   1.979  21.875  0.00  0.00    +0.142 C 
ATOM     32  N   UNL     1       6.347   1.340  22.572  0.00  0.00    -0.306 NA
ATOM     33  H   UNL     1       5.634   1.141  21.864  0.00  0.00    +0.123 HD
ATOM     34  C   UNL     1       5.768   2.359  23.474  0.00  0.00    +0.081 C 
ATOM     35  C   UNL     1       6.633   3.601  23.371  0.00  0.00    +0.017 C 
ATOM     36  C   UNL     1       7.282   3.474  22.010  0.00  0.00    +0.029 C 
ENDBRANCH  29  31
ENDBRANCH  24  27
ENDBRANCH  23  24
ENDBRANCH  22  23
ENDBRANCH   4  22
TORSDOF 8
ENDMDL
MODEL 7
REMARK VINA RESULT:      -7.3      3.158      8.157
REMARK  Name = 
REMARK  8 active torsions:
REMARK  status: ('A' for Active; 'I' for Inactive)
REMARK    1  A    between atoms: N_10  and  C_11
REMARK    2  A    between atoms: C_14  and  C_16
REMARK    3  A    between atoms: C_16  and  O_17
REMARK    4  A    between atoms: O_17  and  S_18
REMARK    5  A    between atoms: S_18  and  N_21
REMARK    6  A    between atoms: C_22  and  C_24
REMARK    7  A    between atoms: C_30  and  O_32
REMARK    8  A    between atoms: C_33  and  O_35
REMARK                            x       y       z     vdW  Elec       q    Type
REMARK                         _______ _______ _______ _____ _____    ______ ____
ROOT
ATOM      1  C   UNL     1       8.167  -5.026  25.904  0.00  0.00    +0.253 C 
ATOM      2  C   UNL     1       9.310  -4.842  24.896  0.00  0.00    +0.195 C 
ATOM      3  C   UNL     1       9.396  -3.329  24.667  0.00  0.00    +0.178 C 
ATOM      4  C   UNL     1       8.451  -2.732  25.712  0.00  0.00    +0.180 C 
ATOM      5  O   UNL     1       8.166  -3.783  26.657  0.00  0.00    -0.346 OA
ENDROOT
BRANCH   1  13
ATOM      6  N   UNL     1       3.122  -6.486  22.870  0.00  0.00    -0.341 N 
ATOM      7  H   UNL     1       2.583  -6.340  23.716  0.00  0.00    +0.144 HD
ATOM      8  H   UNL     1       2.695  -6.250  21.985  0.00  0.00    +0.144 HD
ATOM      9  C   UNL     1       4.433  -6.034  22.959  0.00  0.00    +0.147 A 
ATOM     10  C   UNL     1       5.096  -5.822  24.181  0.00  0.00    +0.147 A 
ATOM     11  N   UNL     1       4.692  -5.960  25.491  0.00  0.00    -0.231 NA
ATOM     12  C   UNL     1       5.759  -5.661  26.201  0.00  0.00    +0.203 A 
ATOM     13  N   UNL     1       6.824  -5.286  25.416  0.00  0.00    -0.286 N 
ATOM     14  C   UNL     1       6.418  -5.406  24.113  0.00  0.00    +0.167 A 
ATOM     15  N   UNL     1       7.133  -5.189  22.998  0.00  0.00    -0.216 NA
ATOM     16  C   UNL     1       6.386  -5.384  21.893  0.00  0.00    +0.225 A 
ATOM     17  N   UNL     1       5.099  -5.782  21.810  0.00  0.00    -0.219 NA
ENDBRANCH   1  13
BRANCH   2  18
ATOM     18  O   UNL     1      10.548  -5.296  25.491  0.00  0.00    -0.385 OA
ATOM     19  H   UNL     1      10.779  -4.698  26.224  0.00  0.00    +0.210 HD
ENDBRANCH   2  18
BRANCH   3  20
ATOM     20  O   UNL     1       8.956  -2.993  23.353  0.00  0.00    -0.386 OA
ATOM     21  H   UNL     1       8.098  -3.440  23.213  0.00  0.00    +0.210 HD
ENDBRANCH   3  20
BRANCH   4  22
ATOM     22  C   UNL     1       9.012  -1.512  26.443  0.00  0.00    +0.229 C 
BRANCH  22  23
ATOM     23  O   UNL     1       8.510  -0.317  25.869  0.00  0.00    -0.220 OA
BRANCH  23  24
ATOM     24  S   UNL     1       9.421   0.419  24.740  0.00  0.00    +0.169 S 
ATOM     25  O   UNL     1       8.990  -0.045  23.440  0.00  0.00    -0.126 OA
ATOM     26  O   UNL     1      10.805   0.291  25.142  0.00  0.00    -0.126 OA
BRANCH  24  27
ATOM     27  N   UNL     1       9.053   2.025  24.844  0.00  0.00    -0.164 N 
ATOM     28  H   UNL     1       8.604   2.323  25.708  0.00  0.00    +0.179 HD
ATOM     29  C   UNL     1       9.587   3.024  24.023  0.00  0.00    +0.250 C 
ATOM     30  O   UNL     1      10.283   2.772  23.050  0.00  0.00    -0.272 OA
BRANCH  29  31
ATOM     31  C   UNL     1       9.144   4.458  24.392  0.00  0.00    +0.142 C 
ATOM     32  N   UNL     1       9.118   5.353  23.198  0.00  0.00    -0.306 NA
ATOM     33  H   UNL     1       9.431   6.280  23.503  0.00  0.00    +0.123 HD
ATOM     34  C   UNL     1       7.703   5.500  22.796  0.00  0.00    +0.081 C 
ATOM     35  C   UNL     1       6.876   4.622  23.717  0.00  0.00    +0.017 C 
ATOM     36  C   UNL     1       7.735   4.493  24.955  0.00  0.00    +0.029 C 
ENDBRANCH  29  31
ENDBRANCH  24  27
ENDBRANCH  23  24
ENDBRANCH  22  23
ENDBRANCH   4  22
TORSDOF 8
ENDMDL
MODEL 8
REMARK VINA RESULT:      -7.3      2.556      7.685
REMARK  Name = 
REMARK  8 active torsions:
REMARK  status: ('A' for Active; 'I' for Inactive)
REMARK    1  A    between atoms: N_10  and  C_11
REMARK    2  A    between atoms: C_14  and  C_16
REMARK    3  A    between atoms: C_16  and  O_17
REMARK    4  A    between atoms: O_17  and  S_18
REMARK    5  A    between atoms: S_18  and  N_21
REMARK    6  A    between atoms: C_22  and  C_24
REMARK    7  A    between atoms: C_30  and  O_32
REMARK    8  A    between atoms: C_33  and  O_35
REMARK                            x       y       z     vdW  Elec       q    Type
REMARK                         _______ _______ _______ _____ _____    ______ ____
ROOT
ATOM      1  C   UNL     1       8.478  -4.601  26.107  0.00  0.00    +0.253 C 
ATOM      2  C   UNL     1       8.702  -3.935  24.743  0.00  0.00    +0.195 C 
ATOM      3  C   UNL     1       8.287  -2.473  24.942  0.00  0.00    +0.178 C 
ATOM      4  C   UNL     1       8.062  -2.346  26.451  0.00  0.00    +0.180 C 
ATOM      5  O   UNL     1       8.652  -3.513  27.056  0.00  0.00    -0.346 OA
ENDROOT
BRANCH   1  13
ATOM      6  N   UNL     1       3.274  -7.714  26.070  0.00  0.00    -0.341 N 
ATOM      7  H   UNL     1       3.218  -7.613  27.077  0.00  0.00    +0.144 HD
ATOM      8  H   UNL     1       2.412  -7.712  25.542  0.00  0.00    +0.144 HD
ATOM      9  C   UNL     1       4.254  -6.922  25.484  0.00  0.00    +0.147 A 
ATOM     10  C   UNL     1       5.346  -6.392  26.194  0.00  0.00    +0.147 A 
ATOM     11  N   UNL     1       5.715  -6.469  27.519  0.00  0.00    -0.231 NA
ATOM     12  C   UNL     1       6.853  -5.811  27.585  0.00  0.00    +0.203 A 
ATOM     13  N   UNL     1       7.216  -5.267  26.375  0.00  0.00    -0.286 N 
ATOM     14  C   UNL     1       6.266  -5.652  25.466  0.00  0.00    +0.167 A 
ATOM     15  N   UNL     1       6.224  -5.391  24.150  0.00  0.00    -0.216 NA
ATOM     16  C   UNL     1       5.117  -5.914  23.584  0.00  0.00    +0.225 A 
ATOM     17  N   UNL     1       4.144  -6.646  24.166  0.00  0.00    -0.219 NA
ENDBRANCH   1  13
BRANCH   2  18
ATOM     18  O   UNL     1      10.110  -3.981  24.414  0.00  0.00    -0.385 OA
ATOM     19  H   UNL     1      10.265  -3.422  23.631  0.00  0.00    +0.210 HD
ENDBRANCH   2  18
BRANCH   3  20
ATOM     20  O   UNL     1       7.082  -2.191  24.236  0.00  0.00    -0.386 OA
ATOM     21  H   UNL     1       6.667  -3.049  24.019  0.00  0.00    +0.210 HD
ENDBRANCH   3  20
BRANCH   4  22
ATOM     22  C   UNL     1       8.656  -1.080  27.070  0.00  0.00    +0.229 C 
BRANCH  22  23
ATOM     23  O   UNL     1       7.632  -0.151  27.377  0.00  0.00    -0.220 OA
BRANCH  23  24
ATOM     24  S   UNL     1       7.321   1.017  26.287  0.00  0.00    +0.169 S 
ATOM     25  O   UNL     1       7.263   2.282  26.986  0.00  0.00    -0.126 OA
ATOM     26  O   UNL     1       6.206   0.575  25.478  0.00  0.00    -0.126 OA
BRANCH  24  27
ATOM     27  N   UNL     1       8.634   1.058  25.288  0.00  0.00    -0.164 N 
ATOM     28  H   UNL     1       9.293   0.289  25.387  0.00  0.00    +0.179 HD
ATOM     29  C   UNL     1       8.740   1.846  24.136  0.00  0.00    +0.250 C 
ATOM     30  O   UNL     1       7.907   2.690  23.838  0.00  0.00    -0.272 OA
BRANCH  29  31
ATOM     31  C   UNL     1      10.041   1.627  23.331  0.00  0.00    +0.142 C 
ATOM     32  N   UNL     1      10.634   0.283  23.593  0.00  0.00    -0.306 NA
ATOM     33  H   UNL     1      11.653   0.392  23.592  0.00  0.00    +0.123 HD
ATOM     34  C   UNL     1      10.303  -0.571  22.433  0.00  0.00    +0.081 C 
ATOM     35  C   UNL     1       9.437   0.250  21.496  0.00  0.00    +0.017 C 
ATOM     36  C   UNL     1       9.801   1.679  21.833  0.00  0.00    +0.029 C 
ENDBRANCH  29  31
ENDBRANCH  24  27
ENDBRANCH  23  24
ENDBRANCH  22  23
ENDBRANCH   4  22
TORSDOF 8
ENDMDL
MODEL 9
REMARK VINA RESULT:      -7.3      2.402      3.712
REMARK  Name = 
REMARK  8 active torsions:
REMARK  status: ('A' for Active; 'I' for Inactive)
REMARK    1  A    between atoms: N_10  and  C_11
REMARK    2  A    between atoms: C_14  and  C_16
REMARK    3  A    between atoms: C_16  and  O_17
REMARK    4  A    between atoms: O_17  and  S_18
REMARK    5  A    between atoms: S_18  and  N_21
REMARK    6  A    between atoms: C_22  and  C_24
REMARK    7  A    between atoms: C_30  and  O_32
REMARK    8  A    between atoms: C_33  and  O_35
REMARK                            x       y       z     vdW  Elec       q    Type
REMARK                         _______ _______ _______ _____ _____    ______ ____
ROOT
ATOM      1  C   UNL     1       8.462  -0.235  22.917  0.00  0.00    +0.253 C 
ATOM      2  C   UNL     1       9.857  -0.506  23.498  0.00  0.00    +0.195 C 
ATOM      3  C   UNL     1       9.619  -0.773  24.989  0.00  0.00    +0.178 C 
ATOM      4  C   UNL     1       8.096  -0.851  25.122  0.00  0.00    +0.180 C 
ATOM      5  O   UNL     1       7.572  -0.986  23.786  0.00  0.00    -0.346 OA
ENDROOT
BRANCH   1  13
ATOM      6  N   UNL     1       7.649   5.758  22.456  0.00  0.00    -0.341 N 
ATOM      7  H   UNL     1       6.655   5.604  22.337  0.00  0.00    +0.144 HD
ATOM      8  H   UNL     1       7.948   6.587  22.951  0.00  0.00    +0.144 HD
ATOM      9  C   UNL     1       8.345   4.624  22.858  0.00  0.00    +0.147 A 
ATOM     10  C   UNL     1       7.858   3.316  22.686  0.00  0.00    +0.147 A 
ATOM     11  N   UNL     1       6.684   2.828  22.156  0.00  0.00    -0.231 NA
ATOM     12  C   UNL     1       6.809   1.519  22.223  0.00  0.00    +0.203 A 
ATOM     13  N   UNL     1       7.988   1.134  22.819  0.00  0.00    -0.286 N 
ATOM     14  C   UNL     1       8.682   2.281  23.102  0.00  0.00    +0.167 A 
ATOM     15  N   UNL     1       9.902   2.398  23.649  0.00  0.00    -0.216 NA
ATOM     16  C   UNL     1      10.247   3.693  23.800  0.00  0.00    +0.225 A 
ATOM     17  N   UNL     1       9.549   4.793  23.448  0.00  0.00    -0.219 NA
ENDBRANCH   1  13
BRANCH   2  18
ATOM     18  O   UNL     1      10.403  -1.701  22.892  0.00  0.00    -0.385 OA
ATOM     19  H   UNL     1       9.865  -1.928  22.112  0.00  0.00    +0.210 HD
ENDBRANCH   2  18
BRANCH   3  20
ATOM     20  O   UNL     1      10.131   0.298  25.780  0.00  0.00    -0.386 OA
ATOM     21  H   UNL     1      10.620   0.892  25.178  0.00  0.00    +0.210 HD
ENDBRANCH   3  20
BRANCH   4  22
ATOM     22  C   UNL     1       7.600  -2.003  25.996  0.00  0.00    +0.229 C 
BRANCH  22  23
ATOM     23  O   UNL     1       8.642  -2.937  26.223  0.00  0.00    -0.220 OA
BRANCH  23  24
ATOM     24  S   UNL     1       8.692  -4.258  25.275  0.00  0.00    +0.169 S 
ATOM     25  O   UNL     1       8.511  -5.422  26.114  0.00  0.00    -0.126 OA
ATOM     26  O   UNL     1       9.855  -4.141  24.423  0.00  0.00    -0.126 OA
BRANCH  24  27
ATOM     27  N   UNL     1       7.377  -4.148  24.284  0.00  0.00    -0.164 N 
ATOM     28  H   UNL     1       6.833  -3.291  24.359  0.00  0.00    +0.179 HD
ATOM     29  C   UNL     1       7.149  -4.952  23.161  0.00  0.00    +0.250 C 
ATOM     30  O   UNL     1       7.853  -5.914  22.889  0.00  0.00    -0.272 OA
BRANCH  29  31
ATOM     31  C   UNL     1       5.885  -4.580  22.354  0.00  0.00    +0.142 C 
ATOM     32  N   UNL     1       5.050  -5.780  22.052  0.00  0.00    -0.306 NA
ATOM     33  H   UNL     1       4.655  -5.651  21.116  0.00  0.00    +0.123 HD
ATOM     34  C   UNL     1       3.909  -5.762  22.993  0.00  0.00    +0.081 C 
ATOM     35  C   UNL     1       4.103  -4.577  23.920  0.00  0.00    +0.017 C 
ATOM     36  C   UNL     1       4.977  -3.636  23.120  0.00  0.00    +0.029 C 
ENDBRANCH  29  31
ENDBRANCH  24  27
ENDBRANCH  23  24
ENDBRANCH  22  23
ENDBRANCH   4  22
TORSDOF 8
ENDMDL
