MODEL 1
REMARK VINA RESULT:      -3.8      0.000      0.000
REMARK  Name = 
REMARK  20 active torsions:
REMARK  status: ('A' for Active; 'I' for Inactive)
REMARK    1  A    between atoms: C_2  and  C_4
REMARK    2  A    between atoms: C_4  and  C_5
REMARK    3  A    between atoms: C_5  and  C_6
REMARK    4  A    between atoms: C_11  and  C_13
REMARK    5  A    between atoms: C_13  and  C_14
REMARK    6  A    between atoms: C_23  and  C_25
REMARK    7  A    between atoms: C_25  and  C_26
REMARK    8  A    between atoms: C_29  and  O_30
REMARK    9  A    between atoms: C_41  and  C_55
REMARK   10  A    between atoms: C_46  and  C_48
REMARK   11  A    between atoms: C_48  and  C_49
REMARK   12  A    between atoms: C_61  and  C_63
REMARK   13  A    between atoms: N_65  and  C_66
REMARK   14  A    between atoms: C_66  and  C_68
REMARK   15  A    between atoms: C_66  and  C_75
REMARK   16  A    between atoms: C_68  and  C_69
REMARK   17  A    between atoms: C_69  and  C_70
REMARK   18  A    between atoms: C_70  and  N_71
REMARK   19  A    between atoms: N_77  and  C_78
REMARK   20  A    between atoms: C_78  and  C_79
REMARK                            x       y       z     vdW  Elec       q    Type
REMARK                         _______ _______ _______ _____ _____    ______ ____
ROOT
ATOM      1  C   UNL     1       1.240  -5.866  26.501  0.00  0.00    +0.159 C 
ATOM      2  C   UNL     1       1.251  -3.634  26.359  0.00  0.00    +0.234 C 
ATOM      3  O   UNL     1       0.744  -3.318  25.267  0.00  0.00    -0.274 OA
ATOM      4  N   UNL     1       1.886  -1.850  26.825  0.00  0.00    -0.302 N 
ATOM      5  H   UNL     1       1.478  -1.584  26.019  0.00  0.00    +0.150 HD
ATOM      6  C   UNL     1       2.301   0.217  27.147  0.00  0.00    +0.168 C 
ATOM      7  C   UNL     1       3.242   2.048  26.593  0.00  0.00    +0.234 C 
ATOM      8  O   UNL     1       2.659   2.557  25.617  0.00  0.00    -0.274 OA
ATOM      9  N   UNL     1       4.181   3.372  27.296  0.00  0.00    -0.302 N 
ATOM     10  H   UNL     1       3.425   4.046  27.148  0.00  0.00    +0.150 HD
ATOM     11  C   UNL     1       5.432   4.849  27.134  0.00  0.00    +0.170 C 
ATOM     12  C   UNL     1       6.275   4.732  28.539  0.00  0.00    +0.112 C 
ATOM     13  S   UNL     1       7.310   3.272  28.362  0.00  0.00    -0.091 S 
ATOM     14  S   UNL     1       6.098   1.938  29.270  0.00  0.00    -0.093 S 
ATOM     15  C   UNL     1       5.620   0.905  27.890  0.00  0.00    +0.090 C 
ATOM     16  C   UNL     1       5.353  -0.416  28.498  0.00  0.00    +0.107 C 
ATOM     17  C   UNL     1       4.930  -1.324  27.414  0.00  0.00    +0.214 C 
ATOM     18  O   UNL     1       4.579  -0.990  26.293  0.00  0.00    -0.276 OA
ATOM     19  N   UNL     1       4.938  -2.591  27.869  0.00  0.00    -0.304 N 
ATOM     20  H   UNL     1       4.801  -2.733  28.869  0.00  0.00    +0.149 HD
ATOM     21  C   UNL     1       4.426  -3.615  27.038  0.00  0.00    +0.163 C 
ATOM     22  C   UNL     1       4.396  -4.759  28.018  0.00  0.00    +0.234 C 
ATOM     23  O   UNL     1       4.388  -4.649  29.239  0.00  0.00    -0.274 OA
ATOM     24  N   UNL     1       4.243  -5.923  27.410  0.00  0.00    -0.302 N 
ATOM     25  H   UNL     1       3.940  -5.865  26.429  0.00  0.00    +0.150 HD
ATOM     26  C   UNL     1       4.031  -7.195  28.088  0.00  0.00    +0.163 C 
ATOM     27  C   UNL     1       3.379  -7.659  26.798  0.00  0.00    +0.234 C 
ATOM     28  O   UNL     1       3.929  -7.929  25.748  0.00  0.00    -0.274 OA
ATOM     29  N   UNL     1       2.173  -6.976  27.031  0.00  0.00    -0.302 N 
ATOM     30  H   UNL     1       1.686  -7.745  27.511  0.00  0.00    +0.150 HD
ENDROOT
BRANCH  11  31
ATOM     31  C   UNL     1       6.853   5.920  26.348  0.00  0.00    +0.237 C 
ATOM     32  N   UNL     1       7.743   5.884  25.205  0.00  0.00    -0.288 N 
ATOM     33  C   UNL     1       7.587   5.205  23.919  0.00  0.00    +0.162 C 
ATOM     34  C   UNL     1       8.475   5.942  22.833  0.00  0.00    +0.033 C 
ATOM     35  C   UNL     1       9.170   7.108  23.500  0.00  0.00    +0.021 C 
ATOM     36  C   UNL     1       8.992   6.807  25.007  0.00  0.00    +0.109 C 
ATOM     37  O   UNL     1       6.977   7.101  26.804  0.00  0.00    -0.274 OA
BRANCH  33  38
ATOM     38  C   UNL     1       8.146   3.794  24.062  0.00  0.00    +0.234 C 
ATOM     39  N   UNL     1       8.773   3.257  22.970  0.00  0.00    -0.302 N 
ATOM     40  H   UNL     1       8.886   3.771  22.103  0.00  0.00    +0.150 HD
ATOM     41  O   UNL     1       8.072   3.156  25.111  0.00  0.00    -0.274 OA
BRANCH  39  42
ATOM     42  C   UNL     1       9.317   1.899  23.051  0.00  0.00    +0.159 C 
BRANCH  42  43
ATOM     43  C   UNL     1       8.282   0.921  23.582  0.00  0.00    +0.234 C 
ATOM     44  N   UNL     1       7.178   0.615  22.818  0.00  0.00    -0.305 N 
ATOM     45  H   UNL     1       7.259   0.756  21.823  0.00  0.00    +0.149 HD
ATOM     46  O   UNL     1       8.581   0.291  24.588  0.00  0.00    -0.274 OA
BRANCH  44  47
ATOM     47  C   UNL     1       6.287  -0.474  23.232  0.00  0.00    +0.199 C 
BRANCH  47  48
ATOM     48  C   UNL     1       6.741  -1.894  22.869  0.00  0.00    +0.228 C 
ATOM     49  O   UNL     1       6.020  -2.733  22.333  0.00  0.00    -0.274 OA
ATOM     50  N   UNL     1       7.970  -2.311  23.244  0.00  0.00    -0.328 N 
ATOM     51  H   UNL     1       8.165  -3.241  22.896  0.00  0.00    +0.145 HD
ATOM     52  H   UNL     1       8.157  -2.177  24.223  0.00  0.00    +0.145 HD
ENDBRANCH  47  48
ENDBRANCH  44  47
ENDBRANCH  42  43
BRANCH  42  53
ATOM     53  C   UNL     1      10.534   1.843  23.991  0.00  0.00    +0.035 C 
BRANCH  53  54
ATOM     54  C   UNL     1      11.599   2.940  23.771  0.00  0.00    +0.039 C 
BRANCH  54  55
ATOM     55  C   UNL     1      11.324   3.857  22.594  0.00  0.00    +0.196 C 
BRANCH  55  56
ATOM     56  N   UNL     1      11.786   5.202  22.842  0.00  0.00    -0.276 N 
ATOM     57  H   UNL     1      11.599   5.485  23.797  0.00  0.00    +0.258 HD
ATOM     58  C   UNL     1      13.013   5.573  22.424  0.00  0.00    +0.376 C 
ATOM     59  N   UNL     1      13.750   4.982  21.565  0.00  0.00    -0.130 NA
ATOM     60  H   UNL     1      13.343   4.122  21.208  0.00  0.00    +0.306 HD
ATOM     61  N   UNL     1      13.483   6.673  23.012  0.00  0.00    -0.289 N 
ATOM     62  H   UNL     1      14.311   7.077  22.596  0.00  0.00    +0.255 HD
ATOM     63  H   UNL     1      12.969   7.200  23.694  0.00  0.00    +0.255 HD
ENDBRANCH  55  56
ENDBRANCH  54  55
ENDBRANCH  53  54
ENDBRANCH  42  53
ENDBRANCH  39  42
ENDBRANCH  33  38
ENDBRANCH  11  31
BRANCH  26  64
ATOM     64  C   UNL     1       2.948  -7.260  29.316  0.00  0.00    +0.067 C 
BRANCH  64  65
ATOM     65  C   UNL     1       2.145  -8.552  29.313  0.00  0.00    -0.045 A 
ATOM     66  C   UNL     1       1.741  -9.230  30.483  0.00  0.00    +0.004 A 
ATOM     67  C   UNL     1       1.010 -10.424  30.388  0.00  0.00    +0.000 A 
ATOM     68  C   UNL     1       0.598 -10.891  29.142  0.00  0.00    +0.000 A 
ATOM     69  C   UNL     1       0.964 -10.205  27.991  0.00  0.00    +0.000 A 
ATOM     70  C   UNL     1       1.775  -9.084  28.078  0.00  0.00    +0.004 A 
ENDBRANCH  64  65
ENDBRANCH  26  64
BRANCH  21  71
ATOM     71  C   UNL     1       5.035  -3.835  25.642  0.00  0.00    +0.067 C 
BRANCH  71  72
ATOM     72  C   UNL     1       6.463  -4.281  25.666  0.00  0.00    -0.045 A 
ATOM     73  C   UNL     1       7.319  -3.788  26.650  0.00  0.00    +0.007 A 
ATOM     74  C   UNL     1       8.660  -4.124  26.676  0.00  0.00    +0.045 A 
ATOM     75  C   UNL     1       9.124  -5.067  25.780  0.00  0.00    +0.117 A 
ATOM     76  C   UNL     1       8.288  -5.600  24.801  0.00  0.00    +0.045 A 
ATOM     77  C   UNL     1       6.963  -5.175  24.718  0.00  0.00    +0.007 A 
BRANCH  75  78
ATOM     78  O   UNL     1      10.420  -5.464  25.905  0.00  0.00    -0.507 OA
ATOM     79  H   UNL     1      10.760  -5.093  26.734  0.00  0.00    +0.292 HD
ENDBRANCH  75  78
ENDBRANCH  71  72
ENDBRANCH  21  71
BRANCH   6  80
ATOM     80  C   UNL     1       1.064   1.711  27.508  0.00  0.00    +0.127 C 
BRANCH  80  81
ATOM     81  C   UNL     1       1.205   3.220  28.575  0.00  0.00    +0.213 C 
ATOM     82  O   UNL     1       0.493   4.256  28.515  0.00  0.00    -0.276 OA
ATOM     83  N   UNL     1       2.051   3.322  29.681  0.00  0.00    -0.329 N 
ATOM     84  H   UNL     1       2.074   4.270  30.093  0.00  0.00    +0.145 HD
ATOM     85  H   UNL     1       1.784   2.749  30.476  0.00  0.00    +0.145 HD
ENDBRANCH  80  81
ENDBRANCH   6  80
BRANCH   1  86
ATOM     86  C   UNL     1       0.443  -7.732  25.945  0.00  0.00    +0.041 C 
BRANCH  86  87
ATOM     87  C   UNL     1       0.572  -9.241  24.515  0.00  0.00    +0.098 C 
BRANCH  87  91
ATOM     88  N   UNL     1       1.041  -8.455  21.470  0.00  0.00    -0.329 N 
ATOM     89  H   UNL     1       1.335  -7.479  21.288  0.00  0.00    +0.145 HD
ATOM     90  H   UNL     1       1.023  -8.824  20.476  0.00  0.00    +0.145 HD
ATOM     91  C   UNL     1       0.737  -9.443  22.556  0.00  0.00    +0.211 C 
ATOM     92  O   UNL     1       0.481 -10.517  22.006  0.00  0.00    -0.276 OA
ENDBRANCH  87  91
ENDBRANCH  86  87
ENDBRANCH   1  86
TORSDOF 20
ENDMDL
MODEL 2
REMARK VINA RESULT:      -3.6      2.691     12.377
REMARK  Name = 
REMARK  20 active torsions:
REMARK  status: ('A' for Active; 'I' for Inactive)
REMARK    1  A    between atoms: C_2  and  C_4
REMARK    2  A    between atoms: C_4  and  C_5
REMARK    3  A    between atoms: C_5  and  C_6
REMARK    4  A    between atoms: C_11  and  C_13
REMARK    5  A    between atoms: C_13  and  C_14
REMARK    6  A    between atoms: C_23  and  C_25
REMARK    7  A    between atoms: C_25  and  C_26
REMARK    8  A    between atoms: C_29  and  O_30
REMARK    9  A    between atoms: C_41  and  C_55
REMARK   10  A    between atoms: C_46  and  C_48
REMARK   11  A    between atoms: C_48  and  C_49
REMARK   12  A    between atoms: C_61  and  C_63
REMARK   13  A    between atoms: N_65  and  C_66
REMARK   14  A    between atoms: C_66  and  C_68
REMARK   15  A    between atoms: C_66  and  C_75
REMARK   16  A    between atoms: C_68  and  C_69
REMARK   17  A    between atoms: C_69  and  C_70
REMARK   18  A    between atoms: C_70  and  N_71
REMARK   19  A    between atoms: N_77  and  C_78
REMARK   20  A    between atoms: C_78  and  C_79
REMARK                            x       y       z     vdW  Elec       q    Type
REMARK                         _______ _______ _______ _____ _____    ______ ____
ROOT
ATOM      1  C   UNL     1       8.830   3.712  24.065  0.00  0.00    +0.159 C 
ATOM      2  C   UNL     1       8.646   1.530  24.523  0.00  0.00    +0.234 C 
ATOM      3  O   UNL     1       8.981   0.896  23.506  0.00  0.00    -0.274 OA
ATOM      4  N   UNL     1       7.955  -0.001  25.514  0.00  0.00    -0.302 N 
ATOM      5  H   UNL     1       8.234  -0.504  24.768  0.00  0.00    +0.150 HD
ATOM      6  C   UNL     1       7.444  -1.865  26.417  0.00  0.00    +0.168 C 
ATOM      7  C   UNL     1       6.312  -3.670  26.476  0.00  0.00    +0.234 C 
ATOM      8  O   UNL     1       6.724  -4.468  25.613  0.00  0.00    -0.274 OA
ATOM      9  N   UNL     1       5.385  -4.668  27.604  0.00  0.00    -0.302 N 
ATOM     10  H   UNL     1       6.067  -5.431  27.559  0.00  0.00    +0.150 HD
ATOM     11  C   UNL     1       4.024  -6.002  27.979  0.00  0.00    +0.170 C 
ATOM     12  C   UNL     1       3.384  -5.445  29.386  0.00  0.00    +0.112 C 
ATOM     13  S   UNL     1       2.439  -3.981  28.941  0.00  0.00    -0.091 S 
ATOM     14  S   UNL     1       3.851  -2.590  29.324  0.00  0.00    -0.093 S 
ATOM     15  C   UNL     1       4.213  -1.999  27.675  0.00  0.00    +0.090 C 
ATOM     16  C   UNL     1       4.649  -0.600  27.877  0.00  0.00    +0.107 C 
ATOM     17  C   UNL     1       4.987  -0.047  26.551  0.00  0.00    +0.214 C 
ATOM     18  O   UNL     1       5.162  -0.690  25.528  0.00  0.00    -0.276 OA
ATOM     19  N   UNL     1       5.128   1.289  26.650  0.00  0.00    -0.304 N 
ATOM     20  H   UNL     1       5.406   1.666  27.556  0.00  0.00    +0.149 HD
ATOM     21  C   UNL     1       5.595   2.009  25.526  0.00  0.00    +0.163 C 
ATOM     22  C   UNL     1       5.834   3.356  26.157  0.00  0.00    +0.234 C 
ATOM     23  O   UNL     1       5.995   3.561  27.355  0.00  0.00    -0.274 OA
ATOM     24  N   UNL     1       5.986   4.304  25.249  0.00  0.00    -0.302 N 
ATOM     25  H   UNL     1       6.152   3.967  24.291  0.00  0.00    +0.150 HD
ATOM     26  C   UNL     1       6.373   5.679  25.537  0.00  0.00    +0.163 C 
ATOM     27  C   UNL     1       6.880   5.729  24.107  0.00  0.00    +0.234 C 
ATOM     28  O   UNL     1       6.216   5.776  23.089  0.00  0.00    -0.274 OA
ATOM     29  N   UNL     1       8.056   5.010  24.379  0.00  0.00    -0.302 N 
ATOM     30  H   UNL     1       8.654   5.821  24.581  0.00  0.00    +0.150 HD
ENDROOT
BRANCH  11  31
ATOM     31  C   UNL     1       2.441  -7.088  27.666  0.00  0.00    +0.237 C 
ATOM     32  N   UNL     1       1.938  -8.027  26.684  0.00  0.00    -0.288 N 
ATOM     33  C   UNL     1       2.665  -8.874  25.740  0.00  0.00    +0.162 C 
ATOM     34  C   UNL     1       1.757 -10.113  25.349  0.00  0.00    +0.033 C 
ATOM     35  C   UNL     1       0.450  -9.999  26.099  0.00  0.00    +0.021 C 
ATOM     36  C   UNL     1       0.458  -8.536  26.599  0.00  0.00    +0.109 C 
ATOM     37  O   UNL     1       1.644  -7.208  28.650  0.00  0.00    -0.274 OA
BRANCH  33  38
ATOM     38  C   UNL     1       2.890  -8.071  24.464  0.00  0.00    +0.234 C 
ATOM     39  N   UNL     1       3.799  -7.050  24.522  0.00  0.00    -0.302 N 
ATOM     40  H   UNL     1       4.322  -6.836  25.363  0.00  0.00    +0.150 HD
ATOM     41  O   UNL     1       2.311  -8.329  23.409  0.00  0.00    -0.274 OA
BRANCH  39  42
ATOM     42  C   UNL     1       4.043  -6.239  23.325  0.00  0.00    +0.159 C 
BRANCH  42  43
ATOM     43  C   UNL     1       5.298  -5.397  23.476  0.00  0.00    +0.234 C 
ATOM     44  N   UNL     1       6.459  -5.785  22.843  0.00  0.00    -0.305 N 
ATOM     45  H   UNL     1       6.361  -6.387  22.040  0.00  0.00    +0.149 HD
ATOM     46  O   UNL     1       5.167  -4.296  23.992  0.00  0.00    -0.274 OA
BRANCH  44  47
ATOM     47  C   UNL     1       7.610  -4.877  22.816  0.00  0.00    +0.199 C 
BRANCH  47  48
ATOM     48  C   UNL     1       7.362  -3.489  22.211  0.00  0.00    +0.228 C 
ATOM     49  O   UNL     1       6.439  -3.225  21.443  0.00  0.00    -0.274 OA
ATOM     50  N   UNL     1       8.258  -2.501  22.434  0.00  0.00    -0.328 N 
ATOM     51  H   UNL     1       7.949  -1.626  22.028  0.00  0.00    +0.145 HD
ATOM     52  H   UNL     1       9.203  -2.760  22.213  0.00  0.00    +0.145 HD
ENDBRANCH  47  48
ENDBRANCH  44  47
ENDBRANCH  42  43
BRANCH  42  53
ATOM     53  C   UNL     1       2.870  -5.280  23.055  0.00  0.00    +0.035 C 
BRANCH  53  54
ATOM     54  C   UNL     1       1.472  -5.935  22.991  0.00  0.00    +0.039 C 
BRANCH  54  55
ATOM     55  C   UNL     1       0.447  -5.322  23.926  0.00  0.00    +0.196 C 
BRANCH  55  56
ATOM     56  N   UNL     1       1.067  -4.714  25.078  0.00  0.00    -0.276 N 
ATOM     57  H   UNL     1       1.953  -5.156  25.297  0.00  0.00    +0.258 HD
ATOM     58  C   UNL     1       1.124  -3.370  25.174  0.00  0.00    +0.376 C 
ATOM     59  N   UNL     1       0.443  -2.517  24.512  0.00  0.00    -0.130 NA
ATOM     60  H   UNL     1      -0.174  -2.940  23.824  0.00  0.00    +0.306 HD
ATOM     61  N   UNL     1       2.020  -2.920  26.052  0.00  0.00    -0.289 N 
ATOM     62  H   UNL     1       1.962  -1.937  26.279  0.00  0.00    +0.255 HD
ATOM     63  H   UNL     1       2.594  -3.520  26.616  0.00  0.00    +0.255 HD
ENDBRANCH  55  56
ENDBRANCH  54  55
ENDBRANCH  53  54
ENDBRANCH  42  53
ENDBRANCH  39  42
ENDBRANCH  33  38
ENDBRANCH  11  31
BRANCH  26  64
ATOM     64  C   UNL     1       7.611   5.945  26.578  0.00  0.00    +0.067 C 
BRANCH  64  65
ATOM     65  C   UNL     1       7.126   6.327  27.968  0.00  0.00    -0.045 A 
ATOM     66  C   UNL     1       7.984   6.550  29.067  0.00  0.00    +0.004 A 
ATOM     67  C   UNL     1       7.451   6.889  30.320  0.00  0.00    +0.000 A 
ATOM     68  C   UNL     1       6.082   7.102  30.459  0.00  0.00    +0.000 A 
ATOM     69  C   UNL     1       5.240   6.918  29.370  0.00  0.00    +0.000 A 
ATOM     70  C   UNL     1       5.754   6.481  28.159  0.00  0.00    +0.004 A 
ENDBRANCH  64  65
ENDBRANCH  26  64
BRANCH  21  71
ATOM     71  C   UNL     1       4.824   1.926  24.197  0.00  0.00    +0.067 C 
BRANCH  71  72
ATOM     72  C   UNL     1       3.825   3.024  24.005  0.00  0.00    -0.045 A 
ATOM     73  C   UNL     1       3.246   3.626  25.121  0.00  0.00    +0.007 A 
ATOM     74  C   UNL     1       2.274   4.603  24.992  0.00  0.00    +0.045 A 
ATOM     75  C   UNL     1       1.971   5.073  23.730  0.00  0.00    +0.117 A 
ATOM     76  C   UNL     1       2.554   4.511  22.595  0.00  0.00    +0.045 A 
ATOM     77  C   UNL     1       3.453   3.455  22.731  0.00  0.00    +0.007 A 
BRANCH  75  78
ATOM     78  O   UNL     1       1.098   6.114  23.642  0.00  0.00    -0.507 OA
ATOM     79  H   UNL     1       1.259   6.693  24.403  0.00  0.00    +0.292 HD
ENDBRANCH  75  78
ENDBRANCH  71  72
ENDBRANCH  21  71
BRANCH   6  80
ATOM     80  C   UNL     1       8.611  -3.334  27.025  0.00  0.00    +0.127 C 
BRANCH  80  81
ATOM     81  C   UNL     1       9.530  -4.660  26.111  0.00  0.00    +0.213 C 
ATOM     82  O   UNL     1      10.705  -4.594  25.667  0.00  0.00    -0.276 OA
ATOM     83  N   UNL     1       9.053  -5.959  25.929  0.00  0.00    -0.329 N 
ATOM     84  H   UNL     1       9.651  -6.531  25.307  0.00  0.00    +0.145 HD
ATOM     85  H   UNL     1       9.020  -6.523  26.772  0.00  0.00    +0.145 HD
ENDBRANCH  80  81
ENDBRANCH   6  80
BRANCH   1  86
ATOM     86  C   UNL     1       9.675   5.282  22.949  0.00  0.00    +0.041 C 
BRANCH  86  87
ATOM     87  C   UNL     1      11.474   6.236  22.507  0.00  0.00    +0.098 C 
BRANCH  87  91
ATOM     88  N   UNL     1      14.601   6.717  22.198  0.00  0.00    -0.329 N 
ATOM     89  H   UNL     1      14.891   7.650  21.855  0.00  0.00    +0.145 HD
ATOM     90  H   UNL     1      15.555   6.269  22.322  0.00  0.00    +0.145 HD
ATOM     91  C   UNL     1      13.417   5.894  22.609  0.00  0.00    +0.211 C 
ATOM     92  O   UNL     1      13.850   4.800  22.983  0.00  0.00    -0.276 OA
ENDBRANCH  87  91
ENDBRANCH  86  87
ENDBRANCH   1  86
TORSDOF 20
ENDMDL
MODEL 3
REMARK VINA RESULT:      -2.9      2.728     12.387
REMARK  Name = 
REMARK  20 active torsions:
REMARK  status: ('A' for Active; 'I' for Inactive)
REMARK    1  A    between atoms: C_2  and  C_4
REMARK    2  A    between atoms: C_4  and  C_5
REMARK    3  A    between atoms: C_5  and  C_6
REMARK    4  A    between atoms: C_11  and  C_13
REMARK    5  A    between atoms: C_13  and  C_14
REMARK    6  A    between atoms: C_23  and  C_25
REMARK    7  A    between atoms: C_25  and  C_26
REMARK    8  A    between atoms: C_29  and  O_30
REMARK    9  A    between atoms: C_41  and  C_55
REMARK   10  A    between atoms: C_46  and  C_48
REMARK   11  A    between atoms: C_48  and  C_49
REMARK   12  A    between atoms: C_61  and  C_63
REMARK   13  A    between atoms: N_65  and  C_66
REMARK   14  A    between atoms: C_66  and  C_68
REMARK   15  A    between atoms: C_66  and  C_75
REMARK   16  A    between atoms: C_68  and  C_69
REMARK   17  A    between atoms: C_69  and  C_70
REMARK   18  A    between atoms: C_70  and  N_71
REMARK   19  A    between atoms: N_77  and  C_78
REMARK   20  A    between atoms: C_78  and  C_79
REMARK                            x       y       z     vdW  Elec       q    Type
REMARK                         _______ _______ _______ _____ _____    ______ ____
ROOT
ATOM      1  C   UNL     1       9.513   3.891  23.589  0.00  0.00    +0.159 C 
ATOM      2  C   UNL     1       9.222   1.754  24.183  0.00  0.00    +0.234 C 
ATOM      3  O   UNL     1       9.468   1.044  23.191  0.00  0.00    -0.274 OA
ATOM      4  N   UNL     1       8.491   0.326  25.294  0.00  0.00    -0.302 N 
ATOM      5  H   UNL     1       8.702  -0.234  24.567  0.00  0.00    +0.150 HD
ATOM      6  C   UNL     1       7.916  -1.448  26.328  0.00  0.00    +0.168 C 
ATOM      7  C   UNL     1       6.683  -3.174  26.546  0.00  0.00    +0.234 C 
ATOM      8  O   UNL     1       7.004  -4.042  25.713  0.00  0.00    -0.274 OA
ATOM      9  N   UNL     1       5.756  -4.047  27.772  0.00  0.00    -0.302 N 
ATOM     10  H   UNL     1       6.388  -4.852  27.741  0.00  0.00    +0.150 HD
ATOM     11  C   UNL     1       4.338  -5.271  28.287  0.00  0.00    +0.170 C 
ATOM     12  C   UNL     1       3.803  -4.597  29.687  0.00  0.00    +0.112 C 
ATOM     13  S   UNL     1       2.926  -3.105  29.201  0.00  0.00    -0.091 S 
ATOM     14  S   UNL     1       4.434  -1.785  29.435  0.00  0.00    -0.093 S 
ATOM     15  C   UNL     1       4.749  -1.310  27.739  0.00  0.00    +0.090 C 
ATOM     16  C   UNL     1       5.277   0.067  27.838  0.00  0.00    +0.107 C 
ATOM     17  C   UNL     1       5.581   0.524  26.467  0.00  0.00    +0.214 C 
ATOM     18  O   UNL     1       5.667  -0.186  25.477  0.00  0.00    -0.276 OA
ATOM     19  N   UNL     1       5.805   1.851  26.481  0.00  0.00    -0.304 N 
ATOM     20  H   UNL     1       6.150   2.261  27.349  0.00  0.00    +0.149 HD
ATOM     21  C   UNL     1       6.258   2.477  25.296  0.00  0.00    +0.163 C 
ATOM     22  C   UNL     1       6.608   3.839  25.835  0.00  0.00    +0.234 C 
ATOM     23  O   UNL     1       6.840   4.101  27.009  0.00  0.00    -0.274 OA
ATOM     24  N   UNL     1       6.771   4.724  24.865  0.00  0.00    -0.302 N 
ATOM     25  H   UNL     1       6.868   4.324  23.923  0.00  0.00    +0.150 HD
ATOM     26  C   UNL     1       7.253   6.086  25.054  0.00  0.00    +0.163 C 
ATOM     27  C   UNL     1       7.690   6.024  23.601  0.00  0.00    +0.234 C 
ATOM     28  O   UNL     1       6.980   6.055  22.615  0.00  0.00    -0.274 OA
ATOM     29  N   UNL     1       8.833   5.249  23.861  0.00  0.00    -0.302 N 
ATOM     30  H   UNL     1       9.488   6.032  23.987  0.00  0.00    +0.150 HD
ENDROOT
BRANCH  11  31
ATOM     31  C   UNL     1       2.679  -6.273  28.113  0.00  0.00    +0.237 C 
ATOM     32  N   UNL     1       2.075  -7.235  27.214  0.00  0.00    -0.288 N 
ATOM     33  C   UNL     1       2.705  -8.182  26.295  0.00  0.00    +0.162 C 
ATOM     34  C   UNL     1       1.707  -9.382  26.022  0.00  0.00    +0.033 C 
ATOM     35  C   UNL     1       0.446  -9.141  26.820  0.00  0.00    +0.021 C 
ATOM     36  C   UNL     1       0.565  -7.654  27.226  0.00  0.00    +0.109 C 
ATOM     37  O   UNL     1       1.925  -6.282  29.136  0.00  0.00    -0.274 OA
BRANCH  33  38
ATOM     38  C   UNL     1       2.917  -7.472  24.963  0.00  0.00    +0.234 C 
ATOM     39  N   UNL     1       2.239  -6.300  24.764  0.00  0.00    -0.302 N 
ATOM     40  H   UNL     1       1.633  -5.898  25.471  0.00  0.00    +0.150 HD
ATOM     41  O   UNL     1       3.680  -7.903  24.098  0.00  0.00    -0.274 OA
BRANCH  39  42
ATOM     42  C   UNL     1       2.399  -5.586  23.495  0.00  0.00    +0.159 C 
BRANCH  42  43
ATOM     43  C   UNL     1       1.493  -6.162  22.420  0.00  0.00    +0.234 C 
ATOM     44  N   UNL     1       1.741  -7.423  21.923  0.00  0.00    -0.305 N 
ATOM     45  H   UNL     1       2.270  -8.049  22.510  0.00  0.00    +0.149 HD
ATOM     46  O   UNL     1       0.457  -5.555  22.186  0.00  0.00    -0.274 OA
BRANCH  44  47
ATOM     47  C   UNL     1       0.760  -8.062  21.040  0.00  0.00    +0.199 C 
BRANCH  47  48
ATOM     48  C   UNL     1       1.242  -8.396  19.622  0.00  0.00    +0.228 C 
ATOM     49  O   UNL     1       2.359  -8.833  19.358  0.00  0.00    -0.274 OA
ATOM     50  N   UNL     1       0.448  -8.103  18.569  0.00  0.00    -0.328 N 
ATOM     51  H   UNL     1       0.857  -8.424  17.700  0.00  0.00    +0.145 HD
ATOM     52  H   UNL     1       0.129  -7.150  18.560  0.00  0.00    +0.145 HD
ENDBRANCH  47  48
ENDBRANCH  44  47
ENDBRANCH  42  43
BRANCH  42  53
ATOM     53  C   UNL     1       3.847  -5.681  22.982  0.00  0.00    +0.035 C 
BRANCH  53  54
ATOM     54  C   UNL     1       4.598  -4.337  22.850  0.00  0.00    +0.039 C 
BRANCH  54  55
ATOM     55  C   UNL     1       5.759  -4.358  21.874  0.00  0.00    +0.196 C 
BRANCH  55  56
ATOM     56  N   UNL     1       7.028  -4.212  22.545  0.00  0.00    -0.276 N 
ATOM     57  H   UNL     1       7.762  -4.717  22.061  0.00  0.00    +0.258 HD
ATOM     58  C   UNL     1       7.427  -2.992  22.959  0.00  0.00    +0.376 C 
ATOM     59  N   UNL     1       6.706  -1.949  23.102  0.00  0.00    -0.130 NA
ATOM     60  H   UNL     1       5.736  -2.088  22.831  0.00  0.00    +0.306 HD
ATOM     61  N   UNL     1       8.732  -2.900  23.216  0.00  0.00    -0.289 N 
ATOM     62  H   UNL     1       9.030  -2.062  23.695  0.00  0.00    +0.255 HD
ATOM     63  H   UNL     1       9.369  -3.671  23.133  0.00  0.00    +0.255 HD
ENDBRANCH  55  56
ENDBRANCH  54  55
ENDBRANCH  53  54
ENDBRANCH  42  53
ENDBRANCH  39  42
ENDBRANCH  33  38
ENDBRANCH  11  31
BRANCH  26  64
ATOM     64  C   UNL     1       8.554   6.332  26.019  0.00  0.00    +0.067 C 
BRANCH  64  65
ATOM     65  C   UNL     1       8.160   6.622  27.459  0.00  0.00    -0.045 A 
ATOM     66  C   UNL     1       6.826   6.639  27.922  0.00  0.00    +0.004 A 
ATOM     67  C   UNL     1       6.551   6.927  29.267  0.00  0.00    +0.000 A 
ATOM     68  C   UNL     1       7.597   7.101  30.170  0.00  0.00    +0.000 A 
ATOM     69  C   UNL     1       8.911   7.050  29.724  0.00  0.00    +0.000 A 
ATOM     70  C   UNL     1       9.181   6.869  28.376  0.00  0.00    +0.004 A 
ENDBRANCH  64  65
ENDBRANCH  26  64
BRANCH  21  71
ATOM     71  C   UNL     1       5.418   2.367  24.011  0.00  0.00    +0.067 C 
BRANCH  71  72
ATOM     72  C   UNL     1       4.239   3.289  23.976  0.00  0.00    -0.045 A 
ATOM     73  C   UNL     1       3.921   3.949  22.789  0.00  0.00    +0.007 A 
ATOM     74  C   UNL     1       2.878   4.855  22.726  0.00  0.00    +0.045 A 
ATOM     75  C   UNL     1       2.064   5.008  23.829  0.00  0.00    +0.117 A 
ATOM     76  C   UNL     1       2.339   4.342  25.022  0.00  0.00    +0.045 A 
ATOM     77  C   UNL     1       3.455   3.511  25.108  0.00  0.00    +0.007 A 
BRANCH  75  78
ATOM     78  O   UNL     1       0.978   5.818  23.699  0.00  0.00    -0.507 OA
ATOM     79  H   UNL     1       0.245   5.403  24.181  0.00  0.00    +0.292 HD
ENDBRANCH  75  78
ENDBRANCH  71  72
ENDBRANCH  21  71
BRANCH   6  80
ATOM     80  C   UNL     1       9.022  -2.951  26.967  0.00  0.00    +0.127 C 
BRANCH  80  81
ATOM     81  C   UNL     1       9.611  -4.507  26.148  0.00  0.00    +0.213 C 
ATOM     82  O   UNL     1      10.641  -4.642  25.439  0.00  0.00    -0.276 OA
ATOM     83  N   UNL     1       9.032  -5.761  26.343  0.00  0.00    -0.329 N 
ATOM     84  H   UNL     1       9.425  -6.494  25.727  0.00  0.00    +0.145 HD
ATOM     85  H   UNL     1       9.177  -6.158  27.267  0.00  0.00    +0.145 HD
ENDBRANCH  80  81
ENDBRANCH   6  80
BRANCH   1  86
ATOM     86  C   UNL     1      10.392   5.340  22.344  0.00  0.00    +0.041 C 
BRANCH  86  87
ATOM     87  C   UNL     1      12.212   5.984  21.561  0.00  0.00    +0.098 C 
BRANCH  87  91
ATOM     88  N   UNL     1      14.987   5.160  22.876  0.00  0.00    -0.329 N 
ATOM     89  H   UNL     1      15.023   4.228  23.327  0.00  0.00    +0.145 HD
ATOM     90  H   UNL     1      15.983   5.480  23.049  0.00  0.00    +0.145 HD
ATOM     91  C   UNL     1      14.117   6.083  22.077  0.00  0.00    +0.211 C 
ATOM     92  O   UNL     1      14.791   7.085  21.823  0.00  0.00    -0.276 OA
ENDBRANCH  87  91
ENDBRANCH  86  87
ENDBRANCH   1  86
TORSDOF 20
ENDMDL
MODEL 4
REMARK VINA RESULT:      -1.5      2.531      3.566
REMARK  Name = 
REMARK  20 active torsions:
REMARK  status: ('A' for Active; 'I' for Inactive)
REMARK    1  A    between atoms: C_2  and  C_4
REMARK    2  A    between atoms: C_4  and  C_5
REMARK    3  A    between atoms: C_5  and  C_6
REMARK    4  A    between atoms: C_11  and  C_13
REMARK    5  A    between atoms: C_13  and  C_14
REMARK    6  A    between atoms: C_23  and  C_25
REMARK    7  A    between atoms: C_25  and  C_26
REMARK    8  A    between atoms: C_29  and  O_30
REMARK    9  A    between atoms: C_41  and  C_55
REMARK   10  A    between atoms: C_46  and  C_48
REMARK   11  A    between atoms: C_48  and  C_49
REMARK   12  A    between atoms: C_61  and  C_63
REMARK   13  A    between atoms: N_65  and  C_66
REMARK   14  A    between atoms: C_66  and  C_68
REMARK   15  A    between atoms: C_66  and  C_75
REMARK   16  A    between atoms: C_68  and  C_69
REMARK   17  A    between atoms: C_69  and  C_70
REMARK   18  A    between atoms: C_70  and  N_71
REMARK   19  A    between atoms: N_77  and  C_78
REMARK   20  A    between atoms: C_78  and  C_79
REMARK                            x       y       z     vdW  Elec       q    Type
REMARK                         _______ _______ _______ _____ _____    ______ ____
ROOT
ATOM      1  C   UNL     1       0.989  -6.420  24.289  0.00  0.00    +0.159 C 
ATOM      2  C   UNL     1       1.049  -4.209  24.631  0.00  0.00    +0.234 C 
ATOM      3  O   UNL     1       0.966  -3.649  23.523  0.00  0.00    -0.274 OA
ATOM      4  N   UNL     1       1.475  -2.604  25.653  0.00  0.00    -0.302 N 
ATOM      5  H   UNL     1       1.382  -2.156  24.831  0.00  0.00    +0.150 HD
ATOM      6  C   UNL     1       1.746  -0.677  26.526  0.00  0.00    +0.168 C 
ATOM      7  C   UNL     1       2.823   1.152  26.733  0.00  0.00    +0.234 C 
ATOM      8  O   UNL     1       2.628   1.883  25.745  0.00  0.00    -0.274 OA
ATOM      9  N   UNL     1       3.448   2.238  27.981  0.00  0.00    -0.302 N 
ATOM     10  H   UNL     1       2.794   2.982  27.722  0.00  0.00    +0.150 HD
ATOM     11  C   UNL     1       4.673   3.620  28.581  0.00  0.00    +0.170 C 
ATOM     12  C   UNL     1       4.957   3.168  30.134  0.00  0.00    +0.112 C 
ATOM     13  S   UNL     1       5.987   1.698  30.029  0.00  0.00    -0.091 S 
ATOM     14  S   UNL     1       4.531   0.306  30.154  0.00  0.00    -0.093 S 
ATOM     15  C   UNL     1       4.579  -0.398  28.510  0.00  0.00    +0.090 C 
ATOM     16  C   UNL     1       4.112  -1.788  28.695  0.00  0.00    +0.107 C 
ATOM     17  C   UNL     1       4.106  -2.433  27.367  0.00  0.00    +0.214 C 
ATOM     18  O   UNL     1       4.180  -1.860  26.291  0.00  0.00    -0.276 OA
ATOM     19  N   UNL     1       3.951  -3.762  27.519  0.00  0.00    -0.304 N 
ATOM     20  H   UNL     1       3.464  -4.085  28.355  0.00  0.00    +0.149 HD
ATOM     21  C   UNL     1       3.770  -4.562  26.367  0.00  0.00    +0.163 C 
ATOM     22  C   UNL     1       3.392  -5.870  27.011  0.00  0.00    +0.234 C 
ATOM     23  O   UNL     1       2.948  -6.001  28.146  0.00  0.00    -0.274 OA
ATOM     24  N   UNL     1       3.467  -6.878  26.158  0.00  0.00    -0.302 N 
ATOM     25  H   UNL     1       3.535  -6.606  25.169  0.00  0.00    +0.150 HD
ATOM     26  C   UNL     1       3.027  -8.238  26.437  0.00  0.00    +0.163 C 
ATOM     27  C   UNL     1       2.880  -8.391  24.934  0.00  0.00    +0.234 C 
ATOM     28  O   UNL     1       3.770  -8.490  24.111  0.00  0.00    -0.274 OA
ATOM     29  N   UNL     1       1.670  -7.678  24.867  0.00  0.00    -0.302 N 
ATOM     30  H   UNL     1       1.044  -8.487  24.974  0.00  0.00    +0.150 HD
ENDROOT
BRANCH  11  31
ATOM     31  C   UNL     1       6.281   4.716  28.585  0.00  0.00    +0.237 C 
ATOM     32  N   UNL     1       7.206   5.300  27.635  0.00  0.00    -0.288 N 
ATOM     33  C   UNL     1       7.006   5.657  26.232  0.00  0.00    +0.162 C 
ATOM     34  C   UNL     1       8.049   6.780  25.829  0.00  0.00    +0.033 C 
ATOM     35  C   UNL     1       8.888   7.107  27.043  0.00  0.00    +0.021 C 
ATOM     36  C   UNL     1       8.594   5.928  28.000  0.00  0.00    +0.109 C 
ATOM     37  O   UNL     1       6.569   5.277  29.689  0.00  0.00    -0.274 OA
BRANCH  33  38
ATOM     38  C   UNL     1       7.327   4.432  25.384  0.00  0.00    +0.234 C 
ATOM     39  N   UNL     1       6.276   3.638  25.012  0.00  0.00    -0.302 N 
ATOM     40  H   UNL     1       5.318   3.852  25.264  0.00  0.00    +0.150 HD
ATOM     41  O   UNL     1       8.470   4.162  25.016  0.00  0.00    -0.274 OA
BRANCH  39  42
ATOM     42  C   UNL     1       6.533   2.440  24.207  0.00  0.00    +0.159 C 
BRANCH  42  43
ATOM     43  C   UNL     1       5.558   2.336  23.047  0.00  0.00    +0.234 C 
ATOM     44  N   UNL     1       4.376   3.043  23.084  0.00  0.00    -0.305 N 
ATOM     45  H   UNL     1       4.349   3.855  23.679  0.00  0.00    +0.149 HD
ATOM     46  O   UNL     1       5.961   1.782  22.033  0.00  0.00    -0.274 OA
BRANCH  44  47
ATOM     47  C   UNL     1       3.530   3.107  21.888  0.00  0.00    +0.199 C 
BRANCH  47  48
ATOM     48  C   UNL     1       2.415   4.161  21.904  0.00  0.00    +0.228 C 
ATOM     49  O   UNL     1       2.325   5.058  22.739  0.00  0.00    -0.274 OA
ATOM     50  N   UNL     1       1.397   4.059  21.021  0.00  0.00    -0.328 N 
ATOM     51  H   UNL     1       0.762   4.843  21.100  0.00  0.00    +0.145 HD
ATOM     52  H   UNL     1       0.956   3.156  21.020  0.00  0.00    +0.145 HD
ENDBRANCH  47  48
ENDBRANCH  44  47
ENDBRANCH  42  43
BRANCH  42  53
ATOM     53  C   UNL     1       6.390   1.161  25.050  0.00  0.00    +0.035 C 
BRANCH  53  54
ATOM     54  C   UNL     1       7.565   0.855  26.005  0.00  0.00    +0.039 C 
BRANCH  54  55
ATOM     55  C   UNL     1       8.490  -0.249  25.530  0.00  0.00    +0.196 C 
BRANCH  55  56
ATOM     56  N   UNL     1       9.384   0.209  24.492  0.00  0.00    -0.276 N 
ATOM     57  H   UNL     1      10.353   0.097  24.765  0.00  0.00    +0.258 HD
ATOM     58  C   UNL     1       9.162  -0.156  23.213  0.00  0.00    +0.376 C 
ATOM     59  N   UNL     1       8.086  -0.633  22.718  0.00  0.00    -0.130 NA
ATOM     60  H   UNL     1       7.351  -0.768  23.407  0.00  0.00    +0.306 HD
ATOM     61  N   UNL     1      10.216  -0.007  22.410  0.00  0.00    -0.289 N 
ATOM     62  H   UNL     1      10.034  -0.097  21.420  0.00  0.00    +0.255 HD
ATOM     63  H   UNL     1      11.098   0.363  22.715  0.00  0.00    +0.255 HD
ENDBRANCH  55  56
ENDBRANCH  54  55
ENDBRANCH  53  54
ENDBRANCH  42  53
ENDBRANCH  39  42
ENDBRANCH  33  38
ENDBRANCH  11  31
BRANCH  26  64
ATOM     64  C   UNL     1       1.576  -8.461  27.166  0.00  0.00    +0.067 C 
BRANCH  64  65
ATOM     65  C   UNL     1       1.247  -7.351  28.152  0.00  0.00    -0.045 A 
ATOM     66  C   UNL     1       0.708  -6.101  27.778  0.00  0.00    +0.004 A 
ATOM     67  C   UNL     1       0.444  -5.127  28.754  0.00  0.00    +0.000 A 
ATOM     68  C   UNL     1       0.620  -5.427  30.102  0.00  0.00    +0.000 A 
ATOM     69  C   UNL     1       1.116  -6.669  30.474  0.00  0.00    +0.000 A 
ATOM     70  C   UNL     1       1.476  -7.594  29.506  0.00  0.00    +0.004 A 
ENDBRANCH  64  65
ENDBRANCH  26  64
BRANCH  21  71
ATOM     71  C   UNL     1       4.839  -4.549  25.259  0.00  0.00    +0.067 C 
BRANCH  71  72
ATOM     72  C   UNL     1       6.244  -4.628  25.770  0.00  0.00    -0.045 A 
ATOM     73  C   UNL     1       7.165  -3.650  25.395  0.00  0.00    +0.007 A 
ATOM     74  C   UNL     1       8.488  -3.715  25.793  0.00  0.00    +0.045 A 
ATOM     75  C   UNL     1       8.866  -4.701  26.682  0.00  0.00    +0.117 A 
ATOM     76  C   UNL     1       7.961  -5.677  27.098  0.00  0.00    +0.045 A 
ATOM     77  C   UNL     1       6.657  -5.664  26.608  0.00  0.00    +0.007 A 
BRANCH  75  78
ATOM     78  O   UNL     1      10.144  -4.670  27.146  0.00  0.00    -0.507 OA
ATOM     79  H   UNL     1      10.732  -4.604  26.377  0.00  0.00    +0.292 HD
ENDBRANCH  75  78
ENDBRANCH  71  72
ENDBRANCH  21  71
BRANCH   6  80
ATOM     80  C   UNL     1       0.462   0.805  26.735  0.00  0.00    +0.127 C 
BRANCH  80  81
ATOM     81  C   UNL     1       0.490   2.348  27.763  0.00  0.00    +0.213 C 
ATOM     82  O   UNL     1       0.510   2.417  29.019  0.00  0.00    -0.276 OA
ATOM     83  N   UNL     1       0.632   3.634  27.241  0.00  0.00    -0.329 N 
ATOM     84  H   UNL     1       0.522   4.379  27.952  0.00  0.00    +0.145 HD
ATOM     85  H   UNL     1       1.549   3.839  26.857  0.00  0.00    +0.145 HD
ENDBRANCH  80  81
ENDBRANCH   6  80
BRANCH   1  86
ATOM     86  C   UNL     1       0.444  -8.075  23.112  0.00  0.00    +0.041 C 
BRANCH  86  87
ATOM     87  C   UNL     1       0.453  -8.811  21.163  0.00  0.00    +0.098 C 
BRANCH  87  91
ATOM     88  N   UNL     1       2.452  -9.024  18.699  0.00  0.00    -0.329 N 
ATOM     89  H   UNL     1       3.134  -9.802  18.727  0.00  0.00    +0.145 HD
ATOM     90  H   UNL     1       2.723  -8.583  17.773  0.00  0.00    +0.145 HD
ATOM     91  C   UNL     1       1.283  -8.415  19.413  0.00  0.00    +0.211 C 
ATOM     92  O   UNL     1       0.905  -7.456  18.735  0.00  0.00    -0.276 OA
ENDBRANCH  87  91
ENDBRANCH  86  87
ENDBRANCH   1  86
TORSDOF 20
ENDMDL
