MODEL 1
REMARK VINA RESULT:      -5.7      0.000      0.000
REMARK  Name = 
REMARK  2 active torsions:
REMARK  status: ('A' for Active; 'I' for Inactive)
REMARK    1  A    between atoms: CA_7  and  C_8
REMARK    2  A    between atoms: C_8  and  O_9
REMARK                            x       y       z     vdW  Elec       q    Type
REMARK                         _______ _______ _______ _____ _____    ______ ____
ROOT
ATOM      1  N   UNL     1       6.858  -6.039  27.801  0.00  0.00    -0.329 N 
ATOM      2  H   UNL     1       7.235  -6.958  27.995  0.00  0.00    +0.145 HD
ATOM      3  H   UNL     1       5.845  -5.999  27.847  0.00  0.00    +0.145 HD
ATOM      4  C   UNL     1       7.357  -5.367  26.737  0.00  0.00    +0.195 A 
ATOM      5  N   UNL     1       8.647  -5.621  26.408  0.00  0.00    -0.293 N 
ATOM      6  H   UNL     1       9.210  -6.251  26.955  0.00  0.00    +0.172 HD
ATOM      7  C   UNL     1       9.288  -4.976  25.392  0.00  0.00    +0.280 A 
ATOM      8  O   UNL     1      10.475  -5.198  25.159  0.00  0.00    -0.265 OA
ATOM      9  C   UNL     1       8.460  -4.002  24.617  0.00  0.00    +0.168 A 
ATOM     10  N   UNL     1       9.060  -3.295  23.581  0.00  0.00    -0.244 NA
ATOM     11  CA  UNL     1       8.346  -2.358  23.022  0.00  0.00    +0.062 C 
ATOM     12  C   UNL     1       6.908  -2.007  23.399  0.00  0.00    +0.156 C 
ATOM     13  N   UNL     1       6.356  -2.988  24.313  0.00  0.00    -0.322 N 
ATOM     14  H   UNL     1       5.530  -2.733  24.843  0.00  0.00    +0.148 HD
ATOM     15  C   UNL     1       7.169  -3.865  25.013  0.00  0.00    +0.154 A 
ATOM     16  N   UNL     1       6.620  -4.532  26.081  0.00  0.00    -0.199 NA
ENDROOT
BRANCH  11  17
ATOM     17  C   UNL     1       8.990  -1.508  21.938  0.00  0.00    +0.208 C 
BRANCH  17  18
ATOM     18  O   UNL     1      10.371  -1.791  21.812  0.00  0.00    -0.389 OA
ATOM     19  H   UNL     1      10.722  -1.870  22.719  0.00  0.00    +0.210 HD
ENDBRANCH  17  18
ENDBRANCH  11  17
TORSDOF 2
ENDMDL
MODEL 2
REMARK VINA RESULT:      -5.6      2.606      3.452
REMARK  Name = 
REMARK  2 active torsions:
REMARK  status: ('A' for Active; 'I' for Inactive)
REMARK    1  A    between atoms: CA_7  and  C_8
REMARK    2  A    between atoms: C_8  and  O_9
REMARK                            x       y       z     vdW  Elec       q    Type
REMARK                         _______ _______ _______ _____ _____    ______ ____
ROOT
ATOM      1  N   UNL     1       9.704  -5.459  25.596  0.00  0.00    -0.329 N 
ATOM      2  H   UNL     1       9.685  -5.679  26.583  0.00  0.00    +0.145 HD
ATOM      3  H   UNL     1      10.488  -5.875  25.103  0.00  0.00    +0.145 HD
ATOM      4  C   UNL     1       9.489  -4.171  25.235  0.00  0.00    +0.195 A 
ATOM      5  N   UNL     1       8.689  -3.439  26.049  0.00  0.00    -0.293 N 
ATOM      6  H   UNL     1       8.252  -3.848  26.857  0.00  0.00    +0.172 HD
ATOM      7  C   UNL     1       8.349  -2.147  25.775  0.00  0.00    +0.280 A 
ATOM      8  O   UNL     1       7.579  -1.533  26.512  0.00  0.00    -0.265 OA
ATOM      9  C   UNL     1       8.960  -1.560  24.544  0.00  0.00    +0.168 A 
ATOM     10  N   UNL     1       8.636  -0.253  24.197  0.00  0.00    -0.244 NA
ATOM     11  CA  UNL     1       9.078   0.173  23.047  0.00  0.00    +0.062 C 
ATOM     12  C   UNL     1       9.937  -0.639  22.080  0.00  0.00    +0.156 C 
ATOM     13  N   UNL     1      10.384  -1.874  22.695  0.00  0.00    -0.322 N 
ATOM     14  H   UNL     1      10.722  -2.613  22.087  0.00  0.00    +0.148 HD
ATOM     15  C   UNL     1       9.778  -2.378  23.834  0.00  0.00    +0.154 A 
ATOM     16  N   UNL     1      10.031  -3.687  24.167  0.00  0.00    -0.199 NA
ENDROOT
BRANCH  11  17
ATOM     17  C   UNL     1       8.681   1.569  22.593  0.00  0.00    +0.208 C 
BRANCH  17  18
ATOM     18  O   UNL     1       9.535   2.040  21.568  0.00  0.00    -0.389 OA
ATOM     19  H   UNL     1       9.431   1.426  20.817  0.00  0.00    +0.210 HD
ENDBRANCH  17  18
ENDBRANCH  11  17
TORSDOF 2
ENDMDL
MODEL 3
REMARK VINA RESULT:      -5.6      3.907      6.509
REMARK  Name = 
REMARK  2 active torsions:
REMARK  status: ('A' for Active; 'I' for Inactive)
REMARK    1  A    between atoms: CA_7  and  C_8
REMARK    2  A    between atoms: C_8  and  O_9
REMARK                            x       y       z     vdW  Elec       q    Type
REMARK                         _______ _______ _______ _____ _____    ______ ____
ROOT
ATOM      1  N   UNL     1      10.974   4.008  22.947  0.00  0.00    -0.329 N 
ATOM      2  H   UNL     1      11.406   4.284  22.075  0.00  0.00    +0.145 HD
ATOM      3  H   UNL     1      11.482   4.324  23.768  0.00  0.00    +0.145 HD
ATOM      4  C   UNL     1      10.547   2.728  23.061  0.00  0.00    +0.195 A 
ATOM      5  N   UNL     1      10.149   2.117  21.918  0.00  0.00    -0.293 N 
ATOM      6  H   UNL     1      10.139   2.608  21.041  0.00  0.00    +0.172 HD
ATOM      7  C   UNL     1       9.649   0.848  21.899  0.00  0.00    +0.280 A 
ATOM      8  O   UNL     1       9.250   0.349  20.849  0.00  0.00    -0.265 OA
ATOM      9  C   UNL     1       9.618   0.142  23.216  0.00  0.00    +0.168 A 
ATOM     10  N   UNL     1       9.099  -1.147  23.268  0.00  0.00    -0.244 NA
ATOM     11  CA  UNL     1       8.961  -1.674  24.452  0.00  0.00    +0.062 C 
ATOM     12  C   UNL     1       9.350  -0.998  25.765  0.00  0.00    +0.156 C 
ATOM     13  N   UNL     1      10.093   0.223  25.521  0.00  0.00    -0.322 N 
ATOM     14  H   UNL     1      10.169   0.894  26.278  0.00  0.00    +0.148 HD
ATOM     15  C   UNL     1      10.083   0.842  24.282  0.00  0.00    +0.154 A 
ATOM     16  N   UNL     1      10.533   2.138  24.210  0.00  0.00    -0.199 NA
ENDROOT
BRANCH  11  17
ATOM     17  C   UNL     1       8.325  -3.051  24.561  0.00  0.00    +0.208 C 
BRANCH  17  18
ATOM     18  O   UNL     1       9.257  -4.075  24.267  0.00  0.00    -0.389 OA
ATOM     19  H   UNL     1       9.959  -3.665  23.728  0.00  0.00    +0.210 HD
ENDBRANCH  17  18
ENDBRANCH  11  17
TORSDOF 2
ENDMDL
MODEL 4
REMARK VINA RESULT:      -5.5      2.908      5.511
REMARK  Name = 
REMARK  2 active torsions:
REMARK  status: ('A' for Active; 'I' for Inactive)
REMARK    1  A    between atoms: CA_7  and  C_8
REMARK    2  A    between atoms: C_8  and  O_9
REMARK                            x       y       z     vdW  Elec       q    Type
REMARK                         _______ _______ _______ _____ _____    ______ ____
ROOT
ATOM      1  N   UNL     1       9.373   2.206  21.411  0.00  0.00    -0.329 N 
ATOM      2  H   UNL     1       9.491   3.116  21.834  0.00  0.00    +0.145 HD
ATOM      3  H   UNL     1       8.632   2.174  20.717  0.00  0.00    +0.145 HD
ATOM      4  C   UNL     1       9.364   1.127  22.230  0.00  0.00    +0.195 A 
ATOM      5  N   UNL     1      10.093   1.224  23.369  0.00  0.00    -0.293 N 
ATOM      6  H   UNL     1      10.640   2.044  23.569  0.00  0.00    +0.172 HD
ATOM      7  C   UNL     1      10.212   0.194  24.255  0.00  0.00    +0.280 A 
ATOM      8  O   UNL     1      10.926   0.305  25.250  0.00  0.00    -0.265 OA
ATOM      9  C   UNL     1       9.439  -1.041  23.924  0.00  0.00    +0.168 A 
ATOM     10  N   UNL     1       9.535  -2.135  24.776  0.00  0.00    -0.244 NA
ATOM     11  CA  UNL     1       8.958  -3.236  24.381  0.00  0.00    +0.062 C 
ATOM     12  C   UNL     1       8.172  -3.399  23.082  0.00  0.00    +0.156 C 
ATOM     13  N   UNL     1       7.961  -2.117  22.438  0.00  0.00    -0.322 N 
ATOM     14  H   UNL     1       7.702  -2.113  21.457  0.00  0.00    +0.148 HD
ATOM     15  C   UNL     1       8.712  -1.003  22.778  0.00  0.00    +0.154 A 
ATOM     16  N   UNL     1       8.685   0.072  21.923  0.00  0.00    -0.199 NA
ENDROOT
BRANCH  11  17
ATOM     17  C   UNL     1       9.105  -4.479  25.246  0.00  0.00    +0.208 C 
BRANCH  17  18
ATOM     18  O   UNL     1      10.235  -5.241  24.866  0.00  0.00    -0.389 OA
ATOM     19  H   UNL     1       9.959  -5.787  24.106  0.00  0.00    +0.210 HD
ENDBRANCH  17  18
ENDBRANCH  11  17
TORSDOF 2
ENDMDL
MODEL 5
REMARK VINA RESULT:      -5.5      2.717      5.162
REMARK  Name = 
REMARK  2 active torsions:
REMARK  status: ('A' for Active; 'I' for Inactive)
REMARK    1  A    between atoms: CA_7  and  C_8
REMARK    2  A    between atoms: C_8  and  O_9
REMARK                            x       y       z     vdW  Elec       q    Type
REMARK                         _______ _______ _______ _____ _____    ______ ____
ROOT
ATOM      1  N   UNL     1       9.745   2.296  24.101  0.00  0.00    -0.329 N 
ATOM      2  H   UNL     1      10.495   2.738  23.587  0.00  0.00    +0.145 HD
ATOM      3  H   UNL     1       9.570   2.720  25.007  0.00  0.00    +0.145 HD
ATOM      4  C   UNL     1       9.727   0.942  24.149  0.00  0.00    +0.195 A 
ATOM      5  N   UNL     1      10.255   0.290  23.084  0.00  0.00    -0.293 N 
ATOM      6  H   UNL     1      10.607   0.793  22.288  0.00  0.00    +0.172 HD
ATOM      7  C   UNL     1      10.254  -1.070  22.981  0.00  0.00    +0.280 A 
ATOM      8  O   UNL     1      10.697  -1.621  21.975  0.00  0.00    -0.265 OA
ATOM      9  C   UNL     1       9.681  -1.810  24.146  0.00  0.00    +0.168 A 
ATOM     10  N   UNL     1       9.630  -3.198  24.094  0.00  0.00    -0.244 NA
ATOM     11  CA  UNL     1       9.000  -3.798  25.064  0.00  0.00    +0.062 C 
ATOM     12  C   UNL     1       8.347  -3.095  26.253  0.00  0.00    +0.156 C 
ATOM     13  N   UNL     1       8.699  -1.689  26.283  0.00  0.00    -0.322 N 
ATOM     14  H   UNL     1       8.127  -1.067  26.845  0.00  0.00    +0.148 HD
ATOM     15  C   UNL     1       9.221  -1.048  25.172  0.00  0.00    +0.154 A 
ATOM     16  N   UNL     1       9.228   0.326  25.169  0.00  0.00    -0.199 NA
ENDROOT
BRANCH  11  17
ATOM     17  C   UNL     1       8.853  -5.310  25.006  0.00  0.00    +0.208 C 
BRANCH  17  18
ATOM     18  O   UNL     1       9.933  -5.959  25.649  0.00  0.00    -0.389 OA
ATOM     19  H   UNL     1      10.600  -5.271  25.833  0.00  0.00    +0.210 HD
ENDBRANCH  17  18
ENDBRANCH  11  17
TORSDOF 2
ENDMDL
MODEL 6
REMARK VINA RESULT:      -5.5      2.486      3.362
REMARK  Name = 
REMARK  2 active torsions:
REMARK  status: ('A' for Active; 'I' for Inactive)
REMARK    1  A    between atoms: CA_7  and  C_8
REMARK    2  A    between atoms: C_8  and  O_9
REMARK                            x       y       z     vdW  Elec       q    Type
REMARK                         _______ _______ _______ _____ _____    ______ ____
ROOT
ATOM      1  N   UNL     1       4.587  -6.945  23.923  0.00  0.00    -0.329 N 
ATOM      2  H   UNL     1       3.633  -6.899  23.590  0.00  0.00    +0.145 HD
ATOM      3  H   UNL     1       4.663  -7.231  24.895  0.00  0.00    +0.145 HD
ATOM      4  C   UNL     1       5.411  -5.914  23.619  0.00  0.00    +0.195 A 
ATOM      5  N   UNL     1       5.160  -5.259  22.459  0.00  0.00    -0.293 N 
ATOM      6  H   UNL     1       4.422  -5.554  21.843  0.00  0.00    +0.172 HD
ATOM      7  C   UNL     1       5.943  -4.238  22.009  0.00  0.00    +0.280 A 
ATOM      8  O   UNL     1       5.712  -3.704  20.925  0.00  0.00    -0.265 OA
ATOM      9  C   UNL     1       7.072  -3.840  22.904  0.00  0.00    +0.168 A 
ATOM     10  N   UNL     1       7.920  -2.818  22.492  0.00  0.00    -0.244 NA
ATOM     11  CA  UNL     1       8.970  -2.596  23.232  0.00  0.00    +0.062 C 
ATOM     12  C   UNL     1       9.314  -3.347  24.517  0.00  0.00    +0.156 C 
ATOM     13  N   UNL     1       8.214  -4.197  24.932  0.00  0.00    -0.322 N 
ATOM     14  H   UNL     1       8.410  -4.938  25.596  0.00  0.00    +0.148 HD
ATOM     15  C   UNL     1       7.195  -4.542  24.059  0.00  0.00    +0.154 A 
ATOM     16  N   UNL     1       6.378  -5.588  24.411  0.00  0.00    -0.199 NA
ENDROOT
BRANCH  11  17
ATOM     17  C   UNL     1       9.966  -1.541  22.776  0.00  0.00    +0.208 C 
BRANCH  17  18
ATOM     18  O   UNL     1      10.119  -1.550  21.369  0.00  0.00    -0.389 OA
ATOM     19  H   UNL     1       9.506  -0.877  21.019  0.00  0.00    +0.210 HD
ENDBRANCH  17  18
ENDBRANCH  11  17
TORSDOF 2
ENDMDL
MODEL 7
REMARK VINA RESULT:      -5.4      2.880      5.316
REMARK  Name = 
REMARK  2 active torsions:
REMARK  status: ('A' for Active; 'I' for Inactive)
REMARK    1  A    between atoms: CA_7  and  C_8
REMARK    2  A    between atoms: C_8  and  O_9
REMARK                            x       y       z     vdW  Elec       q    Type
REMARK                         _______ _______ _______ _____ _____    ______ ____
ROOT
ATOM      1  N   UNL     1       9.100   2.213  21.498  0.00  0.00    -0.329 N 
ATOM      2  H   UNL     1      10.008   2.625  21.664  0.00  0.00    +0.145 HD
ATOM      3  H   UNL     1       8.327   2.837  21.711  0.00  0.00    +0.145 HD
ATOM      4  C   UNL     1       8.889   0.953  21.948  0.00  0.00    +0.195 A 
ATOM      5  N   UNL     1       9.972   0.138  21.999  0.00  0.00    -0.293 N 
ATOM      6  H   UNL     1      10.874   0.450  21.683  0.00  0.00    +0.172 HD
ATOM      7  C   UNL     1       9.890  -1.168  22.382  0.00  0.00    +0.280 A 
ATOM      8  O   UNL     1      10.887  -1.888  22.366  0.00  0.00    -0.265 OA
ATOM      9  C   UNL     1       8.535  -1.640  22.801  0.00  0.00    +0.168 A 
ATOM     10  N   UNL     1       8.381  -2.968  23.183  0.00  0.00    -0.244 NA
ATOM     11  CA  UNL     1       7.163  -3.374  23.406  0.00  0.00    +0.062 C 
ATOM     12  C   UNL     1       5.914  -2.501  23.308  0.00  0.00    +0.156 C 
ATOM     13  N   UNL     1       6.268  -1.104  23.144  0.00  0.00    -0.322 N 
ATOM     14  H   UNL     1       5.556  -0.470  22.798  0.00  0.00    +0.148 HD
ATOM     15  C   UNL     1       7.538  -0.720  22.747  0.00  0.00    +0.154 A 
ATOM     16  N   UNL     1       7.708   0.570  22.306  0.00  0.00    -0.199 NA
ENDROOT
BRANCH  11  17
ATOM     17  C   UNL     1       6.941  -4.839  23.749  0.00  0.00    +0.208 C 
BRANCH  17  18
ATOM     18  O   UNL     1       7.014  -5.656  22.597  0.00  0.00    -0.389 OA
ATOM     19  H   UNL     1       7.400  -5.105  21.890  0.00  0.00    +0.210 HD
ENDBRANCH  17  18
ENDBRANCH  11  17
TORSDOF 2
ENDMDL
MODEL 8
REMARK VINA RESULT:      -5.2      2.796      4.184
REMARK  Name = 
REMARK  2 active torsions:
REMARK  status: ('A' for Active; 'I' for Inactive)
REMARK    1  A    between atoms: CA_7  and  C_8
REMARK    2  A    between atoms: C_8  and  O_9
REMARK                            x       y       z     vdW  Elec       q    Type
REMARK                         _______ _______ _______ _____ _____    ______ ____
ROOT
ATOM      1  N   UNL     1       9.543   0.769  24.435  0.00  0.00    -0.329 N 
ATOM      2  H   UNL     1      10.199   0.807  25.203  0.00  0.00    +0.145 HD
ATOM      3  H   UNL     1       8.837   1.499  24.469  0.00  0.00    +0.145 HD
ATOM      4  C   UNL     1       9.024  -0.439  24.109  0.00  0.00    +0.195 A 
ATOM      5  N   UNL     1       9.808  -1.520  24.346  0.00  0.00    -0.293 N 
ATOM      6  H   UNL     1      10.739  -1.418  24.711  0.00  0.00    +0.172 HD
ATOM      7  C   UNL     1       9.429  -2.788  24.017  0.00  0.00    +0.280 A 
ATOM      8  O   UNL     1      10.191  -3.735  24.202  0.00  0.00    -0.265 OA
ATOM      9  C   UNL     1       8.063  -2.926  23.426  0.00  0.00    +0.168 A 
ATOM     10  N   UNL     1       7.626  -4.191  23.049  0.00  0.00    -0.244 NA
ATOM     11  CA  UNL     1       6.490  -4.251  22.412  0.00  0.00    +0.062 C 
ATOM     12  C   UNL     1       5.605  -3.051  22.081  0.00  0.00    +0.156 C 
ATOM     13  N   UNL     1       6.077  -1.855  22.751  0.00  0.00    -0.322 N 
ATOM     14  H   UNL     1       5.754  -0.958  22.407  0.00  0.00    +0.148 HD
ATOM     15  C   UNL     1       7.357  -1.777  23.276  0.00  0.00    +0.154 A 
ATOM     16  N   UNL     1       7.840  -0.532  23.601  0.00  0.00    -0.199 NA
ENDROOT
BRANCH  11  17
ATOM     17  C   UNL     1       6.012  -5.605  21.912  0.00  0.00    +0.208 C 
BRANCH  17  18
ATOM     18  O   UNL     1       6.019  -5.665  20.499  0.00  0.00    -0.389 OA
ATOM     19  H   UNL     1       6.954  -5.622  20.224  0.00  0.00    +0.210 HD
ENDBRANCH  17  18
ENDBRANCH  11  17
TORSDOF 2
ENDMDL
MODEL 9
REMARK VINA RESULT:      -5.2      2.249      4.944
REMARK  Name = 
REMARK  2 active torsions:
REMARK  status: ('A' for Active; 'I' for Inactive)
REMARK    1  A    between atoms: CA_7  and  C_8
REMARK    2  A    between atoms: C_8  and  O_9
REMARK                            x       y       z     vdW  Elec       q    Type
REMARK                         _______ _______ _______ _____ _____    ______ ____
ROOT
ATOM      1  N   UNL     1       9.767  -0.481  21.358  0.00  0.00    -0.329 N 
ATOM      2  H   UNL     1       9.842   0.520  21.482  0.00  0.00    +0.145 HD
ATOM      3  H   UNL     1       9.381  -0.750  20.457  0.00  0.00    +0.145 HD
ATOM      4  C   UNL     1       9.252  -1.205  22.380  0.00  0.00    +0.195 A 
ATOM      5  N   UNL     1       9.455  -0.720  23.630  0.00  0.00    -0.293 N 
ATOM      6  H   UNL     1       9.993   0.116  23.783  0.00  0.00    +0.172 HD
ATOM      7  C   UNL     1       9.036  -1.376  24.749  0.00  0.00    +0.280 A 
ATOM      8  O   UNL     1       9.286  -0.927  25.867  0.00  0.00    -0.265 OA
ATOM      9  C   UNL     1       8.283  -2.645  24.516  0.00  0.00    +0.168 A 
ATOM     10  N   UNL     1       7.847  -3.373  25.617  0.00  0.00    -0.244 NA
ATOM     11  CA  UNL     1       7.318  -4.540  25.375  0.00  0.00    +0.062 C 
ATOM     12  C   UNL     1       7.120  -5.143  23.986  0.00  0.00    +0.156 C 
ATOM     13  N   UNL     1       7.397  -4.165  22.951  0.00  0.00    -0.322 N 
ATOM     14  H   UNL     1       7.567  -4.504  22.010  0.00  0.00    +0.148 HD
ATOM     15  C   UNL     1       8.106  -3.006  23.219  0.00  0.00    +0.154 A 
ATOM     16  N   UNL     1       8.603  -2.298  22.152  0.00  0.00    -0.199 NA
ENDROOT
BRANCH  11  17
ATOM     17  C   UNL     1       6.899  -5.403  26.555  0.00  0.00    +0.208 C 
BRANCH  17  18
ATOM     18  O   UNL     1       8.002  -5.710  27.386  0.00  0.00    -0.389 OA
ATOM     19  H   UNL     1       8.259  -6.628  27.179  0.00  0.00    +0.210 HD
ENDBRANCH  17  18
ENDBRANCH  11  17
TORSDOF 2
ENDMDL
