MODEL 1
REMARK VINA RESULT:      -5.9      0.000      0.000
REMARK  Name = 
REMARK  11 active torsions:
REMARK  status: ('A' for Active; 'I' for Inactive)
REMARK    1  A    between atoms: NE_4  and  CD_5
REMARK    2  A    between atoms: CD_5  and  CG_6
REMARK    3  A    between atoms: CG_6  and  CB_7
REMARK    4  A    between atoms: CB_7  and  CA_8
REMARK    5  A    between atoms: CA_8  and  N_10
REMARK    6  A    between atoms: CA_8  and  C_18
REMARK    7  A    between atoms: C_11  and  C_13
REMARK    8  A    between atoms: C_13  and  C_14
REMARK    9  A    between atoms: C_14  and  C_15
REMARK   10  A    between atoms: C_15  and  O_16
REMARK   11  A    between atoms: C_18  and  O_19
REMARK                            x       y       z     vdW  Elec       q    Type
REMARK                         _______ _______ _______ _____ _____    ______ ____
ROOT
ATOM      1  CA  ARG A   1       9.643  -2.089  23.988  0.00  0.00    +0.182 C 
ENDROOT
BRANCH   1   2
ATOM      2  N   ARG A   1       8.651  -3.129  24.271  0.00  0.00    -0.302 N 
ATOM      3  H   ARG A   1       7.712  -2.958  23.924  0.00  0.00    +0.150 HD
ATOM      4  C   UNK A   0       9.005  -4.385  24.662  0.00  0.00    +0.214 C 
ATOM      5  O   UNK A   0      10.167  -4.768  24.793  0.00  0.00    -0.276 OA
BRANCH   4   6
ATOM      6  C   UNK A   0       7.872  -5.350  24.880  0.00  0.00    +0.107 C 
BRANCH   6   7
ATOM      7  C   UNK A   0       6.843  -4.769  25.828  0.00  0.00    +0.129 C 
BRANCH   7   8
ATOM      8  C   UNK A   0       6.955  -5.100  27.301  0.00  0.00    +0.305 C 
ATOM      9  O   UNK A   0       6.276  -4.503  28.130  0.00  0.00    -0.251 OA
BRANCH   8  10
ATOM     10  O   UNK A   0       7.807  -6.065  27.681  0.00  0.00    -0.481 OA
ATOM     11  H   UNK A   0       8.406  -6.474  27.017  0.00  0.00    +0.295 HD
ENDBRANCH   8  10
ENDBRANCH   7   8
ENDBRANCH   6   7
ENDBRANCH   4   6
ENDBRANCH   1   2
BRANCH   1  12
ATOM     12  C   ARG A   1       9.466  -1.664  22.526  0.00  0.00    +0.325 C 
ATOM     13  OXT ARG A   1       8.392  -1.301  22.060  0.00  0.00    -0.249 OA
BRANCH  12  14
ATOM     14  O   ARG A   1      10.606  -1.669  21.801  0.00  0.00    -0.479 OA
ATOM     15  H   ARG A   1      11.172  -2.455  21.921  0.00  0.00    +0.295 HD
ENDBRANCH  12  14
ENDBRANCH   1  12
BRANCH   1  16
ATOM     16  CB  ARG A   1       9.425  -0.877  24.896  0.00  0.00    +0.037 C 
BRANCH  16  17
ATOM     17  CG  ARG A   1      10.468   0.229  24.668  0.00  0.00    +0.039 C 
BRANCH  17  18
ATOM     18  CD  ARG A   1       9.842   1.605  24.435  0.00  0.00    +0.196 C 
BRANCH  18  23
ATOM     19  NH1 ARG A   1       8.353   1.655  21.168  0.00  0.00    -0.289 N 
ATOM     20 HH11 ARG A   1       7.417   1.814  21.525  0.00  0.00    +0.255 HD
ATOM     21 HH12 ARG A   1       8.478   2.119  20.279  0.00  0.00    +0.255 HD
ATOM     22  CZ  ARG A   1       9.306   1.922  22.079  0.00  0.00    +0.376 C 
ATOM     23  NE  ARG A   1       8.905   1.564  23.322  0.00  0.00    -0.276 N 
ATOM     24  HE  ARG A   1       8.343   0.723  23.287  0.00  0.00    +0.258 HD
ATOM     25  NH2 ARG A   1      10.442   2.438  21.792  0.00  0.00    -0.130 NA
ATOM     26  HH2 ARG A   1      10.510   2.581  20.784  0.00  0.00    +0.306 HD
ENDBRANCH  18  23
ENDBRANCH  17  18
ENDBRANCH  16  17
ENDBRANCH   1  16
TORSDOF 11
ENDMDL
MODEL 2
REMARK VINA RESULT:      -5.9      1.903      2.602
REMARK  Name = 
REMARK  11 active torsions:
REMARK  status: ('A' for Active; 'I' for Inactive)
REMARK    1  A    between atoms: NE_4  and  CD_5
REMARK    2  A    between atoms: CD_5  and  CG_6
REMARK    3  A    between atoms: CG_6  and  CB_7
REMARK    4  A    between atoms: CB_7  and  CA_8
REMARK    5  A    between atoms: CA_8  and  N_10
REMARK    6  A    between atoms: CA_8  and  C_18
REMARK    7  A    between atoms: C_11  and  C_13
REMARK    8  A    between atoms: C_13  and  C_14
REMARK    9  A    between atoms: C_14  and  C_15
REMARK   10  A    between atoms: C_15  and  O_16
REMARK   11  A    between atoms: C_18  and  O_19
REMARK                            x       y       z     vdW  Elec       q    Type
REMARK                         _______ _______ _______ _____ _____    ______ ____
ROOT
ATOM      1  CA  ARG A   1       9.183  -1.068  24.071  0.00  0.00    +0.182 C 
ENDROOT
BRANCH   1   2
ATOM      2  N   ARG A   1       9.089  -2.503  24.343  0.00  0.00    -0.302 N 
ATOM      3  H   ARG A   1       9.475  -2.817  25.229  0.00  0.00    +0.150 HD
ATOM      4  C   UNK A   0       8.253  -3.323  23.645  0.00  0.00    +0.214 C 
ATOM      5  O   UNK A   0       7.497  -2.943  22.752  0.00  0.00    -0.276 OA
BRANCH   4   6
ATOM      6  C   UNK A   0       8.244  -4.766  24.067  0.00  0.00    +0.107 C 
BRANCH   6   7
ATOM      7  C   UNK A   0       7.423  -4.956  25.326  0.00  0.00    +0.129 C 
BRANCH   7   8
ATOM      8  C   UNK A   0       8.147  -5.026  26.654  0.00  0.00    +0.305 C 
ATOM      9  O   UNK A   0       9.060  -4.249  26.909  0.00  0.00    -0.251 OA
BRANCH   8  10
ATOM     10  O   UNK A   0       7.763  -5.950  27.548  0.00  0.00    -0.481 OA
ATOM     11  H   UNK A   0       6.847  -5.930  27.906  0.00  0.00    +0.295 HD
ENDBRANCH   8  10
ENDBRANCH   7   8
ENDBRANCH   6   7
ENDBRANCH   4   6
ENDBRANCH   1   2
BRANCH   1  12
ATOM     12  C   ARG A   1       9.470  -0.361  25.400  0.00  0.00    +0.325 C 
ATOM     13  OXT ARG A   1       8.806  -0.546  26.414  0.00  0.00    -0.249 OA
BRANCH  12  14
ATOM     14  O   ARG A   1      10.553   0.446  25.381  0.00  0.00    -0.479 OA
ATOM     15  H   ARG A   1      11.409  -0.002  25.522  0.00  0.00    +0.295 HD
ENDBRANCH  12  14
ENDBRANCH   1  12
BRANCH   1  16
ATOM     16  CB  ARG A   1      10.323  -0.780  23.090  0.00  0.00    +0.037 C 
BRANCH  16  17
ATOM     17  CG  ARG A   1       9.817  -0.274  21.729  0.00  0.00    +0.039 C 
BRANCH  17  18
ATOM     18  CD  ARG A   1       9.113   1.081  21.819  0.00  0.00    +0.196 C 
BRANCH  18  23
ATOM     19  NH1 ARG A   1      11.246   3.744  22.939  0.00  0.00    -0.289 N 
ATOM     20 HH11 ARG A   1      11.400   4.103  22.004  0.00  0.00    +0.255 HD
ATOM     21 HH12 ARG A   1      11.238   4.497  23.613  0.00  0.00    +0.255 HD
ATOM     22  CZ  ARG A   1      10.187   2.917  23.010  0.00  0.00    +0.376 C 
ATOM     23  NE  ARG A   1      10.084   2.163  21.889  0.00  0.00    -0.276 N 
ATOM     24  HE  ARG A   1      11.001   1.918  21.539  0.00  0.00    +0.258 HD
ATOM     25  NH2 ARG A   1       9.396   2.855  24.014  0.00  0.00    -0.130 NA
ATOM     26  HH2 ARG A   1       9.712   3.498  24.741  0.00  0.00    +0.306 HD
ENDBRANCH  18  23
ENDBRANCH  17  18
ENDBRANCH  16  17
ENDBRANCH   1  16
TORSDOF 11
ENDMDL
MODEL 3
REMARK VINA RESULT:      -5.8      1.676      2.555
REMARK  Name = 
REMARK  11 active torsions:
REMARK  status: ('A' for Active; 'I' for Inactive)
REMARK    1  A    between atoms: NE_4  and  CD_5
REMARK    2  A    between atoms: CD_5  and  CG_6
REMARK    3  A    between atoms: CG_6  and  CB_7
REMARK    4  A    between atoms: CB_7  and  CA_8
REMARK    5  A    between atoms: CA_8  and  N_10
REMARK    6  A    between atoms: CA_8  and  C_18
REMARK    7  A    between atoms: C_11  and  C_13
REMARK    8  A    between atoms: C_13  and  C_14
REMARK    9  A    between atoms: C_14  and  C_15
REMARK   10  A    between atoms: C_15  and  O_16
REMARK   11  A    between atoms: C_18  and  O_19
REMARK                            x       y       z     vdW  Elec       q    Type
REMARK                         _______ _______ _______ _____ _____    ______ ____
ROOT
ATOM      1  CA  ARG A   1       9.407  -2.002  24.294  0.00  0.00    +0.182 C 
ENDROOT
BRANCH   1   2
ATOM      2  N   ARG A   1       8.251  -2.896  24.386  0.00  0.00    -0.302 N 
ATOM      3  H   ARG A   1       7.354  -2.496  24.126  0.00  0.00    +0.150 HD
ATOM      4  C   UNK A   0       8.383  -4.250  24.476  0.00  0.00    +0.214 C 
ATOM      5  O   UNK A   0       9.462  -4.842  24.468  0.00  0.00    -0.276 OA
BRANCH   4   6
ATOM      6  C   UNK A   0       7.101  -5.034  24.527  0.00  0.00    +0.107 C 
BRANCH   6   7
ATOM      7  C   UNK A   0       6.557  -5.270  23.133  0.00  0.00    +0.129 C 
BRANCH   7   8
ATOM      8  C   UNK A   0       5.632  -4.231  22.536  0.00  0.00    +0.305 C 
ATOM      9  O   UNK A   0       4.419  -4.407  22.522  0.00  0.00    -0.251 OA
BRANCH   8  10
ATOM     10  O   UNK A   0       6.167  -3.109  22.029  0.00  0.00    -0.481 OA
ATOM     11  H   UNK A   0       5.605  -2.496  21.505  0.00  0.00    +0.295 HD
ENDBRANCH   8  10
ENDBRANCH   7   8
ENDBRANCH   6   7
ENDBRANCH   4   6
ENDBRANCH   1   2
BRANCH   1  12
ATOM     12  C   ARG A   1       9.649  -1.706  22.810  0.00  0.00    +0.325 C 
ATOM     13  OXT ARG A   1      10.739  -1.845  22.269  0.00  0.00    -0.249 OA
BRANCH  12  14
ATOM     14  O   ARG A   1       8.545  -1.331  22.128  0.00  0.00    -0.479 OA
ATOM     15  H   ARG A   1       7.752  -1.879  22.284  0.00  0.00    +0.295 HD
ENDBRANCH  12  14
ENDBRANCH   1  12
BRANCH   1  16
ATOM     16  CB  ARG A   1       9.130  -0.689  25.032  0.00  0.00    +0.037 C 
BRANCH  16  17
ATOM     17  CG  ARG A   1      10.255   0.342  24.846  0.00  0.00    +0.039 C 
BRANCH  17  18
ATOM     18  CD  ARG A   1       9.739   1.724  24.441  0.00  0.00    +0.196 C 
BRANCH  18  23
ATOM     19  NH1 ARG A   1       8.359   1.607  21.128  0.00  0.00    -0.289 N 
ATOM     20 HH11 ARG A   1       7.412   1.781  21.445  0.00  0.00    +0.255 HD
ATOM     21 HH12 ARG A   1       8.513   2.026  20.221  0.00  0.00    +0.255 HD
ATOM     22  CZ  ARG A   1       9.282   1.922  22.055  0.00  0.00    +0.376 C 
ATOM     23  NE  ARG A   1       8.840   1.625  23.301  0.00  0.00    -0.276 N 
ATOM     24  HE  ARG A   1       8.280   0.782  23.289  0.00  0.00    +0.258 HD
ATOM     25  NH2 ARG A   1      10.426   2.425  21.781  0.00  0.00    -0.130 NA
ATOM     26  HH2 ARG A   1      10.527   2.518  20.770  0.00  0.00    +0.306 HD
ENDBRANCH  18  23
ENDBRANCH  17  18
ENDBRANCH  16  17
ENDBRANCH   1  16
TORSDOF 11
ENDMDL
MODEL 4
REMARK VINA RESULT:      -5.7      4.632      8.065
REMARK  Name = 
REMARK  11 active torsions:
REMARK  status: ('A' for Active; 'I' for Inactive)
REMARK    1  A    between atoms: NE_4  and  CD_5
REMARK    2  A    between atoms: CD_5  and  CG_6
REMARK    3  A    between atoms: CG_6  and  CB_7
REMARK    4  A    between atoms: CB_7  and  CA_8
REMARK    5  A    between atoms: CA_8  and  N_10
REMARK    6  A    between atoms: CA_8  and  C_18
REMARK    7  A    between atoms: C_11  and  C_13
REMARK    8  A    between atoms: C_13  and  C_14
REMARK    9  A    between atoms: C_14  and  C_15
REMARK   10  A    between atoms: C_15  and  O_16
REMARK   11  A    between atoms: C_18  and  O_19
REMARK                            x       y       z     vdW  Elec       q    Type
REMARK                         _______ _______ _______ _____ _____    ______ ____
ROOT
ATOM      1  CA  ARG A   1       8.844   2.841  23.483  0.00  0.00    +0.182 C 
ENDROOT
BRANCH   1   2
ATOM      2  N   ARG A   1      10.045   3.678  23.451  0.00  0.00    -0.302 N 
ATOM      3  H   ARG A   1      10.811   3.338  22.875  0.00  0.00    +0.150 HD
ATOM      4  C   UNK A   0      10.041   4.975  23.867  0.00  0.00    +0.214 C 
ATOM      5  O   UNK A   0       9.045   5.565  24.284  0.00  0.00    -0.276 OA
BRANCH   4   6
ATOM      6  C   UNK A   0      11.346   5.711  23.738  0.00  0.00    +0.107 C 
BRANCH   6   7
ATOM      7  C   UNK A   0      12.103   5.257  22.507  0.00  0.00    +0.129 C 
BRANCH   7   8
ATOM      8  C   UNK A   0      13.584   5.557  22.422  0.00  0.00    +0.305 C 
ATOM      9  O   UNK A   0      14.018   6.331  21.576  0.00  0.00    -0.251 OA
BRANCH   8  10
ATOM     10  O   UNK A   0      14.412   4.965  23.298  0.00  0.00    -0.481 OA
ATOM     11  H   UNK A   0      14.371   5.211  24.249  0.00  0.00    +0.295 HD
ENDBRANCH   8  10
ENDBRANCH   7   8
ENDBRANCH   6   7
ENDBRANCH   4   6
ENDBRANCH   1   2
BRANCH   1  12
ATOM     12  C   ARG A   1       8.664   2.231  22.089  0.00  0.00    +0.325 C 
ATOM     13  OXT ARG A   1       7.577   1.878  21.648  0.00  0.00    -0.249 OA
BRANCH  12  14
ATOM     14  O   ARG A   1       9.798   2.164  21.358  0.00  0.00    -0.479 OA
ATOM     15  H   ARG A   1      10.051   1.270  21.060  0.00  0.00    +0.295 HD
ENDBRANCH  12  14
ENDBRANCH   1  12
BRANCH   1  16
ATOM     16  CB  ARG A   1       8.999   1.717  24.510  0.00  0.00    +0.037 C 
BRANCH  16  17
ATOM     17  CG  ARG A   1      10.413   1.115  24.518  0.00  0.00    +0.039 C 
BRANCH  17  18
ATOM     18  CD  ARG A   1      10.417  -0.407  24.359  0.00  0.00    +0.196 C 
BRANCH  18  23
ATOM     19  NH1 ARG A   1       7.963  -1.962  22.249  0.00  0.00    -0.289 N 
ATOM     20 HH11 ARG A   1       7.207  -1.377  22.585  0.00  0.00    +0.255 HD
ATOM     21 HH12 ARG A   1       7.829  -2.190  21.273  0.00  0.00    +0.255 HD
ATOM     22  CZ  ARG A   1       9.176  -1.462  22.546  0.00  0.00    +0.376 C 
ATOM     23  NE  ARG A   1       9.171  -0.866  23.762  0.00  0.00    -0.276 N 
ATOM     24  HE  ARG A   1       8.567  -1.366  24.402  0.00  0.00    +0.258 HD
ATOM     25  NH2 ARG A   1      10.194  -1.553  21.775  0.00  0.00    -0.130 NA
ATOM     26  HH2 ARG A   1       9.944  -2.079  20.937  0.00  0.00    +0.306 HD
ENDBRANCH  18  23
ENDBRANCH  17  18
ENDBRANCH  16  17
ENDBRANCH   1  16
TORSDOF 11
ENDMDL
MODEL 5
REMARK VINA RESULT:      -5.6      2.161      2.647
REMARK  Name = 
REMARK  11 active torsions:
REMARK  status: ('A' for Active; 'I' for Inactive)
REMARK    1  A    between atoms: NE_4  and  CD_5
REMARK    2  A    between atoms: CD_5  and  CG_6
REMARK    3  A    between atoms: CG_6  and  CB_7
REMARK    4  A    between atoms: CB_7  and  CA_8
REMARK    5  A    between atoms: CA_8  and  N_10
REMARK    6  A    between atoms: CA_8  and  C_18
REMARK    7  A    between atoms: C_11  and  C_13
REMARK    8  A    between atoms: C_13  and  C_14
REMARK    9  A    between atoms: C_14  and  C_15
REMARK   10  A    between atoms: C_15  and  O_16
REMARK   11  A    between atoms: C_18  and  O_19
REMARK                            x       y       z     vdW  Elec       q    Type
REMARK                         _______ _______ _______ _____ _____    ______ ____
ROOT
ATOM      1  CA  ARG A   1       9.650  -0.511  23.498  0.00  0.00    +0.182 C 
ENDROOT
BRANCH   1   2
ATOM      2  N   ARG A   1       8.610  -1.439  23.943  0.00  0.00    -0.302 N 
ATOM      3  H   ARG A   1       7.650  -1.135  23.806  0.00  0.00    +0.150 HD
ATOM      4  C   UNK A   0       8.868  -2.752  24.203  0.00  0.00    +0.214 C 
ATOM      5  O   UNK A   0       9.972  -3.279  24.074  0.00  0.00    -0.276 OA
BRANCH   4   6
ATOM      6  C   UNK A   0       7.686  -3.585  24.617  0.00  0.00    +0.107 C 
BRANCH   6   7
ATOM      7  C   UNK A   0       7.620  -3.718  26.124  0.00  0.00    +0.129 C 
BRANCH   7   8
ATOM      8  C   UNK A   0       8.286  -4.913  26.771  0.00  0.00    +0.305 C 
ATOM      9  O   UNK A   0       7.647  -5.671  27.492  0.00  0.00    -0.251 OA
BRANCH   8  10
ATOM     10  O   UNK A   0       9.589  -5.131  26.532  0.00  0.00    -0.481 OA
ATOM     11  H   UNK A   0       9.962  -4.927  25.645  0.00  0.00    +0.295 HD
ENDBRANCH   8  10
ENDBRANCH   7   8
ENDBRANCH   6   7
ENDBRANCH   4   6
ENDBRANCH   1   2
BRANCH   1  12
ATOM     12  C   ARG A   1       9.710  -0.578  21.968  0.00  0.00    +0.325 C 
ATOM     13  OXT ARG A   1       9.251   0.296  21.242  0.00  0.00    -0.249 OA
BRANCH  12  14
ATOM     14  O   ARG A   1      10.362  -1.656  21.482  0.00  0.00    -0.479 OA
ATOM     15  H   ARG A   1      10.510  -2.378  22.122  0.00  0.00    +0.295 HD
ENDBRANCH  12  14
ENDBRANCH   1  12
BRANCH   1  16
ATOM     16  CB  ARG A   1       9.313   0.920  23.928  0.00  0.00    +0.037 C 
BRANCH  16  17
ATOM     17  CG  ARG A   1      10.559   1.813  24.037  0.00  0.00    +0.039 C 
BRANCH  17  18
ATOM     18  CD  ARG A   1      10.367   3.189  23.398  0.00  0.00    +0.196 C 
BRANCH  18  23
ATOM     19  NH1 ARG A   1      12.920   5.713  23.451  0.00  0.00    -0.289 N 
ATOM     20 HH11 ARG A   1      13.574   5.158  22.911  0.00  0.00    +0.255 HD
ATOM     21 HH12 ARG A   1      13.028   6.696  23.239  0.00  0.00    +0.255 HD
ATOM     22  CZ  ARG A   1      11.658   5.256  23.367  0.00  0.00    +0.376 C 
ATOM     23  NE  ARG A   1      11.633   3.903  23.319  0.00  0.00    -0.276 N 
ATOM     24  HE  ARG A   1      12.363   3.513  23.901  0.00  0.00    +0.258 HD
ATOM     25  NH2 ARG A   1      10.625   6.013  23.345  0.00  0.00    -0.130 NA
ATOM     26  HH2 ARG A   1      10.912   6.988  23.430  0.00  0.00    +0.306 HD
ENDBRANCH  18  23
ENDBRANCH  17  18
ENDBRANCH  16  17
ENDBRANCH   1  16
TORSDOF 11
ENDMDL
MODEL 6
REMARK VINA RESULT:      -5.5      2.834      6.428
REMARK  Name = 
REMARK  11 active torsions:
REMARK  status: ('A' for Active; 'I' for Inactive)
REMARK    1  A    between atoms: NE_4  and  CD_5
REMARK    2  A    between atoms: CD_5  and  CG_6
REMARK    3  A    between atoms: CG_6  and  CB_7
REMARK    4  A    between atoms: CB_7  and  CA_8
REMARK    5  A    between atoms: CA_8  and  N_10
REMARK    6  A    between atoms: CA_8  and  C_18
REMARK    7  A    between atoms: C_11  and  C_13
REMARK    8  A    between atoms: C_13  and  C_14
REMARK    9  A    between atoms: C_14  and  C_15
REMARK   10  A    between atoms: C_15  and  O_16
REMARK   11  A    between atoms: C_18  and  O_19
REMARK                            x       y       z     vdW  Elec       q    Type
REMARK                         _______ _______ _______ _____ _____    ______ ____
ROOT
ATOM      1  CA  ARG A   1       8.056  -2.018  25.511  0.00  0.00    +0.182 C 
ENDROOT
BRANCH   1   2
ATOM      2  N   ARG A   1       8.257  -1.632  24.113  0.00  0.00    -0.302 N 
ATOM      3  H   ARG A   1       7.733  -0.822  23.792  0.00  0.00    +0.150 HD
ATOM      4  C   UNK A   0       9.311  -2.085  23.377  0.00  0.00    +0.214 C 
ATOM      5  O   UNK A   0      10.188  -2.830  23.811  0.00  0.00    -0.276 OA
BRANCH   4   6
ATOM      6  C   UNK A   0       9.399  -1.568  21.967  0.00  0.00    +0.107 C 
BRANCH   6   7
ATOM      7  C   UNK A   0      10.007  -0.181  21.937  0.00  0.00    +0.129 C 
BRANCH   7   8
ATOM      8  C   UNK A   0       9.077   1.009  21.838  0.00  0.00    +0.305 C 
ATOM      9  O   UNK A   0       7.901   0.914  22.173  0.00  0.00    -0.251 OA
BRANCH   8  10
ATOM     10  O   UNK A   0       9.567   2.173  21.383  0.00  0.00    -0.481 OA
ATOM     11  H   UNK A   0       9.191   3.021  21.710  0.00  0.00    +0.295 HD
ENDBRANCH   8  10
ENDBRANCH   7   8
ENDBRANCH   6   7
ENDBRANCH   4   6
ENDBRANCH   1   2
BRANCH   1  12
ATOM     12  C   ARG A   1       8.086  -0.739  26.355  0.00  0.00    +0.325 C 
ATOM     13  OXT ARG A   1       7.079  -0.223  26.824  0.00  0.00    -0.249 OA
BRANCH  12  14
ATOM     14  O   ARG A   1       9.325  -0.254  26.590  0.00  0.00    -0.479 OA
ATOM     15  H   ARG A   1       9.945  -0.880  27.009  0.00  0.00    +0.295 HD
ENDBRANCH  12  14
ENDBRANCH   1  12
BRANCH   1  16
ATOM     16  CB  ARG A   1       6.701  -2.708  25.687  0.00  0.00    +0.037 C 
BRANCH  16  17
ATOM     17  CG  ARG A   1       6.682  -3.678  26.879  0.00  0.00    +0.039 C 
BRANCH  17  18
ATOM     18  CD  ARG A   1       6.959  -5.127  26.475  0.00  0.00    +0.196 C 
BRANCH  18  23
ATOM     19  NH1 ARG A   1      10.425  -5.569  25.644  0.00  0.00    -0.289 N 
ATOM     20 HH11 ARG A   1      10.614  -6.145  26.456  0.00  0.00    +0.255 HD
ATOM     21 HH12 ARG A   1      10.991  -5.862  24.859  0.00  0.00    +0.255 HD
ATOM     22  CZ  ARG A   1       9.110  -5.464  25.378  0.00  0.00    +0.376 C 
ATOM     23  NE  ARG A   1       8.386  -5.412  26.522  0.00  0.00    -0.276 N 
ATOM     24  HE  ARG A   1       8.885  -4.899  27.237  0.00  0.00    +0.258 HD
ATOM     25  NH2 ARG A   1       8.623  -5.411  24.196  0.00  0.00    -0.130 NA
ATOM     26  HH2 ARG A   1       9.379  -5.432  23.511  0.00  0.00    +0.306 HD
ENDBRANCH  18  23
ENDBRANCH  17  18
ENDBRANCH  16  17
ENDBRANCH   1  16
TORSDOF 11
ENDMDL
MODEL 7
REMARK VINA RESULT:      -5.5      2.622      6.601
REMARK  Name = 
REMARK  11 active torsions:
REMARK  status: ('A' for Active; 'I' for Inactive)
REMARK    1  A    between atoms: NE_4  and  CD_5
REMARK    2  A    between atoms: CD_5  and  CG_6
REMARK    3  A    between atoms: CG_6  and  CB_7
REMARK    4  A    between atoms: CB_7  and  CA_8
REMARK    5  A    between atoms: CA_8  and  N_10
REMARK    6  A    between atoms: CA_8  and  C_18
REMARK    7  A    between atoms: C_11  and  C_13
REMARK    8  A    between atoms: C_13  and  C_14
REMARK    9  A    between atoms: C_14  and  C_15
REMARK   10  A    between atoms: C_15  and  O_16
REMARK   11  A    between atoms: C_18  and  O_19
REMARK                            x       y       z     vdW  Elec       q    Type
REMARK                         _______ _______ _______ _____ _____    ______ ____
ROOT
ATOM      1  CA  ARG A   1       8.286  -2.043  24.049  0.00  0.00    +0.182 C 
ENDROOT
BRANCH   1   2
ATOM      2  N   ARG A   1       8.564  -0.833  23.273  0.00  0.00    -0.302 N 
ATOM      3  H   ARG A   1       8.143   0.025  23.616  0.00  0.00    +0.150 HD
ATOM      4  C   UNK A   0       9.577  -0.768  22.364  0.00  0.00    +0.214 C 
ATOM      5  O   UNK A   0      10.353  -1.692  22.125  0.00  0.00    -0.276 OA
BRANCH   4   6
ATOM      6  C   UNK A   0       9.757   0.556  21.673  0.00  0.00    +0.107 C 
BRANCH   6   7
ATOM      7  C   UNK A   0       9.323   1.696  22.571  0.00  0.00    +0.129 C 
BRANCH   7   8
ATOM      8  C   UNK A   0      10.258   2.137  23.677  0.00  0.00    +0.305 C 
ATOM      9  O   UNK A   0      11.037   3.068  23.504  0.00  0.00    -0.251 OA
BRANCH   8  10
ATOM     10  O   UNK A   0      10.212   1.493  24.854  0.00  0.00    -0.481 OA
ATOM     11  H   UNK A   0      10.140   0.512  24.869  0.00  0.00    +0.295 HD
ENDBRANCH   8  10
ENDBRANCH   7   8
ENDBRANCH   6   7
ENDBRANCH   4   6
ENDBRANCH   1   2
BRANCH   1  12
ATOM     12  C   ARG A   1       8.468  -1.697  25.531  0.00  0.00    +0.325 C 
ATOM     13  OXT ARG A   1       9.184  -0.783  25.921  0.00  0.00    -0.249 OA
BRANCH  12  14
ATOM     14  O   ARG A   1       7.728  -2.448  26.374  0.00  0.00    -0.479 OA
ATOM     15  H   ARG A   1       6.874  -2.058  26.641  0.00  0.00    +0.295 HD
ENDBRANCH  12  14
ENDBRANCH   1  12
BRANCH   1  16
ATOM     16  CB  ARG A   1       6.848  -2.514  23.813  0.00  0.00    +0.037 C 
BRANCH  16  17
ATOM     17  CG  ARG A   1       6.779  -3.834  23.029  0.00  0.00    +0.039 C 
BRANCH  17  18
ATOM     18  CD  ARG A   1       7.826  -4.854  23.481  0.00  0.00    +0.196 C 
BRANCH  18  23
ATOM     19  NH1 ARG A   1       8.316  -5.647  26.949  0.00  0.00    -0.289 N 
ATOM     20 HH11 ARG A   1       7.404  -6.078  27.048  0.00  0.00    +0.255 HD
ATOM     21 HH12 ARG A   1       8.994  -6.111  27.538  0.00  0.00    +0.255 HD
ATOM     22  CZ  ARG A   1       8.689  -5.512  25.663  0.00  0.00    +0.376 C 
ATOM     23  NE  ARG A   1       7.628  -5.211  24.878  0.00  0.00    -0.276 N 
ATOM     24  HE  ARG A   1       6.980  -4.609  25.370  0.00  0.00    +0.258 HD
ATOM     25  NH2 ARG A   1       9.894  -5.644  25.253  0.00  0.00    -0.130 NA
ATOM     26  HH2 ARG A   1      10.508  -5.835  26.045  0.00  0.00    +0.306 HD
ENDBRANCH  18  23
ENDBRANCH  17  18
ENDBRANCH  16  17
ENDBRANCH   1  16
TORSDOF 11
ENDMDL
MODEL 8
REMARK VINA RESULT:      -5.5      2.723      6.444
REMARK  Name = 
REMARK  11 active torsions:
REMARK  status: ('A' for Active; 'I' for Inactive)
REMARK    1  A    between atoms: NE_4  and  CD_5
REMARK    2  A    between atoms: CD_5  and  CG_6
REMARK    3  A    between atoms: CG_6  and  CB_7
REMARK    4  A    between atoms: CB_7  and  CA_8
REMARK    5  A    between atoms: CA_8  and  N_10
REMARK    6  A    between atoms: CA_8  and  C_18
REMARK    7  A    between atoms: C_11  and  C_13
REMARK    8  A    between atoms: C_13  and  C_14
REMARK    9  A    between atoms: C_14  and  C_15
REMARK   10  A    between atoms: C_15  and  O_16
REMARK   11  A    between atoms: C_18  and  O_19
REMARK                            x       y       z     vdW  Elec       q    Type
REMARK                         _______ _______ _______ _____ _____    ______ ____
ROOT
ATOM      1  CA  ARG A   1       8.427  -3.704  24.770  0.00  0.00    +0.182 C 
ENDROOT
BRANCH   1   2
ATOM      2  N   ARG A   1       9.375  -2.780  24.144  0.00  0.00    -0.302 N 
ATOM      3  H   ARG A   1      10.300  -2.738  24.561  0.00  0.00    +0.150 HD
ATOM      4  C   UNK A   0       9.174  -2.264  22.899  0.00  0.00    +0.214 C 
ATOM      5  O   UNK A   0       8.209  -2.533  22.185  0.00  0.00    -0.276 OA
BRANCH   4   6
ATOM      6  C   UNK A   0      10.256  -1.357  22.381  0.00  0.00    +0.107 C 
BRANCH   6   7
ATOM      7  C   UNK A   0       9.665  -0.206  21.593  0.00  0.00    +0.129 C 
BRANCH   7   8
ATOM      8  C   UNK A   0       9.879   1.202  22.107  0.00  0.00    +0.305 C 
ATOM      9  O   UNK A   0      10.468   1.399  23.164  0.00  0.00    -0.251 OA
BRANCH   8  10
ATOM     10  O   UNK A   0       9.417   2.230  21.378  0.00  0.00    -0.481 OA
ATOM     11  H   UNK A   0       8.797   2.059  20.634  0.00  0.00    +0.295 HD
ENDBRANCH   8  10
ENDBRANCH   7   8
ENDBRANCH   6   7
ENDBRANCH   4   6
ENDBRANCH   1   2
BRANCH   1  12
ATOM     12  C   ARG A   1       9.219  -4.615  25.713  0.00  0.00    +0.325 C 
ATOM     13  OXT ARG A   1       9.024  -4.657  26.922  0.00  0.00    -0.249 OA
BRANCH  12  14
ATOM     14  O   ARG A   1      10.118  -5.412  25.096  0.00  0.00    -0.479 OA
ATOM     15  H   ARG A   1      10.682  -4.970  24.433  0.00  0.00    +0.295 HD
ENDBRANCH  12  14
ENDBRANCH   1  12
BRANCH   1  16
ATOM     16  CB  ARG A   1       7.377  -2.934  25.574  0.00  0.00    +0.037 C 
BRANCH  16  17
ATOM     17  CG  ARG A   1       5.973  -3.550  25.458  0.00  0.00    +0.039 C 
BRANCH  17  18
ATOM     18  CD  ARG A   1       5.427  -3.529  24.030  0.00  0.00    +0.196 C 
BRANCH  18  23
ATOM     19  NH1 ARG A   1       5.738  -6.372  21.859  0.00  0.00    -0.289 N 
ATOM     20 HH11 ARG A   1       5.101  -6.942  22.405  0.00  0.00    +0.255 HD
ATOM     21 HH12 ARG A   1       5.661  -6.595  20.876  0.00  0.00    +0.255 HD
ATOM     22  CZ  ARG A   1       5.637  -5.062  22.147  0.00  0.00    +0.376 C 
ATOM     23  NE  ARG A   1       5.402  -4.871  23.467  0.00  0.00    -0.276 N 
ATOM     24  HE  ARG A   1       5.895  -5.559  24.020  0.00  0.00    +0.258 HD
ATOM     25  NH2 ARG A   1       5.760  -4.129  21.278  0.00  0.00    -0.130 NA
ATOM     26  HH2 ARG A   1       5.969  -4.535  20.366  0.00  0.00    +0.306 HD
ENDBRANCH  18  23
ENDBRANCH  17  18
ENDBRANCH  16  17
ENDBRANCH   1  16
TORSDOF 11
ENDMDL
MODEL 9
REMARK VINA RESULT:      -5.4      2.815      6.613
REMARK  Name = 
REMARK  11 active torsions:
REMARK  status: ('A' for Active; 'I' for Inactive)
REMARK    1  A    between atoms: NE_4  and  CD_5
REMARK    2  A    between atoms: CD_5  and  CG_6
REMARK    3  A    between atoms: CG_6  and  CB_7
REMARK    4  A    between atoms: CB_7  and  CA_8
REMARK    5  A    between atoms: CA_8  and  N_10
REMARK    6  A    between atoms: CA_8  and  C_18
REMARK    7  A    between atoms: C_11  and  C_13
REMARK    8  A    between atoms: C_13  and  C_14
REMARK    9  A    between atoms: C_14  and  C_15
REMARK   10  A    between atoms: C_15  and  O_16
REMARK   11  A    between atoms: C_18  and  O_19
REMARK                            x       y       z     vdW  Elec       q    Type
REMARK                         _______ _______ _______ _____ _____    ______ ____
ROOT
ATOM      1  CA  ARG A   1       6.787  -1.679  24.033  0.00  0.00    +0.182 C 
ENDROOT
BRANCH   1   2
ATOM      2  N   ARG A   1       7.959  -1.108  23.366  0.00  0.00    -0.302 N 
ATOM      3  H   ARG A   1       7.786  -0.312  22.760  0.00  0.00    +0.150 HD
ATOM      4  C   UNK A   0       9.232  -1.379  23.772  0.00  0.00    +0.214 C 
ATOM      5  O   UNK A   0       9.514  -2.098  24.730  0.00  0.00    -0.276 OA
BRANCH   4   6
ATOM      6  C   UNK A   0      10.327  -0.687  23.009  0.00  0.00    +0.107 C 
BRANCH   6   7
ATOM      7  C   UNK A   0      10.409   0.777  23.389  0.00  0.00    +0.129 C 
BRANCH   7   8
ATOM      8  C   UNK A   0       9.660   1.783  22.541  0.00  0.00    +0.305 C 
ATOM      9  O   UNK A   0       8.475   2.017  22.750  0.00  0.00    -0.251 OA
BRANCH   8  10
ATOM     10  O   UNK A   0      10.322   2.419  21.562  0.00  0.00    -0.481 OA
ATOM     11  H   UNK A   0      11.305   2.440  21.574  0.00  0.00    +0.295 HD
ENDBRANCH   8  10
ENDBRANCH   7   8
ENDBRANCH   6   7
ENDBRANCH   4   6
ENDBRANCH   1   2
BRANCH   1  12
ATOM     12  C   ARG A   1       5.858  -0.521  24.413  0.00  0.00    +0.325 C 
ATOM     13  OXT ARG A   1       5.056  -0.583  25.337  0.00  0.00    -0.249 OA
BRANCH  12  14
ATOM     14  O   ARG A   1       6.034   0.599  23.680  0.00  0.00    -0.479 OA
ATOM     15  H   ARG A   1       6.819   1.131  23.913  0.00  0.00    +0.295 HD
ENDBRANCH  12  14
ENDBRANCH   1  12
BRANCH   1  16
ATOM     16  CB  ARG A   1       6.046  -2.633  23.092  0.00  0.00    +0.037 C 
BRANCH  16  17
ATOM     17  CG  ARG A   1       6.797  -3.958  22.883  0.00  0.00    +0.039 C 
BRANCH  17  18
ATOM     18  CD  ARG A   1       7.029  -4.727  24.185  0.00  0.00    +0.196 C 
BRANCH  18  23
ATOM     19  NH1 ARG A   1      10.207  -5.582  25.620  0.00  0.00    -0.289 N 
ATOM     20 HH11 ARG A   1      10.699  -4.835  25.141  0.00  0.00    +0.255 HD
ATOM     21 HH12 ARG A   1      10.615  -5.749  26.530  0.00  0.00    +0.255 HD
ATOM     22  CZ  ARG A   1       8.874  -5.404  25.626  0.00  0.00    +0.376 C 
ATOM     23  NE  ARG A   1       8.452  -4.851  24.464  0.00  0.00    -0.276 N 
ATOM     24  HE  ARG A   1       8.996  -5.200  23.685  0.00  0.00    +0.258 HD
ATOM     25  NH2 ARG A   1       8.116  -5.728  26.605  0.00  0.00    -0.130 NA
ATOM     26  HH2 ARG A   1       8.673  -6.157  27.344  0.00  0.00    +0.306 HD
ENDBRANCH  18  23
ENDBRANCH  17  18
ENDBRANCH  16  17
ENDBRANCH   1  16
TORSDOF 11
ENDMDL
