MODEL 1
REMARK VINA RESULT:      -6.5      0.000      0.000
REMARK  Name = 
REMARK  1 active torsions:
REMARK  status: ('A' for Active; 'I' for Inactive)
REMARK    1  A    between atoms: C_8  and  C_9
REMARK                            x       y       z     vdW  Elec       q    Type
REMARK                         _______ _______ _______ _____ _____    ______ ____
ROOT
ATOM      1  C   UNL     1       8.844  -1.614  23.847  0.00  0.00    -0.022 A 
ATOM      2  C   UNL     1       7.693  -1.199  23.174  0.00  0.00    +0.010 A 
ATOM      3  C   UNL     1       7.476   0.149  22.889  0.00  0.00    +0.030 A 
ATOM      4  C   UNL     1       8.422   1.105  23.197  0.00  0.00    +0.089 A 
ATOM      5  N   UNL     1       8.176   2.387  22.867  0.00  0.00    -0.252 NA
ATOM      6  C   UNL     1       9.156   3.271  23.137  0.00  0.00    +0.131 A 
ATOM      7  C   UNL     1      10.344   2.890  23.723  0.00  0.00    +0.131 A 
ATOM      8  N   UNL     1      10.598   1.610  24.084  0.00  0.00    -0.252 NA
ATOM      9  C   UNL     1       9.630   0.707  23.821  0.00  0.00    +0.090 A 
ATOM     10  C   UNL     1       9.810  -0.641  24.144  0.00  0.00    +0.037 A 
ENDROOT
BRANCH   1  15
ATOM     11  O   UNL     1       6.875  -5.274  28.031  0.00  0.00    -0.262 OA
ATOM     12  C   UNL     1       7.584  -4.950  27.094  0.00  0.00    +0.283 C 
ATOM     13  S   UNL     1       7.878  -3.297  26.607  0.00  0.00    -0.026 S 
ATOM     14  C   UNL     1       8.737  -3.776  25.187  0.00  0.00    +0.080 C 
ATOM     15  C   UNL     1       9.116  -3.038  24.131  0.00  0.00    +0.028 C 
ATOM     16  C   UNL     1       8.955  -5.250  25.231  0.00  0.00    +0.258 C 
ATOM     17  O   UNL     1       9.636  -5.890  24.446  0.00  0.00    -0.269 OA
ATOM     18  N   UNL     1       8.252  -5.791  26.268  0.00  0.00    -0.243 N 
ATOM     19  H   UNL     1       8.219  -6.786  26.414  0.00  0.00    +0.159 HD
ENDBRANCH   1  15
TORSDOF 1
ENDMDL
MODEL 2
REMARK VINA RESULT:      -6.4      5.171      7.675
REMARK  Name = 
REMARK  1 active torsions:
REMARK  status: ('A' for Active; 'I' for Inactive)
REMARK    1  A    between atoms: C_8  and  C_9
REMARK                            x       y       z     vdW  Elec       q    Type
REMARK                         _______ _______ _______ _____ _____    ______ ____
ROOT
ATOM      1  C   UNL     1      10.409   2.061  23.100  0.00  0.00    -0.022 A 
ATOM      2  C   UNL     1       9.929   1.710  21.837  0.00  0.00    +0.010 A 
ATOM      3  C   UNL     1       9.453   0.424  21.583  0.00  0.00    +0.030 A 
ATOM      4  C   UNL     1       9.371  -0.519  22.587  0.00  0.00    +0.089 A 
ATOM      5  N   UNL     1       8.870  -1.733  22.295  0.00  0.00    -0.252 NA
ATOM      6  C   UNL     1       8.758  -2.596  23.323  0.00  0.00    +0.131 A 
ATOM      7  C   UNL     1       9.139  -2.260  24.604  0.00  0.00    +0.131 A 
ATOM      8  N   UNL     1       9.669  -1.052  24.911  0.00  0.00    -0.252 NA
ATOM      9  C   UNL     1       9.788  -0.172  23.896  0.00  0.00    +0.090 A 
ATOM     10  C   UNL     1      10.309   1.106  24.123  0.00  0.00    +0.037 A 
ENDROOT
BRANCH   1  15
ATOM     11  O   UNL     1       7.597   6.971  24.763  0.00  0.00    -0.262 OA
ATOM     12  C   UNL     1       8.562   6.325  24.393  0.00  0.00    +0.283 C 
ATOM     13  S   UNL     1       8.460   4.770  23.601  0.00  0.00    -0.026 S 
ATOM     14  C   UNL     1      10.171   4.537  23.648  0.00  0.00    +0.080 C 
ATOM     15  C   UNL     1      10.887   3.425  23.406  0.00  0.00    +0.028 C 
ATOM     16  C   UNL     1      10.817   5.798  24.110  0.00  0.00    +0.258 C 
ATOM     17  O   UNL     1      12.017   6.012  24.135  0.00  0.00    -0.269 OA
ATOM     18  N   UNL     1       9.863   6.677  24.534  0.00  0.00    -0.243 N 
ATOM     19  H   UNL     1      10.112   7.559  24.950  0.00  0.00    +0.159 HD
ENDBRANCH   1  15
TORSDOF 1
ENDMDL
MODEL 3
REMARK VINA RESULT:      -6.4      2.174      3.006
REMARK  Name = 
REMARK  1 active torsions:
REMARK  status: ('A' for Active; 'I' for Inactive)
REMARK    1  A    between atoms: C_8  and  C_9
REMARK                            x       y       z     vdW  Elec       q    Type
REMARK                         _______ _______ _______ _____ _____    ______ ____
ROOT
ATOM      1  C   UNL     1       8.358  -2.658  24.634  0.00  0.00    -0.022 A 
ATOM      2  C   UNL     1       9.622  -2.825  24.067  0.00  0.00    +0.010 A 
ATOM      3  C   UNL     1      10.086  -1.955  23.081  0.00  0.00    +0.030 A 
ATOM      4  C   UNL     1       9.342  -0.862  22.685  0.00  0.00    +0.089 A 
ATOM      5  N   UNL     1       9.853  -0.035  21.754  0.00  0.00    -0.252 NA
ATOM      6  C   UNL     1       9.113   1.048  21.448  0.00  0.00    +0.131 A 
ATOM      7  C   UNL     1       7.897   1.297  22.047  0.00  0.00    +0.131 A 
ATOM      8  N   UNL     1       7.356   0.463  22.967  0.00  0.00    -0.252 NA
ATOM      9  C   UNL     1       8.083  -0.628  23.291  0.00  0.00    +0.090 A 
ATOM     10  C   UNL     1       7.611  -1.536  24.243  0.00  0.00    +0.037 A 
ENDROOT
BRANCH   1  15
ATOM     11  O   UNL     1       4.604  -7.207  24.590  0.00  0.00    -0.262 OA
ATOM     12  C   UNL     1       5.311  -6.366  25.118  0.00  0.00    +0.283 C 
ATOM     13  S   UNL     1       5.858  -4.905  24.330  0.00  0.00    -0.026 S 
ATOM     14  C   UNL     1       6.891  -4.478  25.647  0.00  0.00    +0.080 C 
ATOM     15  C   UNL     1       7.855  -3.543  25.706  0.00  0.00    +0.028 C 
ATOM     16  C   UNL     1       6.628  -5.402  26.785  0.00  0.00    +0.258 C 
ATOM     17  O   UNL     1       7.097  -5.298  27.907  0.00  0.00    -0.269 OA
ATOM     18  N   UNL     1       5.802  -6.410  26.381  0.00  0.00    -0.243 N 
ATOM     19  H   UNL     1       5.568  -7.173  26.994  0.00  0.00    +0.159 HD
ENDBRANCH   1  15
TORSDOF 1
ENDMDL
MODEL 4
REMARK VINA RESULT:      -6.4      2.402      2.895
REMARK  Name = 
REMARK  1 active torsions:
REMARK  status: ('A' for Active; 'I' for Inactive)
REMARK    1  A    between atoms: C_8  and  C_9
REMARK                            x       y       z     vdW  Elec       q    Type
REMARK                         _______ _______ _______ _____ _____    ______ ____
ROOT
ATOM      1  C   UNL     1       9.145  -1.221  23.557  0.00  0.00    -0.022 A 
ATOM      2  C   UNL     1       9.924  -0.741  22.503  0.00  0.00    +0.010 A 
ATOM      3  C   UNL     1      10.085   0.628  22.295  0.00  0.00    +0.030 A 
ATOM      4  C   UNL     1       9.541   1.551  23.165  0.00  0.00    +0.089 A 
ATOM      5  N   UNL     1       9.757   2.860  22.936  0.00  0.00    -0.252 NA
ATOM      6  C   UNL     1       9.254   3.715  23.847  0.00  0.00    +0.131 A 
ATOM      7  C   UNL     1       8.552   3.280  24.950  0.00  0.00    +0.131 A 
ATOM      8  N   UNL     1       8.304   1.969  25.182  0.00  0.00    -0.252 NA
ATOM      9  C   UNL     1       8.801   1.094  24.282  0.00  0.00    +0.090 A 
ATOM     10  C   UNL     1       8.608  -0.280  24.449  0.00  0.00    +0.037 A 
ENDROOT
BRANCH   1  15
ATOM     11  O   UNL     1       5.695  -5.343  21.133  0.00  0.00    -0.262 OA
ATOM     12  C   UNL     1       6.486  -4.910  21.953  0.00  0.00    +0.283 C 
ATOM     13  S   UNL     1       6.743  -3.212  22.271  0.00  0.00    -0.026 S 
ATOM     14  C   UNL     1       8.078  -3.521  23.322  0.00  0.00    +0.080 C 
ATOM     15  C   UNL     1       8.986  -2.666  23.822  0.00  0.00    +0.028 C 
ATOM     16  C   UNL     1       8.169  -4.988  23.566  0.00  0.00    +0.258 C 
ATOM     17  O   UNL     1       8.921  -5.531  24.360  0.00  0.00    -0.269 OA
ATOM     18  N   UNL     1       7.302  -5.649  22.744  0.00  0.00    -0.243 N 
ATOM     19  H   UNL     1       7.273  -6.654  22.714  0.00  0.00    +0.159 HD
ENDBRANCH   1  15
TORSDOF 1
ENDMDL
MODEL 5
REMARK VINA RESULT:      -6.4      3.124      3.391
REMARK  Name = 
REMARK  1 active torsions:
REMARK  status: ('A' for Active; 'I' for Inactive)
REMARK    1  A    between atoms: C_8  and  C_9
REMARK                            x       y       z     vdW  Elec       q    Type
REMARK                         _______ _______ _______ _____ _____    ______ ____
ROOT
ATOM      1  C   UNL     1       8.454  -2.849  23.273  0.00  0.00    -0.022 A 
ATOM      2  C   UNL     1       8.602  -2.447  24.602  0.00  0.00    +0.010 A 
ATOM      3  C   UNL     1       9.123  -1.193  24.917  0.00  0.00    +0.030 A 
ATOM      4  C   UNL     1       9.440  -0.281  23.931  0.00  0.00    +0.089 A 
ATOM      5  N   UNL     1       9.906   0.928  24.293  0.00  0.00    -0.252 NA
ATOM      6  C   UNL     1      10.144   1.799  23.294  0.00  0.00    +0.131 A 
ATOM      7  C   UNL     1       9.928   1.474  21.972  0.00  0.00    +0.131 A 
ATOM      8  N   UNL     1       9.484   0.253  21.588  0.00  0.00    -0.252 NA
ATOM      9  C   UNL     1       9.237  -0.635  22.574  0.00  0.00    +0.090 A 
ATOM     10  C   UNL     1       8.761  -1.914  22.273  0.00  0.00    +0.037 A 
ENDROOT
BRANCH   1  15
ATOM     11  O   UNL     1       2.900  -4.829  23.157  0.00  0.00    -0.262 OA
ATOM     12  C   UNL     1       4.112  -4.940  23.087  0.00  0.00    +0.283 C 
ATOM     13  S   UNL     1       5.246  -3.784  23.744  0.00  0.00    -0.026 S 
ATOM     14  C   UNL     1       6.604  -4.583  23.038  0.00  0.00    +0.080 C 
ATOM     15  C   UNL     1       7.872  -4.157  22.909  0.00  0.00    +0.028 C 
ATOM     16  C   UNL     1       6.152  -5.880  22.459  0.00  0.00    +0.258 C 
ATOM     17  O   UNL     1       6.881  -6.743  21.998  0.00  0.00    -0.269 OA
ATOM     18  N   UNL     1       4.790  -5.952  22.492  0.00  0.00    -0.243 N 
ATOM     19  H   UNL     1       4.297  -6.725  22.078  0.00  0.00    +0.159 HD
ENDBRANCH   1  15
TORSDOF 1
ENDMDL
MODEL 6
REMARK VINA RESULT:      -6.3      1.758      1.912
REMARK  Name = 
REMARK  1 active torsions:
REMARK  status: ('A' for Active; 'I' for Inactive)
REMARK    1  A    between atoms: C_8  and  C_9
REMARK                            x       y       z     vdW  Elec       q    Type
REMARK                         _______ _______ _______ _____ _____    ______ ____
ROOT
ATOM      1  C   UNL     1       8.175  -1.687  22.835  0.00  0.00    -0.022 A 
ATOM      2  C   UNL     1       9.129  -1.503  21.832  0.00  0.00    +0.010 A 
ATOM      3  C   UNL     1       9.789  -0.284  21.684  0.00  0.00    +0.030 A 
ATOM      4  C   UNL     1       9.575   0.755  22.567  0.00  0.00    +0.089 A 
ATOM      5  N   UNL     1      10.265   1.898  22.398  0.00  0.00    -0.252 NA
ATOM      6  C   UNL     1      10.063   2.859  23.320  0.00  0.00    +0.131 A 
ATOM      7  C   UNL     1       9.194   2.687  24.377  0.00  0.00    +0.131 A 
ATOM      8  N   UNL     1       8.473   1.554  24.547  0.00  0.00    -0.252 NA
ATOM      9  C   UNL     1       8.662   0.577  23.635  0.00  0.00    +0.090 A 
ATOM     10  C   UNL     1       7.973  -0.634  23.740  0.00  0.00    +0.037 A 
ENDROOT
BRANCH   1  15
ATOM     11  O   UNL     1       7.781  -5.290  27.487  0.00  0.00    -0.262 OA
ATOM     12  C   UNL     1       7.622  -4.974  26.321  0.00  0.00    +0.283 C 
ATOM     13  S   UNL     1       8.521  -3.713  25.512  0.00  0.00    -0.026 S 
ATOM     14  C   UNL     1       7.552  -3.816  24.085  0.00  0.00    +0.080 C 
ATOM     15  C   UNL     1       7.486  -2.978  23.036  0.00  0.00    +0.028 C 
ATOM     16  C   UNL     1       6.655  -5.000  24.198  0.00  0.00    +0.258 C 
ATOM     17  O   UNL     1       5.934  -5.430  23.313  0.00  0.00    -0.269 OA
ATOM     18  N   UNL     1       6.733  -5.522  25.456  0.00  0.00    -0.243 N 
ATOM     19  H   UNL     1       6.143  -6.285  25.744  0.00  0.00    +0.159 HD
ENDBRANCH   1  15
TORSDOF 1
ENDMDL
MODEL 7
REMARK VINA RESULT:      -6.3      2.888      6.885
REMARK  Name = 
REMARK  1 active torsions:
REMARK  status: ('A' for Active; 'I' for Inactive)
REMARK    1  A    between atoms: C_8  and  C_9
REMARK                            x       y       z     vdW  Elec       q    Type
REMARK                         _______ _______ _______ _____ _____    ______ ____
ROOT
ATOM      1  C   UNL     1       7.647  -4.404  24.639  0.00  0.00    -0.022 A 
ATOM      2  C   UNL     1       6.459  -4.845  24.052  0.00  0.00    +0.010 A 
ATOM      3  C   UNL     1       5.555  -5.631  24.765  0.00  0.00    +0.030 A 
ATOM      4  C   UNL     1       5.768  -5.937  26.094  0.00  0.00    +0.089 A 
ATOM      5  N   UNL     1       4.845  -6.670  26.744  0.00  0.00    -0.252 NA
ATOM      6  C   UNL     1       5.073  -6.891  28.053  0.00  0.00    +0.131 A 
ATOM      7  C   UNL     1       6.191  -6.400  28.694  0.00  0.00    +0.131 A 
ATOM      8  N   UNL     1       7.142  -5.683  28.049  0.00  0.00    -0.252 NA
ATOM      9  C   UNL     1       6.932  -5.449  26.737  0.00  0.00    +0.090 A 
ATOM     10  C   UNL     1       7.852  -4.704  25.994  0.00  0.00    +0.037 A 
ENDROOT
BRANCH   1  15
ATOM     11  O   UNL     1       8.914   1.339  25.063  0.00  0.00    -0.262 OA
ATOM     12  C   UNL     1       8.976   0.231  24.560  0.00  0.00    +0.283 C 
ATOM     13  S   UNL     1       7.806  -1.039  24.830  0.00  0.00    -0.026 S 
ATOM     14  C   UNL     1       8.746  -2.207  23.971  0.00  0.00    +0.080 C 
ATOM     15  C   UNL     1       8.606  -3.542  23.918  0.00  0.00    +0.028 C 
ATOM     16  C   UNL     1       9.884  -1.513  23.304  0.00  0.00    +0.258 C 
ATOM     17  O   UNL     1      10.664  -2.024  22.518  0.00  0.00    -0.269 OA
ATOM     18  N   UNL     1       9.946  -0.216  23.726  0.00  0.00    -0.243 N 
ATOM     19  H   UNL     1      10.694   0.392  23.439  0.00  0.00    +0.159 HD
ENDBRANCH   1  15
TORSDOF 1
ENDMDL
MODEL 8
REMARK VINA RESULT:      -6.3      3.010      7.007
REMARK  Name = 
REMARK  1 active torsions:
REMARK  status: ('A' for Active; 'I' for Inactive)
REMARK    1  A    between atoms: C_8  and  C_9
REMARK                            x       y       z     vdW  Elec       q    Type
REMARK                         _______ _______ _______ _____ _____    ______ ____
ROOT
ATOM      1  C   UNL     1       8.124  -3.982  24.806  0.00  0.00    -0.022 A 
ATOM      2  C   UNL     1       8.523  -4.342  26.095  0.00  0.00    +0.010 A 
ATOM      3  C   UNL     1       7.709  -5.137  26.901  0.00  0.00    +0.030 A 
ATOM      4  C   UNL     1       6.519  -5.652  26.428  0.00  0.00    +0.089 A 
ATOM      5  N   UNL     1       5.790  -6.442  27.238  0.00  0.00    -0.252 NA
ATOM      6  C   UNL     1       4.668  -6.966  26.708  0.00  0.00    +0.131 A 
ATOM      7  C   UNL     1       4.282  -6.706  25.410  0.00  0.00    +0.131 A 
ATOM      8  N   UNL     1       4.990  -5.894  24.591  0.00  0.00    -0.252 NA
ATOM      9  C   UNL     1       6.119  -5.360  25.101  0.00  0.00    +0.090 A 
ATOM     10  C   UNL     1       6.922  -4.522  24.323  0.00  0.00    +0.037 A 
ENDROOT
BRANCH   1  15
ATOM     11  O   UNL     1       9.502   1.751  24.771  0.00  0.00    -0.262 OA
ATOM     12  C   UNL     1       9.480   0.620  24.318  0.00  0.00    +0.283 C 
ATOM     13  S   UNL     1       8.347  -0.615  24.810  0.00  0.00    -0.026 S 
ATOM     14  C   UNL     1       9.143  -1.838  23.886  0.00  0.00    +0.080 C 
ATOM     15  C   UNL     1       8.981  -3.172  23.917  0.00  0.00    +0.028 C 
ATOM     16  C   UNL     1      10.183  -1.196  23.033  0.00  0.00    +0.258 C 
ATOM     17  O   UNL     1      10.838  -1.757  22.171  0.00  0.00    -0.269 OA
ATOM     18  N   UNL     1      10.319   0.117  23.379  0.00  0.00    -0.243 N 
ATOM     19  H   UNL     1      11.026   0.698  22.961  0.00  0.00    +0.159 HD
ENDBRANCH   1  15
TORSDOF 1
ENDMDL
MODEL 9
REMARK VINA RESULT:      -6.3      1.984      2.610
REMARK  Name = 
REMARK  1 active torsions:
REMARK  status: ('A' for Active; 'I' for Inactive)
REMARK    1  A    between atoms: C_8  and  C_9
REMARK                            x       y       z     vdW  Elec       q    Type
REMARK                         _______ _______ _______ _____ _____    ______ ____
ROOT
ATOM      1  C   UNL     1       8.369  -0.422  22.523  0.00  0.00    -0.022 A 
ATOM      2  C   UNL     1       9.455   0.105  21.821  0.00  0.00    +0.010 A 
ATOM      3  C   UNL     1       9.912   1.397  22.074  0.00  0.00    +0.030 A 
ATOM      4  C   UNL     1       9.356   2.170  23.073  0.00  0.00    +0.089 A 
ATOM      5  N   UNL     1       9.860   3.398  23.297  0.00  0.00    -0.252 NA
ATOM      6  C   UNL     1       9.320   4.086  24.321  0.00  0.00    +0.131 A 
ATOM      7  C   UNL     1       8.304   3.568  25.096  0.00  0.00    +0.131 A 
ATOM      8  N   UNL     1       7.768   2.346  24.868  0.00  0.00    -0.252 NA
ATOM      9  C   UNL     1       8.296   1.638  23.847  0.00  0.00    +0.090 A 
ATOM     10  C   UNL     1       7.817   0.359  23.549  0.00  0.00    +0.037 A 
ENDROOT
BRANCH   1  15
ATOM     11  O   UNL     1       9.058  -5.412  25.589  0.00  0.00    -0.262 OA
ATOM     12  C   UNL     1       8.708  -4.747  24.630  0.00  0.00    +0.283 C 
ATOM     13  S   UNL     1       9.323  -3.154  24.260  0.00  0.00    -0.026 S 
ATOM     14  C   UNL     1       8.196  -2.923  22.971  0.00  0.00    +0.080 C 
ATOM     15  C   UNL     1       7.885  -1.801  22.301  0.00  0.00    +0.028 C 
ATOM     16  C   UNL     1       7.481  -4.206  22.721  0.00  0.00    +0.258 C 
ATOM     17  O   UNL     1       6.712  -4.422  21.799  0.00  0.00    -0.269 OA
ATOM     18  N   UNL     1       7.791  -5.107  23.698  0.00  0.00    -0.243 N 
ATOM     19  H   UNL     1       7.348  -6.009  23.738  0.00  0.00    +0.159 HD
ENDBRANCH   1  15
TORSDOF 1
ENDMDL
