MODEL 1
REMARK VINA RESULT:      -7.2      0.000      0.000
REMARK  Name = 
REMARK  7 active torsions:
REMARK  status: ('A' for Active; 'I' for Inactive)
REMARK    1  A    between atoms: C_4  and  C_5
REMARK    2  A    between atoms: C_4  and  C_6
REMARK    3  A    between atoms: CA_7  and  C_24
REMARK    4  A    between atoms: CA_12  and  N_14
REMARK    5  A    between atoms: C_15  and  C_17
REMARK    6  A    between atoms: C_17  and  N_18
REMARK    7  A    between atoms: C_24  and  O_25
REMARK                            x       y       z     vdW  Elec       q    Type
REMARK                         _______ _______ _______ _____ _____    ______ ____
ROOT
ATOM      1  C   UNL     1       7.519  -1.273  22.790  0.00  0.00    +0.165 C 
ATOM      2  CA  UNL     1       8.049  -2.703  23.059  0.00  0.00    +0.190 C 
ATOM      3  C   UNL     1       9.431  -2.101  22.744  0.00  0.00    +0.240 C 
ATOM      4  O   UNL     1      10.587  -2.401  22.935  0.00  0.00    -0.273 OA
ATOM      5  N   UNL     1       8.885  -0.909  22.340  0.00  0.00    -0.271 N 
ATOM      6  CA  UNL     1       9.427   0.362  22.857  0.00  0.00    +0.201 C 
ATOM      7  C   UNL     1       8.865   0.549  24.287  0.00  0.00    +0.042 C 
ATOM      8  C   UNL     1       9.692  -0.219  25.338  0.00  0.00    +0.025 C 
ATOM      9  C   UNL     1       8.757   1.996  24.780  0.00  0.00    +0.025 C 
ATOM     10  S   UNL     1       7.179  -0.208  24.252  0.00  0.00    -0.127 S 
ENDROOT
BRANCH   2  11
ATOM     11  N   UNL     1       7.837  -3.237  24.431  0.00  0.00    -0.300 N 
ATOM     12  H   UNL     1       7.902  -2.625  25.235  0.00  0.00    +0.150 HD
ATOM     13  C   UNL     1       7.356  -4.514  24.590  0.00  0.00    +0.234 C 
ATOM     14  O   UNL     1       7.087  -5.195  23.598  0.00  0.00    -0.274 OA
BRANCH  13  15
ATOM     15  C   UNL     1       7.049  -4.995  26.046  0.00  0.00    +0.094 C 
ATOM     16  C   UNL     1       5.851  -5.949  26.198  0.00  0.00    +0.031 C 
ATOM     17  C   UNL     1       4.517  -5.290  25.845  0.00  0.00    +0.002 C 
ATOM     18  C   UNL     1       4.302  -3.975  26.590  0.00  0.00    +0.000 C 
ATOM     19  C   UNL     1       5.503  -3.040  26.493  0.00  0.00    +0.002 C 
ATOM     20  C   UNL     1       6.799  -3.743  26.913  0.00  0.00    +0.031 C 
BRANCH  15  21
ATOM     21  N   UNL     1       8.258  -5.695  26.538  0.00  0.00    -0.317 NA
ATOM     22  H   UNL     1       8.744  -5.118  27.224  0.00  0.00    +0.119 HD
ATOM     23  H   UNL     1       7.962  -6.531  27.048  0.00  0.00    +0.119 HD
ENDBRANCH  15  21
ENDBRANCH  13  15
ENDBRANCH   2  11
BRANCH   6  24
ATOM     24  C   UNL     1       9.077   1.468  21.845  0.00  0.00    +0.327 C 
ATOM     25  OXT UNL     1       7.959   1.684  21.403  0.00  0.00    -0.249 OA
BRANCH  24  26
ATOM     26  O   UNL     1      10.127   2.274  21.538  0.00  0.00    -0.479 OA
ATOM     27  H   UNL     1      10.042   2.611  20.622  0.00  0.00    +0.295 HD
ENDBRANCH  24  26
ENDBRANCH   6  24
TORSDOF 5
ENDMDL
MODEL 2
REMARK VINA RESULT:      -7.1      2.546      6.595
REMARK  Name = 
REMARK  7 active torsions:
REMARK  status: ('A' for Active; 'I' for Inactive)
REMARK    1  A    between atoms: C_4  and  C_5
REMARK    2  A    between atoms: C_4  and  C_6
REMARK    3  A    between atoms: CA_7  and  C_24
REMARK    4  A    between atoms: CA_12  and  N_14
REMARK    5  A    between atoms: C_15  and  C_17
REMARK    6  A    between atoms: C_17  and  N_18
REMARK    7  A    between atoms: C_24  and  O_25
REMARK                            x       y       z     vdW  Elec       q    Type
REMARK                         _______ _______ _______ _____ _____    ______ ____
ROOT
ATOM      1  C   UNL     1       5.687  -2.789  23.836  0.00  0.00    +0.165 C 
ATOM      2  CA  UNL     1       6.273  -2.058  25.070  0.00  0.00    +0.190 C 
ATOM      3  C   UNL     1       6.129  -3.421  25.772  0.00  0.00    +0.240 C 
ATOM      4  O   UNL     1       6.576  -3.953  26.762  0.00  0.00    -0.273 OA
ATOM      5  N   UNL     1       5.447  -3.961  24.712  0.00  0.00    -0.271 N 
ATOM      6  CA  UNL     1       5.849  -5.274  24.171  0.00  0.00    +0.201 C 
ATOM      7  C   UNL     1       7.103  -5.041  23.293  0.00  0.00    +0.042 C 
ATOM      8  C   UNL     1       8.397  -5.002  24.131  0.00  0.00    +0.025 C 
ATOM      9  C   UNL     1       7.332  -6.060  22.171  0.00  0.00    +0.025 C 
ATOM     10  S   UNL     1       6.874  -3.363  22.553  0.00  0.00    -0.127 S 
ENDROOT
BRANCH   2  11
ATOM     11  N   UNL     1       7.648  -1.511  24.920  0.00  0.00    -0.300 N 
ATOM     12  H   UNL     1       8.446  -2.133  24.886  0.00  0.00    +0.150 HD
ATOM     13  C   UNL     1       7.815  -0.179  24.628  0.00  0.00    +0.234 C 
ATOM     14  O   UNL     1       6.827   0.542  24.473  0.00  0.00    -0.274 OA
BRANCH  13  15
ATOM     15  C   UNL     1       9.272   0.328  24.377  0.00  0.00    +0.094 C 
ATOM     16  C   UNL     1       9.399   1.775  23.865  0.00  0.00    +0.031 C 
ATOM     17  C   UNL     1       8.803   1.968  22.471  0.00  0.00    +0.002 C 
ATOM     18  C   UNL     1       9.337   0.953  21.463  0.00  0.00    +0.000 C 
ATOM     19  C   UNL     1       9.268  -0.481  21.977  0.00  0.00    +0.002 C 
ATOM     20  C   UNL     1       9.931  -0.620  23.352  0.00  0.00    +0.031 C 
BRANCH  15  21
ATOM     21  N   UNL     1       9.996   0.233  25.665  0.00  0.00    -0.317 NA
ATOM     22  H   UNL     1      10.687   0.980  25.737  0.00  0.00    +0.119 HD
ATOM     23  H   UNL     1       9.332   0.403  26.424  0.00  0.00    +0.119 HD
ENDBRANCH  15  21
ENDBRANCH  13  15
ENDBRANCH   2  11
BRANCH   6  24
ATOM     24  C   UNL     1       4.629  -5.882  23.457  0.00  0.00    +0.327 C 
ATOM     25  OXT UNL     1       3.905  -5.282  22.676  0.00  0.00    -0.249 OA
BRANCH  24  26
ATOM     26  O   UNL     1       4.464  -7.209  23.699  0.00  0.00    -0.479 OA
ATOM     27  H   UNL     1       3.755  -7.574  23.130  0.00  0.00    +0.295 HD
ENDBRANCH  24  26
ENDBRANCH   6  24
TORSDOF 5
ENDMDL
MODEL 3
REMARK VINA RESULT:      -7.0      2.449      6.762
REMARK  Name = 
REMARK  7 active torsions:
REMARK  status: ('A' for Active; 'I' for Inactive)
REMARK    1  A    between atoms: C_4  and  C_5
REMARK    2  A    between atoms: C_4  and  C_6
REMARK    3  A    between atoms: CA_7  and  C_24
REMARK    4  A    between atoms: CA_12  and  N_14
REMARK    5  A    between atoms: C_15  and  C_17
REMARK    6  A    between atoms: C_17  and  N_18
REMARK    7  A    between atoms: C_24  and  O_25
REMARK                            x       y       z     vdW  Elec       q    Type
REMARK                         _______ _______ _______ _____ _____    ______ ____
ROOT
ATOM      1  C   UNL     1       5.549  -2.828  23.177  0.00  0.00    +0.165 C 
ATOM      2  CA  UNL     1       6.327  -1.922  24.164  0.00  0.00    +0.190 C 
ATOM      3  C   UNL     1       6.186  -3.103  25.142  0.00  0.00    +0.240 C 
ATOM      4  O   UNL     1       6.719  -3.467  26.165  0.00  0.00    -0.273 OA
ATOM      5  N   UNL     1       5.346  -3.780  24.295  0.00  0.00    -0.271 N 
ATOM      6  CA  UNL     1       5.595  -5.204  23.995  0.00  0.00    +0.201 C 
ATOM      7  C   UNL     1       6.742  -5.256  22.956  0.00  0.00    +0.042 C 
ATOM      8  C   UNL     1       8.130  -5.165  23.623  0.00  0.00    +0.025 C 
ATOM      9  C   UNL     1       6.767  -6.490  22.049  0.00  0.00    +0.025 C 
ATOM     10  S   UNL     1       6.529  -3.743  21.917  0.00  0.00    -0.127 S 
ENDROOT
BRANCH   2  11
ATOM     11  N   UNL     1       7.705  -1.536  23.757  0.00  0.00    -0.300 N 
ATOM     12  H   UNL     1       8.484  -2.157  23.934  0.00  0.00    +0.150 HD
ATOM     13  C   UNL     1       7.887  -0.429  22.964  0.00  0.00    +0.234 C 
ATOM     14  O   UNL     1       6.910   0.219  22.582  0.00  0.00    -0.274 OA
BRANCH  13  15
ATOM     15  C   UNL     1       9.340  -0.122  22.475  0.00  0.00    +0.094 C 
ATOM     16  C   UNL     1      10.430  -0.135  23.563  0.00  0.00    +0.031 C 
ATOM     17  C   UNL     1      10.252   0.978  24.596  0.00  0.00    +0.002 C 
ATOM     18  C   UNL     1      10.101   2.353  23.952  0.00  0.00    +0.000 C 
ATOM     19  C   UNL     1       9.062   2.369  22.835  0.00  0.00    +0.002 C 
ATOM     20  C   UNL     1       9.327   1.268  21.803  0.00  0.00    +0.031 C 
BRANCH  15  21
ATOM     21  N   UNL     1       9.688  -1.148  21.466  0.00  0.00    -0.317 NA
ATOM     22  H   UNL     1       9.409  -2.072  21.793  0.00  0.00    +0.119 HD
ATOM     23  H   UNL     1       9.130  -0.978  20.625  0.00  0.00    +0.119 HD
ENDBRANCH  15  21
ENDBRANCH  13  15
ENDBRANCH   2  11
BRANCH   6  24
ATOM     24  C   UNL     1       4.260  -5.832  23.556  0.00  0.00    +0.327 C 
ATOM     25  OXT UNL     1       3.413  -5.272  22.878  0.00  0.00    -0.249 OA
BRANCH  24  26
ATOM     26  O   UNL     1       4.129  -7.135  23.919  0.00  0.00    -0.479 OA
ATOM     27  H   UNL     1       3.257  -7.481  23.639  0.00  0.00    +0.295 HD
ENDBRANCH  24  26
ENDBRANCH   6  24
TORSDOF 5
ENDMDL
MODEL 4
REMARK VINA RESULT:      -7.0      2.045      6.381
REMARK  Name = 
REMARK  7 active torsions:
REMARK  status: ('A' for Active; 'I' for Inactive)
REMARK    1  A    between atoms: C_4  and  C_5
REMARK    2  A    between atoms: C_4  and  C_6
REMARK    3  A    between atoms: CA_7  and  C_24
REMARK    4  A    between atoms: CA_12  and  N_14
REMARK    5  A    between atoms: C_15  and  C_17
REMARK    6  A    between atoms: C_17  and  N_18
REMARK    7  A    between atoms: C_24  and  O_25
REMARK                            x       y       z     vdW  Elec       q    Type
REMARK                         _______ _______ _______ _____ _____    ______ ____
ROOT
ATOM      1  C   UNL     1       8.286  -4.083  25.413  0.00  0.00    +0.165 C 
ATOM      2  CA  UNL     1       9.011  -3.355  24.253  0.00  0.00    +0.190 C 
ATOM      3  C   UNL     1       7.902  -3.955  23.368  0.00  0.00    +0.240 C 
ATOM      4  O   UNL     1       7.443  -3.745  22.269  0.00  0.00    -0.273 OA
ATOM      5  N   UNL     1       7.415  -4.721  24.396  0.00  0.00    -0.271 N 
ATOM      6  CA  UNL     1       5.969  -4.730  24.686  0.00  0.00    +0.201 C 
ATOM      7  C   UNL     1       5.652  -3.427  25.461  0.00  0.00    +0.042 C 
ATOM      8  C   UNL     1       5.443  -2.227  24.513  0.00  0.00    +0.025 C 
ATOM      9  C   UNL     1       4.430  -3.478  26.384  0.00  0.00    +0.025 C 
ATOM     10  S   UNL     1       7.161  -3.079  26.468  0.00  0.00    -0.127 S 
ENDROOT
BRANCH   2  11
ATOM     11  N   UNL     1       9.079  -1.872  24.347  0.00  0.00    -0.300 N 
ATOM     12  H   UNL     1       8.685  -1.390  25.144  0.00  0.00    +0.150 HD
ATOM     13  C   UNL     1       9.852  -1.176  23.449  0.00  0.00    +0.234 C 
ATOM     14  O   UNL     1      10.495  -1.786  22.592  0.00  0.00    -0.274 OA
BRANCH  13  15
ATOM     15  C   UNL     1       9.977   0.370  23.649  0.00  0.00    +0.094 C 
ATOM     16  C   UNL     1       8.796   1.050  24.365  0.00  0.00    +0.031 C 
ATOM     17  C   UNL     1       7.497   0.987  23.562  0.00  0.00    +0.002 C 
ATOM     18  C   UNL     1       7.670   1.493  22.132  0.00  0.00    +0.000 C 
ATOM     19  C   UNL     1       8.869   0.867  21.427  0.00  0.00    +0.002 C 
ATOM     20  C   UNL     1      10.150   1.012  22.257  0.00  0.00    +0.031 C 
BRANCH  15  21
ATOM     21  N   UNL     1      11.198   0.609  24.451  0.00  0.00    -0.317 NA
ATOM     22  H   UNL     1      11.260   1.592  24.715  0.00  0.00    +0.119 HD
ATOM     23  H   UNL     1      11.113   0.097  25.333  0.00  0.00    +0.119 HD
ENDBRANCH  15  21
ENDBRANCH  13  15
ENDBRANCH   2  11
BRANCH   6  24
ATOM     24  C   UNL     1       5.644  -6.045  25.418  0.00  0.00    +0.327 C 
ATOM     25  OXT UNL     1       6.100  -6.373  26.502  0.00  0.00    -0.249 OA
BRANCH  24  26
ATOM     26  O   UNL     1       4.708  -6.800  24.785  0.00  0.00    -0.479 OA
ATOM     27  H   UNL     1       4.215  -6.258  24.135  0.00  0.00    +0.295 HD
ENDBRANCH  24  26
ENDBRANCH   6  24
TORSDOF 5
ENDMDL
MODEL 5
REMARK VINA RESULT:      -6.7      2.053      6.634
REMARK  Name = 
REMARK  7 active torsions:
REMARK  status: ('A' for Active; 'I' for Inactive)
REMARK    1  A    between atoms: C_4  and  C_5
REMARK    2  A    between atoms: C_4  and  C_6
REMARK    3  A    between atoms: CA_7  and  C_24
REMARK    4  A    between atoms: CA_12  and  N_14
REMARK    5  A    between atoms: C_15  and  C_17
REMARK    6  A    between atoms: C_17  and  N_18
REMARK    7  A    between atoms: C_24  and  O_25
REMARK                            x       y       z     vdW  Elec       q    Type
REMARK                         _______ _______ _______ _____ _____    ______ ____
ROOT
ATOM      1  C   UNL     1       8.149  -3.219  26.095  0.00  0.00    +0.165 C 
ATOM      2  CA  UNL     1       9.253  -3.232  25.008  0.00  0.00    +0.190 C 
ATOM      3  C   UNL     1       8.932  -4.735  24.897  0.00  0.00    +0.240 C 
ATOM      4  O   UNL     1       9.122  -5.618  24.094  0.00  0.00    -0.273 OA
ATOM      5  N   UNL     1       8.103  -4.697  25.989  0.00  0.00    -0.271 N 
ATOM      6  CA  UNL     1       6.760  -5.306  25.913  0.00  0.00    +0.201 C 
ATOM      7  C   UNL     1       5.853  -4.313  25.146  0.00  0.00    +0.042 C 
ATOM      8  C   UNL     1       5.995  -4.464  23.617  0.00  0.00    +0.025 C 
ATOM      9  C   UNL     1       4.356  -4.395  25.461  0.00  0.00    +0.025 C 
ATOM     10  S   UNL     1       6.478  -2.633  25.595  0.00  0.00    -0.127 S 
ENDROOT
BRANCH   2  11
ATOM     11  N   UNL     1       9.003  -2.393  23.805  0.00  0.00    -0.300 N 
ATOM     12  H   UNL     1       8.290  -2.655  23.137  0.00  0.00    +0.150 HD
ATOM     13  C   UNL     1       9.601  -1.160  23.708  0.00  0.00    +0.234 C 
ATOM     14  O   UNL     1      10.320  -0.755  24.624  0.00  0.00    -0.274 OA
BRANCH  13  15
ATOM     15  C   UNL     1       9.228  -0.270  22.478  0.00  0.00    +0.094 C 
ATOM     16  C   UNL     1      10.002   1.054  22.349  0.00  0.00    +0.031 C 
ATOM     17  C   UNL     1       9.705   2.030  23.488  0.00  0.00    +0.002 C 
ATOM     18  C   UNL     1       8.209   2.257  23.686  0.00  0.00    +0.000 C 
ATOM     19  C   UNL     1       7.420   0.954  23.762  0.00  0.00    +0.002 C 
ATOM     20  C   UNL     1       7.719   0.044  22.565  0.00  0.00    +0.031 C 
BRANCH  15  21
ATOM     21  N   UNL     1       9.489  -1.074  21.262  0.00  0.00    -0.317 NA
ATOM     22  H   UNL     1       9.339  -0.508  20.427  0.00  0.00    +0.119 HD
ATOM     23  H   UNL     1      10.481  -1.324  21.246  0.00  0.00    +0.119 HD
ENDBRANCH  15  21
ENDBRANCH  13  15
ENDBRANCH   2  11
BRANCH   6  24
ATOM     24  C   UNL     1       6.320  -5.651  27.348  0.00  0.00    +0.327 C 
ATOM     25  OXT UNL     1       6.419  -4.904  28.309  0.00  0.00    -0.249 OA
BRANCH  24  26
ATOM     26  O   UNL     1       5.707  -6.859  27.450  0.00  0.00    -0.479 OA
ATOM     27  H   UNL     1       5.337  -6.979  28.349  0.00  0.00    +0.295 HD
ENDBRANCH  24  26
ENDBRANCH   6  24
TORSDOF 5
ENDMDL
MODEL 6
REMARK VINA RESULT:      -6.6      1.949      6.779
REMARK  Name = 
REMARK  7 active torsions:
REMARK  status: ('A' for Active; 'I' for Inactive)
REMARK    1  A    between atoms: C_4  and  C_5
REMARK    2  A    between atoms: C_4  and  C_6
REMARK    3  A    between atoms: CA_7  and  C_24
REMARK    4  A    between atoms: CA_12  and  N_14
REMARK    5  A    between atoms: C_15  and  C_17
REMARK    6  A    between atoms: C_17  and  N_18
REMARK    7  A    between atoms: C_24  and  O_25
REMARK                            x       y       z     vdW  Elec       q    Type
REMARK                         _______ _______ _______ _____ _____    ______ ____
ROOT
ATOM      1  C   UNL     1       8.020  -3.368  25.501  0.00  0.00    +0.165 C 
ATOM      2  CA  UNL     1       8.160  -2.749  24.088  0.00  0.00    +0.190 C 
ATOM      3  C   UNL     1       7.124  -3.811  23.672  0.00  0.00    +0.240 C 
ATOM      4  O   UNL     1       6.366  -3.986  22.747  0.00  0.00    -0.273 OA
ATOM      5  N   UNL     1       7.182  -4.430  24.895  0.00  0.00    -0.271 N 
ATOM      6  CA  UNL     1       5.935  -4.767  25.609  0.00  0.00    +0.201 C 
ATOM      7  C   UNL     1       5.414  -3.461  26.256  0.00  0.00    +0.042 C 
ATOM      8  C   UNL     1       4.600  -2.607  25.261  0.00  0.00    +0.025 C 
ATOM      9  C   UNL     1       4.543  -3.635  27.505  0.00  0.00    +0.025 C 
ATOM     10  S   UNL     1       6.927  -2.498  26.700  0.00  0.00    -0.127 S 
ENDROOT
BRANCH   2  11
ATOM     11  N   UNL     1       7.763  -1.322  23.951  0.00  0.00    -0.300 N 
ATOM     12  H   UNL     1       7.325  -0.836  24.723  0.00  0.00    +0.150 HD
ATOM     13  C   UNL     1       8.174  -0.611  22.850  0.00  0.00    +0.234 C 
ATOM     14  O   UNL     1       8.881  -1.156  21.999  0.00  0.00    -0.274 OA
BRANCH  13  15
ATOM     15  C   UNL     1       7.823   0.911  22.799  0.00  0.00    +0.094 C 
ATOM     16  C   UNL     1       8.578   1.738  21.742  0.00  0.00    +0.031 C 
ATOM     17  C   UNL     1      10.081   1.817  22.011  0.00  0.00    +0.002 C 
ATOM     18  C   UNL     1      10.396   2.277  23.432  0.00  0.00    +0.000 C 
ATOM     19  C   UNL     1       9.615   1.502  24.488  0.00  0.00    +0.002 C 
ATOM     20  C   UNL     1       8.110   1.507  24.194  0.00  0.00    +0.031 C 
BRANCH  15  21
ATOM     21  N   UNL     1       6.374   1.016  22.514  0.00  0.00    -0.317 NA
ATOM     22  H   UNL     1       5.854   0.348  23.082  0.00  0.00    +0.119 HD
ATOM     23  H   UNL     1       6.050   1.939  22.816  0.00  0.00    +0.119 HD
ENDBRANCH  15  21
ENDBRANCH  13  15
ENDBRANCH   2  11
BRANCH   6  24
ATOM     24  C   UNL     1       6.246  -5.922  26.578  0.00  0.00    +0.327 C 
ATOM     25  OXT UNL     1       7.199  -5.957  27.342  0.00  0.00    -0.249 OA
BRANCH  24  26
ATOM     26  O   UNL     1       5.297  -6.894  26.584  0.00  0.00    -0.479 OA
ATOM     27  H   UNL     1       4.954  -7.043  25.679  0.00  0.00    +0.295 HD
ENDBRANCH  24  26
ENDBRANCH   6  24
TORSDOF 5
ENDMDL
MODEL 7
REMARK VINA RESULT:      -6.6      2.117      3.131
REMARK  Name = 
REMARK  7 active torsions:
REMARK  status: ('A' for Active; 'I' for Inactive)
REMARK    1  A    between atoms: C_4  and  C_5
REMARK    2  A    between atoms: C_4  and  C_6
REMARK    3  A    between atoms: CA_7  and  C_24
REMARK    4  A    between atoms: CA_12  and  N_14
REMARK    5  A    between atoms: C_15  and  C_17
REMARK    6  A    between atoms: C_17  and  N_18
REMARK    7  A    between atoms: C_24  and  O_25
REMARK                            x       y       z     vdW  Elec       q    Type
REMARK                         _______ _______ _______ _____ _____    ______ ____
ROOT
ATOM      1  C   UNL     1       9.166  -0.334  25.631  0.00  0.00    +0.165 C 
ATOM      2  CA  UNL     1       8.115  -1.264  26.286  0.00  0.00    +0.190 C 
ATOM      3  C   UNL     1       7.086  -0.409  25.522  0.00  0.00    +0.240 C 
ATOM      4  O   UNL     1       5.930  -0.515  25.184  0.00  0.00    -0.273 OA
ATOM      5  N   UNL     1       8.043   0.490  25.123  0.00  0.00    -0.271 N 
ATOM      6  CA  UNL     1       8.121   0.902  23.708  0.00  0.00    +0.201 C 
ATOM      7  C   UNL     1       8.825  -0.242  22.939  0.00  0.00    +0.042 C 
ATOM      8  C   UNL     1       7.843  -1.365  22.546  0.00  0.00    +0.025 C 
ATOM      9  C   UNL     1       9.564   0.167  21.661  0.00  0.00    +0.025 C 
ATOM     10  S   UNL     1      10.036  -0.962  24.136  0.00  0.00    -0.127 S 
ENDROOT
BRANCH   2  11
ATOM     11  N   UNL     1       8.198  -2.706  25.929  0.00  0.00    -0.300 N 
ATOM     12  H   UNL     1       9.009  -3.068  25.445  0.00  0.00    +0.150 HD
ATOM     13  C   UNL     1       7.267  -3.580  26.436  0.00  0.00    +0.234 C 
ATOM     14  O   UNL     1       6.387  -3.165  27.193  0.00  0.00    -0.274 OA
BRANCH  13  15
ATOM     15  C   UNL     1       7.454  -5.100  26.120  0.00  0.00    +0.094 C 
ATOM     16  C   UNL     1       8.418  -5.430  24.966  0.00  0.00    +0.031 C 
ATOM     17  C   UNL     1       7.915  -4.933  23.610  0.00  0.00    +0.002 C 
ATOM     18  C   UNL     1       6.488  -5.389  23.315  0.00  0.00    +0.000 C 
ATOM     19  C   UNL     1       5.532  -5.116  24.472  0.00  0.00    +0.002 C 
ATOM     20  C   UNL     1       6.065  -5.687  25.791  0.00  0.00    +0.031 C 
BRANCH  15  21
ATOM     21  N   UNL     1       7.975  -5.740  27.349  0.00  0.00    -0.317 NA
ATOM     22  H   UNL     1       7.553  -6.660  27.473  0.00  0.00    +0.119 HD
ATOM     23  H   UNL     1       8.975  -5.915  27.225  0.00  0.00    +0.119 HD
ENDBRANCH  15  21
ENDBRANCH  13  15
ENDBRANCH   2  11
BRANCH   6  24
ATOM     24  C   UNL     1       8.815   2.275  23.657  0.00  0.00    +0.327 C 
ATOM     25  OXT UNL     1       9.857   2.555  24.229  0.00  0.00    -0.249 OA
BRANCH  24  26
ATOM     26  O   UNL     1       8.205   3.159  22.824  0.00  0.00    -0.479 OA
ATOM     27  H   UNL     1       7.238   3.008  22.814  0.00  0.00    +0.295 HD
ENDBRANCH  24  26
ENDBRANCH   6  24
TORSDOF 5
ENDMDL
MODEL 8
REMARK VINA RESULT:      -6.6      1.700      2.311
REMARK  Name = 
REMARK  7 active torsions:
REMARK  status: ('A' for Active; 'I' for Inactive)
REMARK    1  A    between atoms: C_4  and  C_5
REMARK    2  A    between atoms: C_4  and  C_6
REMARK    3  A    between atoms: CA_7  and  C_24
REMARK    4  A    between atoms: CA_12  and  N_14
REMARK    5  A    between atoms: C_15  and  C_17
REMARK    6  A    between atoms: C_17  and  N_18
REMARK    7  A    between atoms: C_24  and  O_25
REMARK                            x       y       z     vdW  Elec       q    Type
REMARK                         _______ _______ _______ _____ _____    ______ ____
ROOT
ATOM      1  C   UNL     1       8.238  -0.075  22.102  0.00  0.00    +0.165 C 
ATOM      2  CA  UNL     1       8.233  -1.608  22.321  0.00  0.00    +0.190 C 
ATOM      3  C   UNL     1       9.540  -1.362  23.098  0.00  0.00    +0.240 C 
ATOM      4  O   UNL     1      10.210  -1.961  23.906  0.00  0.00    -0.273 OA
ATOM      5  N   UNL     1       9.587  -0.046  22.715  0.00  0.00    -0.271 N 
ATOM      6  CA  UNL     1       9.825   1.006  23.723  0.00  0.00    +0.201 C 
ATOM      7  C   UNL     1       8.486   1.234  24.467  0.00  0.00    +0.042 C 
ATOM      8  C   UNL     1       8.273   0.210  25.601  0.00  0.00    +0.025 C 
ATOM      9  C   UNL     1       8.292   2.623  25.083  0.00  0.00    +0.025 C 
ATOM     10  S   UNL     1       7.170   0.940  23.204  0.00  0.00    -0.127 S 
ENDROOT
BRANCH   2  11
ATOM     11  N   UNL     1       7.082  -2.160  23.084  0.00  0.00    -0.300 N 
ATOM     12  H   UNL     1       6.399  -1.541  23.501  0.00  0.00    +0.150 HD
ATOM     13  C   UNL     1       6.838  -3.512  23.052  0.00  0.00    +0.234 C 
ATOM     14  O   UNL     1       7.561  -4.248  22.377  0.00  0.00    -0.274 OA
BRANCH  13  15
ATOM     15  C   UNL     1       5.559  -4.034  23.783  0.00  0.00    +0.094 C 
ATOM     16  C   UNL     1       4.961  -3.091  24.843  0.00  0.00    +0.031 C 
ATOM     17  C   UNL     1       5.887  -2.878  26.040  0.00  0.00    +0.002 C 
ATOM     18  C   UNL     1       6.366  -4.194  26.648  0.00  0.00    +0.000 C 
ATOM     19  C   UNL     1       6.913  -5.161  25.602  0.00  0.00    +0.002 C 
ATOM     20  C   UNL     1       5.916  -5.376  24.457  0.00  0.00    +0.031 C 
BRANCH  15  21
ATOM     21  N   UNL     1       4.529  -4.270  22.745  0.00  0.00    -0.317 NA
ATOM     22  H   UNL     1       4.933  -4.773  21.956  0.00  0.00    +0.119 HD
ATOM     23  H   UNL     1       3.818  -4.897  23.131  0.00  0.00    +0.119 HD
ENDBRANCH  15  21
ENDBRANCH  13  15
ENDBRANCH   2  11
BRANCH   6  24
ATOM     24  C   UNL     1      10.409   2.230  22.996  0.00  0.00    +0.327 C 
ATOM     25  OXT UNL     1      11.094   3.095  23.521  0.00  0.00    -0.249 OA
BRANCH  24  26
ATOM     26  O   UNL     1      10.172   2.230  21.658  0.00  0.00    -0.479 OA
ATOM     27  H   UNL     1      10.381   3.107  21.275  0.00  0.00    +0.295 HD
ENDBRANCH  24  26
ENDBRANCH   6  24
TORSDOF 5
ENDMDL
MODEL 9
REMARK VINA RESULT:      -6.6      2.188      3.000
REMARK  Name = 
REMARK  7 active torsions:
REMARK  status: ('A' for Active; 'I' for Inactive)
REMARK    1  A    between atoms: C_4  and  C_5
REMARK    2  A    between atoms: C_4  and  C_6
REMARK    3  A    between atoms: CA_7  and  C_24
REMARK    4  A    between atoms: CA_12  and  N_14
REMARK    5  A    between atoms: C_15  and  C_17
REMARK    6  A    between atoms: C_17  and  N_18
REMARK    7  A    between atoms: C_24  and  O_25
REMARK                            x       y       z     vdW  Elec       q    Type
REMARK                         _______ _______ _______ _____ _____    ______ ____
ROOT
ATOM      1  C   UNL     1      10.256  -0.393  23.173  0.00  0.00    +0.165 C 
ATOM      2  CA  UNL     1       9.867  -1.618  24.037  0.00  0.00    +0.190 C 
ATOM      3  C   UNL     1       9.330  -0.571  25.031  0.00  0.00    +0.240 C 
ATOM      4  O   UNL     1       8.571  -0.560  25.972  0.00  0.00    -0.273 OA
ATOM      5  N   UNL     1       9.861   0.469  24.313  0.00  0.00    -0.271 N 
ATOM      6  CA  UNL     1       9.025   1.641  23.989  0.00  0.00    +0.201 C 
ATOM      7  C   UNL     1       8.118   1.238  22.801  0.00  0.00    +0.042 C 
ATOM      8  C   UNL     1       6.856   0.483  23.268  0.00  0.00    +0.025 C 
ATOM      9  C   UNL     1       7.639   2.386  21.906  0.00  0.00    +0.025 C 
ATOM     10  S   UNL     1       9.125   0.062  21.794  0.00  0.00    -0.127 S 
ENDROOT
BRANCH   2  11
ATOM     11  N   UNL     1       8.880  -2.558  23.440  0.00  0.00    -0.300 N 
ATOM     12  H   UNL     1       8.575  -2.441  22.483  0.00  0.00    +0.150 HD
ATOM     13  C   UNL     1       8.539  -3.699  24.125  0.00  0.00    +0.234 C 
ATOM     14  O   UNL     1       9.066  -3.942  25.213  0.00  0.00    -0.274 OA
BRANCH  13  15
ATOM     15  C   UNL     1       7.579  -4.709  23.414  0.00  0.00    +0.094 C 
ATOM     16  C   UNL     1       6.864  -4.181  22.157  0.00  0.00    +0.031 C 
ATOM     17  C   UNL     1       5.885  -3.047  22.461  0.00  0.00    +0.002 C 
ATOM     18  C   UNL     1       4.902  -3.408  23.573  0.00  0.00    +0.000 C 
ATOM     19  C   UNL     1       5.592  -3.982  24.806  0.00  0.00    +0.002 C 
ATOM     20  C   UNL     1       6.516  -5.150  24.442  0.00  0.00    +0.031 C 
BRANCH  15  21
ATOM     21  N   UNL     1       8.392  -5.881  23.021  0.00  0.00    -0.317 NA
ATOM     22  H   UNL     1       7.832  -6.731  23.069  0.00  0.00    +0.119 HD
ATOM     23  H   UNL     1       8.649  -5.782  22.035  0.00  0.00    +0.119 HD
ENDBRANCH  15  21
ENDBRANCH  13  15
ENDBRANCH   2  11
BRANCH   6  24
ATOM     24  C   UNL     1       9.966   2.835  23.744  0.00  0.00    +0.327 C 
ATOM     25  OXT UNL     1      10.962   2.808  23.037  0.00  0.00    -0.249 OA
BRANCH  24  26
ATOM     26  O   UNL     1       9.539   3.989  24.321  0.00  0.00    -0.479 OA
ATOM     27  H   UNL     1       8.751   4.334  23.852  0.00  0.00    +0.295 HD
ENDBRANCH  24  26
ENDBRANCH   6  24
TORSDOF 5
ENDMDL
