MODEL 1
REMARK VINA RESULT:      -4.7      0.000      0.000
REMARK  Name = 
REMARK  6 active torsions:
REMARK  status: ('A' for Active; 'I' for Inactive)
REMARK    1  A    between atoms: N_1  and  C_2
REMARK    2  A    between atoms: C_5  and  C_6
REMARK    3  A    between atoms: C_6  and  O_7
REMARK    4  A    between atoms: C_8  and  O_10
REMARK    5  A    between atoms: C_11  and  O_13
REMARK    6  A    between atoms: C_14  and  O_16
REMARK                            x       y       z     vdW  Elec       q    Type
REMARK                         _______ _______ _______ _____ _____    ______ ____
ROOT
ATOM      1  C   UNL     1       9.133   0.032  24.609  0.00  0.00    +0.106 C 
ATOM      2  C   UNL     1       9.644  -0.832  23.431  0.00  0.00    +0.166 C 
ATOM      3  C   UNL     1       9.960  -0.099  22.114  0.00  0.00    +0.177 C 
ATOM      4  C   UNL     1       9.196   1.222  21.855  0.00  0.00    +0.173 C 
ATOM      5  C   UNL     1       8.384   1.808  22.975  0.00  0.00    -0.016 C 
ATOM      6  C   UNL     1       8.375   1.259  24.205  0.00  0.00    -0.002 C 
ENDROOT
BRANCH   1   7
ATOM      7  N   UNL     1      10.204   0.452  25.518  0.00  0.00    -0.322 NA
ATOM      8  H   UNL     1      10.996  -0.181  25.452  0.00  0.00    +0.119 HD
ATOM      9  H   UNL     1      10.547   1.364  25.213  0.00  0.00    +0.119 HD
ENDBRANCH   1   7
BRANCH   2  10
ATOM     10  O   UNL     1       8.691  -1.886  23.174  0.00  0.00    -0.387 OA
ATOM     11  H   UNL     1       8.075  -1.840  23.938  0.00  0.00    +0.210 HD
ENDBRANCH   2  10
BRANCH   3  12
ATOM     12  O   UNL     1       9.707  -1.037  21.032  0.00  0.00    -0.386 OA
ATOM     13  H   UNL     1      10.549  -1.163  20.557  0.00  0.00    +0.210 HD
ENDBRANCH   3  12
BRANCH   4  14
ATOM     14  O   UNL     1      10.158   2.209  21.454  0.00  0.00    -0.385 OA
ATOM     15  H   UNL     1      10.898   2.164  22.089  0.00  0.00    +0.210 HD
ENDBRANCH   4  14
BRANCH   5  16
ATOM     16  C   UNL     1       7.600   3.042  22.595  0.00  0.00    +0.189 C 
BRANCH  16  17
ATOM     17  O   UNL     1       8.422   4.200  22.539  0.00  0.00    -0.391 OA
ATOM     18  H   UNL     1       7.994   4.870  23.099  0.00  0.00    +0.210 HD
ENDBRANCH  16  17
ENDBRANCH   5  16
TORSDOF 6
ENDMDL
MODEL 2
REMARK VINA RESULT:      -4.7      2.423      3.674
REMARK  Name = 
REMARK  6 active torsions:
REMARK  status: ('A' for Active; 'I' for Inactive)
REMARK    1  A    between atoms: N_1  and  C_2
REMARK    2  A    between atoms: C_5  and  C_6
REMARK    3  A    between atoms: C_6  and  O_7
REMARK    4  A    between atoms: C_8  and  O_10
REMARK    5  A    between atoms: C_11  and  O_13
REMARK    6  A    between atoms: C_14  and  O_16
REMARK                            x       y       z     vdW  Elec       q    Type
REMARK                         _______ _______ _______ _____ _____    ______ ____
ROOT
ATOM      1  C   UNL     1       9.141  -0.315  21.836  0.00  0.00    +0.106 C 
ATOM      2  C   UNL     1       9.865   1.053  21.802  0.00  0.00    +0.166 C 
ATOM      3  C   UNL     1      10.406   1.589  23.141  0.00  0.00    +0.177 C 
ATOM      4  C   UNL     1       9.686   1.104  24.423  0.00  0.00    +0.173 C 
ATOM      5  C   UNL     1       8.679  -0.004  24.301  0.00  0.00    -0.016 C 
ATOM      6  C   UNL     1       8.455  -0.629  23.129  0.00  0.00    -0.002 C 
ENDROOT
BRANCH   1   7
ATOM      7  N   UNL     1      10.025  -1.440  21.518  0.00  0.00    -0.322 NA
ATOM      8  H   UNL     1      10.264  -1.954  22.362  0.00  0.00    +0.119 HD
ATOM      9  H   UNL     1       9.513  -2.096  20.927  0.00  0.00    +0.119 HD
ENDBRANCH   1   7
BRANCH   2  10
ATOM     10  O   UNL     1       8.987   2.035  21.214  0.00  0.00    -0.387 OA
ATOM     11  H   UNL     1       9.314   2.124  20.292  0.00  0.00    +0.210 HD
ENDBRANCH   2  10
BRANCH   3  12
ATOM     12  O   UNL     1      10.362   3.040  23.068  0.00  0.00    -0.386 OA
ATOM     13  H   UNL     1      10.074   3.274  22.166  0.00  0.00    +0.210 HD
ENDBRANCH   3  12
BRANCH   4  14
ATOM     14  O   UNL     1      10.694   0.674  25.351  0.00  0.00    -0.385 OA
ATOM     15  H   UNL     1      10.281   0.649  26.234  0.00  0.00    +0.210 HD
ENDBRANCH   4  14
BRANCH   5  16
ATOM     16  C   UNL     1       7.962  -0.338  25.589  0.00  0.00    +0.189 C 
BRANCH  16  17
ATOM     17  O   UNL     1       8.111   0.686  26.562  0.00  0.00    -0.391 OA
ATOM     18  H   UNL     1       8.571   1.422  26.122  0.00  0.00    +0.210 HD
ENDBRANCH  16  17
ENDBRANCH   5  16
TORSDOF 6
ENDMDL
MODEL 3
REMARK VINA RESULT:      -4.6      6.306      7.446
REMARK  Name = 
REMARK  6 active torsions:
REMARK  status: ('A' for Active; 'I' for Inactive)
REMARK    1  A    between atoms: N_1  and  C_2
REMARK    2  A    between atoms: C_5  and  C_6
REMARK    3  A    between atoms: C_6  and  O_7
REMARK    4  A    between atoms: C_8  and  O_10
REMARK    5  A    between atoms: C_11  and  O_13
REMARK    6  A    between atoms: C_14  and  O_16
REMARK                            x       y       z     vdW  Elec       q    Type
REMARK                         _______ _______ _______ _____ _____    ______ ____
ROOT
ATOM      1  C   UNL     1       4.930  -5.820  23.963  0.00  0.00    +0.106 C 
ATOM      2  C   UNL     1       5.582  -5.152  22.729  0.00  0.00    +0.166 C 
ATOM      3  C   UNL     1       7.095  -4.874  22.805  0.00  0.00    +0.177 C 
ATOM      4  C   UNL     1       7.695  -4.685  24.219  0.00  0.00    +0.173 C 
ATOM      5  C   UNL     1       6.833  -4.999  25.408  0.00  0.00    -0.016 C 
ATOM      6  C   UNL     1       5.596  -5.513  25.269  0.00  0.00    -0.002 C 
ENDROOT
BRANCH   1   7
ATOM      7  N   UNL     1       4.839  -7.279  23.844  0.00  0.00    -0.322 NA
ATOM      8  H   UNL     1       4.277  -7.535  23.037  0.00  0.00    +0.119 HD
ATOM      9  H   UNL     1       5.773  -7.646  23.663  0.00  0.00    +0.119 HD
ENDBRANCH   1   7
BRANCH   2  10
ATOM     10  O   UNL     1       4.885  -3.922  22.438  0.00  0.00    -0.387 OA
ATOM     11  H   UNL     1       3.936  -4.165  22.505  0.00  0.00    +0.210 HD
ENDBRANCH   2  10
BRANCH   3  12
ATOM     12  O   UNL     1       7.353  -3.694  21.996  0.00  0.00    -0.386 OA
ATOM     13  H   UNL     1       7.509  -3.999  21.083  0.00  0.00    +0.210 HD
ENDBRANCH   3  12
BRANCH   4  14
ATOM     14  O   UNL     1       8.870  -5.506  24.306  0.00  0.00    -0.385 OA
ATOM     15  H   UNL     1       9.529  -5.132  23.691  0.00  0.00    +0.210 HD
ENDBRANCH   4  14
BRANCH   5  16
ATOM     16  C   UNL     1       7.475  -4.691  26.741  0.00  0.00    +0.189 C 
BRANCH  16  17
ATOM     17  O   UNL     1       8.109  -5.831  27.303  0.00  0.00    -0.391 OA
ATOM     18  H   UNL     1       8.313  -6.428  26.563  0.00  0.00    +0.210 HD
ENDBRANCH  16  17
ENDBRANCH   5  16
TORSDOF 6
ENDMDL
MODEL 4
REMARK VINA RESULT:      -4.5      1.725      3.847
REMARK  Name = 
REMARK  6 active torsions:
REMARK  status: ('A' for Active; 'I' for Inactive)
REMARK    1  A    between atoms: N_1  and  C_2
REMARK    2  A    between atoms: C_5  and  C_6
REMARK    3  A    between atoms: C_6  and  O_7
REMARK    4  A    between atoms: C_8  and  O_10
REMARK    5  A    between atoms: C_11  and  O_13
REMARK    6  A    between atoms: C_14  and  O_16
REMARK                            x       y       z     vdW  Elec       q    Type
REMARK                         _______ _______ _______ _____ _____    ______ ____
ROOT
ATOM      1  C   UNL     1       7.435   1.259  23.689  0.00  0.00    +0.106 C 
ATOM      2  C   UNL     1       8.304   2.169  22.788  0.00  0.00    +0.166 C 
ATOM      3  C   UNL     1       9.218   1.469  21.765  0.00  0.00    +0.177 C 
ATOM      4  C   UNL     1       9.672   0.030  22.111  0.00  0.00    +0.173 C 
ATOM      5  C   UNL     1       9.027  -0.660  23.280  0.00  0.00    -0.016 C 
ATOM      6  C   UNL     1       8.021  -0.090  23.970  0.00  0.00    -0.002 C 
ENDROOT
BRANCH   1   7
ATOM      7  N   UNL     1       6.083   1.052  23.161  0.00  0.00    -0.322 NA
ATOM      8  H   UNL     1       6.073   0.280  22.500  0.00  0.00    +0.119 HD
ATOM      9  H   UNL     1       5.475   0.769  23.931  0.00  0.00    +0.119 HD
ENDBRANCH   1   7
BRANCH   2  10
ATOM     10  O   UNL     1       9.099   3.035  23.625  0.00  0.00    -0.387 OA
ATOM     11  H   UNL     1       9.255   3.827  23.065  0.00  0.00    +0.210 HD
ENDBRANCH   2  10
BRANCH   3  12
ATOM     12  O   UNL     1      10.381   2.323  21.578  0.00  0.00    -0.386 OA
ATOM     13  H   UNL     1      10.752   2.114  20.701  0.00  0.00    +0.210 HD
ENDBRANCH   3  12
BRANCH   4  14
ATOM     14  O   UNL     1       9.450  -0.786  20.950  0.00  0.00    -0.385 OA
ATOM     15  H   UNL     1       9.918  -1.629  21.097  0.00  0.00    +0.210 HD
ENDBRANCH   4  14
BRANCH   5  16
ATOM     16  C   UNL     1       9.606  -2.020  23.595  0.00  0.00    +0.189 C 
BRANCH  16  17
ATOM     17  O   UNL     1      10.751  -2.308  22.806  0.00  0.00    -0.391 OA
ATOM     18  H   UNL     1      10.953  -1.498  22.305  0.00  0.00    +0.210 HD
ENDBRANCH  16  17
ENDBRANCH   5  16
TORSDOF 6
ENDMDL
MODEL 5
REMARK VINA RESULT:      -4.5      1.608      3.838
REMARK  Name = 
REMARK  6 active torsions:
REMARK  status: ('A' for Active; 'I' for Inactive)
REMARK    1  A    between atoms: N_1  and  C_2
REMARK    2  A    between atoms: C_5  and  C_6
REMARK    3  A    between atoms: C_6  and  O_7
REMARK    4  A    between atoms: C_8  and  O_10
REMARK    5  A    between atoms: C_11  and  O_13
REMARK    6  A    between atoms: C_14  and  O_16
REMARK                            x       y       z     vdW  Elec       q    Type
REMARK                         _______ _______ _______ _____ _____    ______ ____
ROOT
ATOM      1  C   UNL     1       9.935   1.611  24.056  0.00  0.00    +0.106 C 
ATOM      2  C   UNL     1       9.321   1.989  22.685  0.00  0.00    +0.166 C 
ATOM      3  C   UNL     1       8.472   0.913  21.982  0.00  0.00    +0.177 C 
ATOM      4  C   UNL     1       8.794  -0.561  22.328  0.00  0.00    +0.173 C 
ATOM      5  C   UNL     1       9.735  -0.837  23.466  0.00  0.00    -0.016 C 
ATOM      6  C   UNL     1      10.231   0.154  24.231  0.00  0.00    -0.002 C 
ENDROOT
BRANCH   1   7
ATOM      7  N   UNL     1       9.108   2.035  25.190  0.00  0.00    -0.322 NA
ATOM      8  H   UNL     1       8.134   1.795  25.029  0.00  0.00    +0.119 HD
ATOM      9  H   UNL     1       9.395   1.505  26.014  0.00  0.00    +0.119 HD
ENDBRANCH   1   7
BRANCH   2  10
ATOM     10  O   UNL     1      10.377   2.417  21.800  0.00  0.00    -0.387 OA
ATOM     11  H   UNL     1       9.915   2.962  21.126  0.00  0.00    +0.210 HD
ENDBRANCH   2  10
BRANCH   3  12
ATOM     12  O   UNL     1       8.612   1.128  20.551  0.00  0.00    -0.386 OA
ATOM     13  H   UNL     1       9.316   1.791  20.427  0.00  0.00    +0.210 HD
ENDBRANCH   3  12
BRANCH   4  14
ATOM     14  O   UNL     1       7.552  -1.219  22.622  0.00  0.00    -0.385 OA
ATOM     15  H   UNL     1       7.631  -2.138  22.303  0.00  0.00    +0.210 HD
ENDBRANCH   4  14
BRANCH   5  16
ATOM     16  C   UNL     1      10.061  -2.300  23.661  0.00  0.00    +0.189 C 
BRANCH  16  17
ATOM     17  O   UNL     1       9.059  -2.974  24.409  0.00  0.00    -0.391 OA
ATOM     18  H   UNL     1       9.311  -2.895  25.345  0.00  0.00    +0.210 HD
ENDBRANCH  16  17
ENDBRANCH   5  16
TORSDOF 6
ENDMDL
MODEL 6
REMARK VINA RESULT:      -4.5      6.037      6.995
REMARK  Name = 
REMARK  6 active torsions:
REMARK  status: ('A' for Active; 'I' for Inactive)
REMARK    1  A    between atoms: N_1  and  C_2
REMARK    2  A    between atoms: C_5  and  C_6
REMARK    3  A    between atoms: C_6  and  O_7
REMARK    4  A    between atoms: C_8  and  O_10
REMARK    5  A    between atoms: C_11  and  O_13
REMARK    6  A    between atoms: C_14  and  O_16
REMARK                            x       y       z     vdW  Elec       q    Type
REMARK                         _______ _______ _______ _____ _____    ______ ____
ROOT
ATOM      1  C   UNL     1       6.461  -4.507  26.319  0.00  0.00    +0.106 C 
ATOM      2  C   UNL     1       7.986  -4.729  26.171  0.00  0.00    +0.166 C 
ATOM      3  C   UNL     1       8.553  -4.744  24.739  0.00  0.00    +0.177 C 
ATOM      4  C   UNL     1       7.578  -5.160  23.612  0.00  0.00    +0.173 C 
ATOM      5  C   UNL     1       6.120  -5.302  23.945  0.00  0.00    -0.016 C 
ATOM      6  C   UNL     1       5.641  -4.998  25.166  0.00  0.00    -0.002 C 
ENDROOT
BRANCH   1   7
ATOM      7  N   UNL     1       6.106  -3.103  26.549  0.00  0.00    -0.322 NA
ATOM      8  H   UNL     1       5.108  -2.963  26.420  0.00  0.00    +0.119 HD
ATOM      9  H   UNL     1       6.295  -2.879  27.527  0.00  0.00    +0.119 HD
ENDBRANCH   1   7
BRANCH   2  10
ATOM     10  O   UNL     1       8.348  -5.956  26.840  0.00  0.00    -0.387 OA
ATOM     11  H   UNL     1       7.611  -6.569  26.628  0.00  0.00    +0.210 HD
ENDBRANCH   2  10
BRANCH   3  12
ATOM     12  O   UNL     1       9.707  -5.627  24.747  0.00  0.00    -0.386 OA
ATOM     13  H   UNL     1       9.940  -5.789  25.680  0.00  0.00    +0.210 HD
ENDBRANCH   3  12
BRANCH   4  14
ATOM     14  O   UNL     1       7.690  -4.189  22.559  0.00  0.00    -0.385 OA
ATOM     15  H   UNL     1       8.194  -4.606  21.836  0.00  0.00    +0.210 HD
ENDBRANCH   4  14
BRANCH   5  16
ATOM     16  C   UNL     1       5.267  -5.805  22.803  0.00  0.00    +0.189 C 
BRANCH  16  17
ATOM     17  O   UNL     1       6.017  -6.583  21.881  0.00  0.00    -0.391 OA
ATOM     18  H   UNL     1       5.616  -7.469  21.876  0.00  0.00    +0.210 HD
ENDBRANCH  16  17
ENDBRANCH   5  16
TORSDOF 6
ENDMDL
MODEL 7
REMARK VINA RESULT:      -4.4      2.122      2.593
REMARK  Name = 
REMARK  6 active torsions:
REMARK  status: ('A' for Active; 'I' for Inactive)
REMARK    1  A    between atoms: N_1  and  C_2
REMARK    2  A    between atoms: C_5  and  C_6
REMARK    3  A    between atoms: C_6  and  O_7
REMARK    4  A    between atoms: C_8  and  O_10
REMARK    5  A    between atoms: C_11  and  O_13
REMARK    6  A    between atoms: C_14  and  O_16
REMARK                            x       y       z     vdW  Elec       q    Type
REMARK                         _______ _______ _______ _____ _____    ______ ____
ROOT
ATOM      1  C   UNL     1       9.774  -1.013  23.054  0.00  0.00    +0.106 C 
ATOM      2  C   UNL     1       8.238  -0.887  22.908  0.00  0.00    +0.166 C 
ATOM      3  C   UNL     1       7.691   0.477  22.446  0.00  0.00    +0.177 C 
ATOM      4  C   UNL     1       8.562   1.716  22.764  0.00  0.00    +0.173 C 
ATOM      5  C   UNL     1       9.953   1.497  23.287  0.00  0.00    -0.016 C 
ATOM      6  C   UNL     1      10.478   0.261  23.404  0.00  0.00    -0.002 C 
ENDROOT
BRANCH   1   7
ATOM      7  N   UNL     1      10.421  -1.563  21.859  0.00  0.00    -0.322 NA
ATOM      8  H   UNL     1      11.395  -1.779  22.050  0.00  0.00    +0.119 HD
ATOM      9  H   UNL     1       9.976  -2.453  21.632  0.00  0.00    +0.119 HD
ENDBRANCH   1   7
BRANCH   2  10
ATOM     10  O   UNL     1       7.616  -1.252  24.158  0.00  0.00    -0.387 OA
ATOM     11  H   UNL     1       6.916  -1.889  23.896  0.00  0.00    +0.210 HD
ENDBRANCH   2  10
BRANCH   3  12
ATOM     12  O   UNL     1       6.374   0.632  23.041  0.00  0.00    -0.386 OA
ATOM     13  H   UNL     1       6.340   0.047  23.821  0.00  0.00    +0.210 HD
ENDBRANCH   3  12
BRANCH   4  14
ATOM     14  O   UNL     1       8.669   2.493  21.560  0.00  0.00    -0.385 OA
ATOM     15  H   UNL     1       7.784   2.858  21.374  0.00  0.00    +0.210 HD
ENDBRANCH   4  14
BRANCH   5  16
ATOM     16  C   UNL     1      10.686   2.765  23.658  0.00  0.00    +0.189 C 
BRANCH  16  17
ATOM     17  O   UNL     1      11.110   3.490  22.512  0.00  0.00    -0.391 OA
ATOM     18  H   UNL     1      10.366   3.476  21.885  0.00  0.00    +0.210 HD
ENDBRANCH  16  17
ENDBRANCH   5  16
TORSDOF 6
ENDMDL
MODEL 8
REMARK VINA RESULT:      -4.4      2.139      2.850
REMARK  Name = 
REMARK  6 active torsions:
REMARK  status: ('A' for Active; 'I' for Inactive)
REMARK    1  A    between atoms: N_1  and  C_2
REMARK    2  A    between atoms: C_5  and  C_6
REMARK    3  A    between atoms: C_6  and  O_7
REMARK    4  A    between atoms: C_8  and  O_10
REMARK    5  A    between atoms: C_11  and  O_13
REMARK    6  A    between atoms: C_14  and  O_16
REMARK                            x       y       z     vdW  Elec       q    Type
REMARK                         _______ _______ _______ _____ _____    ______ ____
ROOT
ATOM      1  C   UNL     1       7.205  -0.638  23.005  0.00  0.00    +0.106 C 
ATOM      2  C   UNL     1       7.988  -1.909  23.412  0.00  0.00    +0.166 C 
ATOM      3  C   UNL     1       9.293  -1.701  24.204  0.00  0.00    +0.177 C 
ATOM      4  C   UNL     1      10.023  -0.352  23.994  0.00  0.00    +0.173 C 
ATOM      5  C   UNL     1       9.318   0.730  23.227  0.00  0.00    -0.016 C 
ATOM      6  C   UNL     1       8.050   0.581  22.797  0.00  0.00    -0.002 C 
ENDROOT
BRANCH   1   7
ATOM      7  N   UNL     1       6.147  -0.286  23.957  0.00  0.00    -0.322 NA
ATOM      8  H   UNL     1       6.342   0.614  24.388  0.00  0.00    +0.119 HD
ATOM      9  H   UNL     1       5.275  -0.166  23.441  0.00  0.00    +0.119 HD
ENDBRANCH   1   7
BRANCH   2  10
ATOM     10  O   UNL     1       8.267  -2.688  22.229  0.00  0.00    -0.387 OA
ATOM     11  H   UNL     1       8.670  -3.512  22.578  0.00  0.00    +0.210 HD
ENDBRANCH   2  10
BRANCH   3  12
ATOM     12  O   UNL     1      10.179  -2.802  23.864  0.00  0.00    -0.386 OA
ATOM     13  H   UNL     1       9.787  -3.260  23.097  0.00  0.00    +0.210 HD
ENDBRANCH   3  12
BRANCH   4  14
ATOM     14  O   UNL     1      10.345   0.175  25.291  0.00  0.00    -0.385 OA
ATOM     15  H   UNL     1      10.270  -0.561  25.927  0.00  0.00    +0.210 HD
ENDBRANCH   4  14
BRANCH   5  16
ATOM     16  C   UNL     1      10.150   1.969  22.992  0.00  0.00    +0.189 C 
BRANCH  16  17
ATOM     17  O   UNL     1      10.251   2.290  21.612  0.00  0.00    -0.391 OA
ATOM     18  H   UNL     1      10.541   3.217  21.564  0.00  0.00    +0.210 HD
ENDBRANCH  16  17
ENDBRANCH   5  16
TORSDOF 6
ENDMDL
MODEL 9
REMARK VINA RESULT:      -4.3      6.815      7.819
REMARK  Name = 
REMARK  6 active torsions:
REMARK  status: ('A' for Active; 'I' for Inactive)
REMARK    1  A    between atoms: N_1  and  C_2
REMARK    2  A    between atoms: C_5  and  C_6
REMARK    3  A    between atoms: C_6  and  O_7
REMARK    4  A    between atoms: C_8  and  O_10
REMARK    5  A    between atoms: C_11  and  O_13
REMARK    6  A    between atoms: C_14  and  O_16
REMARK                            x       y       z     vdW  Elec       q    Type
REMARK                         _______ _______ _______ _____ _____    ______ ____
ROOT
ATOM      1  C   UNL     1       6.328  -4.339  22.453  0.00  0.00    +0.106 C 
ATOM      2  C   UNL     1       5.311  -5.505  22.513  0.00  0.00    +0.166 C 
ATOM      3  C   UNL     1       4.884  -5.987  23.912  0.00  0.00    +0.177 C 
ATOM      4  C   UNL     1       5.893  -5.756  25.063  0.00  0.00    +0.173 C 
ATOM      5  C   UNL     1       7.095  -4.896  24.795  0.00  0.00    -0.016 C 
ATOM      6  C   UNL     1       7.267  -4.266  23.617  0.00  0.00    -0.002 C 
ENDROOT
BRANCH   1   7
ATOM      7  N   UNL     1       5.689  -3.027  22.316  0.00  0.00    -0.322 NA
ATOM      8  H   UNL     1       4.838  -3.102  21.766  0.00  0.00    +0.119 HD
ATOM      9  H   UNL     1       5.397  -2.712  23.242  0.00  0.00    +0.119 HD
ENDBRANCH   1   7
BRANCH   2  10
ATOM     10  O   UNL     1       5.832  -6.622  21.762  0.00  0.00    -0.387 OA
ATOM     11  H   UNL     1       6.459  -6.209  21.128  0.00  0.00    +0.210 HD
ENDBRANCH   2  10
BRANCH   3  12
ATOM     12  O   UNL     1       4.578  -7.404  23.800  0.00  0.00    -0.386 OA
ATOM     13  H   UNL     1       5.415  -7.889  23.921  0.00  0.00    +0.210 HD
ENDBRANCH   3  12
BRANCH   4  14
ATOM     14  O   UNL     1       5.174  -5.167  26.159  0.00  0.00    -0.385 OA
ATOM     15  H   UNL     1       5.693  -5.338  26.967  0.00  0.00    +0.210 HD
ENDBRANCH   4  14
BRANCH   5  16
ATOM     16  C   UNL     1       8.068  -4.811  25.949  0.00  0.00    +0.189 C 
BRANCH  16  17
ATOM     17  O   UNL     1       7.907  -5.887  26.862  0.00  0.00    -0.391 OA
ATOM     18  H   UNL     1       8.791  -6.084  27.217  0.00  0.00    +0.210 HD
ENDBRANCH  16  17
ENDBRANCH   5  16
TORSDOF 6
ENDMDL
