MODEL 1
REMARK VINA RESULT:      -6.8      0.000      0.000
REMARK  Name = 
REMARK  9 active torsions:
REMARK  status: ('A' for Active; 'I' for Inactive)
REMARK    1  A    between atoms: C_1  and  N_2
REMARK    2  A    between atoms: N_4  and  C_5
REMARK    3  A    between atoms: C_8  and  C_10
REMARK    4  A    between atoms: C_10  and  O_11
REMARK    5  A    between atoms: O_11  and  P_12
REMARK    6  A    between atoms: P_12  and  O_13
REMARK    7  A    between atoms: P_12  and  O_14
REMARK    8  A    between atoms: C_16  and  O_18
REMARK    9  A    between atoms: C_19  and  O_21
REMARK                            x       y       z     vdW  Elec       q    Type
REMARK                         _______ _______ _______ _____ _____    ______ ____
ROOT
ATOM      1  C   UNL     1       9.419  -2.929  24.208  0.00  0.00    +0.257 C 
ATOM      2  C   UNL     1       9.400  -4.177  25.106  0.00  0.00    +0.195 C 
ATOM      3  C   UNL     1       8.104  -4.902  24.731  0.00  0.00    +0.178 C 
ATOM      4  C   UNL     1       7.447  -4.006  23.684  0.00  0.00    +0.178 C 
ATOM      5  O   UNL     1       8.481  -3.174  23.150  0.00  0.00    -0.346 OA
ENDROOT
BRANCH   1  19
ATOM      6  C   UNL     1       7.549   0.221  27.529  0.00  0.00    +0.441 C 
ATOM      7  N   UNL     1       8.166  -0.306  26.322  0.00  0.00    -0.178 N 
ATOM      8  C   UNL     1       8.550   0.439  25.218  0.00  0.00    +0.316 A 
ATOM      9  C   UNL     1       8.461   1.838  24.934  0.00  0.00    +0.327 A 
ATOM     10  N   UNL     1       8.990   2.104  23.682  0.00  0.00    -0.290 N 
ATOM     11  H   UNL     1       8.994   3.081  23.419  0.00  0.00    +0.172 HD
ATOM     12  C   UNL     1       9.544   1.170  22.830  0.00  0.00    +0.195 A 
ATOM     13  N   UNL     1       9.619  -0.107  23.089  0.00  0.00    -0.192 NA
ATOM     14  N   UNL     1      10.029   1.659  21.666  0.00  0.00    -0.329 N 
ATOM     15  H   UNL     1      10.282   0.974  20.960  0.00  0.00    +0.145 HD
ATOM     16  H   UNL     1       9.700   2.540  21.288  0.00  0.00    +0.145 HD
ATOM     17  O   UNL     1       8.001   2.734  25.633  0.00  0.00    -0.260 OA
ATOM     18  C   UNL     1       9.101  -0.423  24.301  0.00  0.00    +0.221 A 
ATOM     19  N   UNL     1       9.007  -1.688  24.867  0.00  0.00    -0.244 N 
ATOM     20  C   UNL     1       8.459  -1.592  26.088  0.00  0.00    +0.412 A 
ENDBRANCH   1  19
BRANCH   2  21
ATOM     21  O   UNL     1      10.546  -5.011  24.895  0.00  0.00    -0.385 OA
ATOM     22  H   UNL     1      10.843  -4.952  23.969  0.00  0.00    +0.210 HD
ENDBRANCH   2  21
BRANCH   3  23
ATOM     23  O   UNL     1       7.255  -4.989  25.877  0.00  0.00    -0.386 OA
ATOM     24  H   UNL     1       6.348  -5.161  25.545  0.00  0.00    +0.210 HD
ENDBRANCH   3  23
BRANCH   4  25
ATOM     25  C   UNL     1       6.730  -4.770  22.572  0.00  0.00    +0.206 C 
BRANCH  25  26
ATOM     26  O   UNL     1       6.042  -5.908  23.094  0.00  0.00    -0.284 OA
BRANCH  26  27
ATOM     27  P   UNL     1       4.327  -5.700  23.028  0.00  0.00    +0.472 P 
ATOM     28  O   UNL     1       2.790  -5.514  22.968  0.00  0.00    -0.228 OA
BRANCH  27  29
ATOM     29  O   UNL     1       4.454  -5.073  24.530  0.00  0.00    -0.303 OA
ATOM     30  H   UNL     1       4.403  -4.098  24.444  0.00  0.00    +0.222 HD
ENDBRANCH  27  29
BRANCH  27  31
ATOM     31  O   UNL     1       4.267  -7.257  23.525  0.00  0.00    -0.303 OA
ATOM     32  H   UNL     1       5.134  -7.659  23.338  0.00  0.00    +0.222 HD
ENDBRANCH  27  31
ENDBRANCH  26  27
ENDBRANCH  25  26
ENDBRANCH   4  25
TORSDOF 8
ENDMDL
MODEL 2
REMARK VINA RESULT:      -6.8      4.035      7.426
REMARK  Name = 
REMARK  9 active torsions:
REMARK  status: ('A' for Active; 'I' for Inactive)
REMARK    1  A    between atoms: C_1  and  N_2
REMARK    2  A    between atoms: N_4  and  C_5
REMARK    3  A    between atoms: C_8  and  C_10
REMARK    4  A    between atoms: C_10  and  O_11
REMARK    5  A    between atoms: O_11  and  P_12
REMARK    6  A    between atoms: P_12  and  O_13
REMARK    7  A    between atoms: P_12  and  O_14
REMARK    8  A    between atoms: C_16  and  O_18
REMARK    9  A    between atoms: C_19  and  O_21
REMARK                            x       y       z     vdW  Elec       q    Type
REMARK                         _______ _______ _______ _____ _____    ______ ____
ROOT
ATOM      1  C   UNL     1       8.168  -4.988  25.930  0.00  0.00    +0.257 C 
ATOM      2  C   UNL     1       9.242  -4.727  24.861  0.00  0.00    +0.195 C 
ATOM      3  C   UNL     1       9.265  -3.204  24.701  0.00  0.00    +0.178 C 
ATOM      4  C   UNL     1       8.181  -2.698  25.648  0.00  0.00    +0.178 C 
ATOM      5  O   UNL     1       7.951  -3.739  26.603  0.00  0.00    -0.346 OA
ENDROOT
BRANCH   1  19
ATOM      6  C   UNL     1       4.356  -5.749  22.875  0.00  0.00    +0.441 C 
ATOM      7  N   UNL     1       5.188  -5.741  24.068  0.00  0.00    -0.178 N 
ATOM      8  C   UNL     1       4.819  -6.222  25.315  0.00  0.00    +0.316 A 
ATOM      9  C   UNL     1       3.607  -6.817  25.787  0.00  0.00    +0.327 A 
ATOM     10  N   UNL     1       3.727  -7.139  27.129  0.00  0.00    -0.290 N 
ATOM     11  H   UNL     1       2.919  -7.596  27.531  0.00  0.00    +0.172 HD
ATOM     12  C   UNL     1       4.851  -6.940  27.905  0.00  0.00    +0.195 A 
ATOM     13  N   UNL     1       5.954  -6.392  27.473  0.00  0.00    -0.192 NA
ATOM     14  N   UNL     1       4.755  -7.359  29.187  0.00  0.00    -0.329 N 
ATOM     15  H   UNL     1       5.501  -7.069  29.813  0.00  0.00    +0.145 HD
ATOM     16  H   UNL     1       3.854  -7.467  29.639  0.00  0.00    +0.145 HD
ATOM     17  O   UNL     1       2.573  -7.043  25.169  0.00  0.00    -0.260 OA
ATOM     18  C   UNL     1       5.884  -6.044  26.165  0.00  0.00    +0.221 A 
ATOM     19  N   UNL     1       6.872  -5.425  25.410  0.00  0.00    -0.244 N 
ATOM     20  C   UNL     1       6.439  -5.269  24.149  0.00  0.00    +0.412 A 
ENDBRANCH   1  19
BRANCH   2  21
ATOM     21  O   UNL     1      10.526  -5.232  25.250  0.00  0.00    -0.385 OA
ATOM     22  H   UNL     1      10.431  -6.095  25.693  0.00  0.00    +0.210 HD
ENDBRANCH   2  21
BRANCH   3  23
ATOM     23  O   UNL     1       8.919  -2.858  23.359  0.00  0.00    -0.386 OA
ATOM     24  H   UNL     1       8.441  -3.627  22.982  0.00  0.00    +0.210 HD
ENDBRANCH   3  23
BRANCH   4  25
ATOM     25  C   UNL     1       8.526  -1.382  26.345  0.00  0.00    +0.206 C 
BRANCH  25  26
ATOM     26  O   UNL     1       9.374  -0.576  25.525  0.00  0.00    -0.284 OA
BRANCH  26  27
ATOM     27  P   UNL     1       8.514   0.760  24.842  0.00  0.00    +0.472 P 
ATOM     28  O   UNL     1       7.744   1.957  24.230  0.00  0.00    -0.228 OA
BRANCH  27  29
ATOM     29  O   UNL     1       8.811   0.069  23.392  0.00  0.00    -0.303 OA
ATOM     30  H   UNL     1       8.714   0.768  22.712  0.00  0.00    +0.222 HD
ENDBRANCH  27  29
BRANCH  27  31
ATOM     31  O   UNL     1       9.950   1.538  24.929  0.00  0.00    -0.303 OA
ATOM     32  H   UNL     1      10.597   1.019  24.419  0.00  0.00    +0.222 HD
ENDBRANCH  27  31
ENDBRANCH  26  27
ENDBRANCH  25  26
ENDBRANCH   4  25
TORSDOF 8
ENDMDL
MODEL 3
REMARK VINA RESULT:      -6.8      3.662      7.096
REMARK  Name = 
REMARK  9 active torsions:
REMARK  status: ('A' for Active; 'I' for Inactive)
REMARK    1  A    between atoms: C_1  and  N_2
REMARK    2  A    between atoms: N_4  and  C_5
REMARK    3  A    between atoms: C_8  and  C_10
REMARK    4  A    between atoms: C_10  and  O_11
REMARK    5  A    between atoms: O_11  and  P_12
REMARK    6  A    between atoms: P_12  and  O_13
REMARK    7  A    between atoms: P_12  and  O_14
REMARK    8  A    between atoms: C_16  and  O_18
REMARK    9  A    between atoms: C_19  and  O_21
REMARK                            x       y       z     vdW  Elec       q    Type
REMARK                         _______ _______ _______ _____ _____    ______ ____
ROOT
ATOM      1  C   UNL     1       9.363  -2.363  23.563  0.00  0.00    +0.257 C 
ATOM      2  C   UNL     1       8.816  -1.667  22.305  0.00  0.00    +0.195 C 
ATOM      3  C   UNL     1       8.552  -0.225  22.746  0.00  0.00    +0.178 C 
ATOM      4  C   UNL     1       8.919  -0.198  24.228  0.00  0.00    +0.178 C 
ATOM      5  O   UNL     1       9.778  -1.320  24.458  0.00  0.00    -0.346 OA
ENDROOT
BRANCH   1  19
ATOM      6  C   UNL     1       6.802  -4.459  27.237  0.00  0.00    +0.441 C 
ATOM      7  N   UNL     1       7.280  -4.121  25.905  0.00  0.00    -0.178 N 
ATOM      8  C   UNL     1       6.844  -4.693  24.720  0.00  0.00    +0.316 A 
ATOM      9  C   UNL     1       5.880  -5.715  24.452  0.00  0.00    +0.327 A 
ATOM     10  N   UNL     1       5.793  -5.942  23.089  0.00  0.00    -0.290 N 
ATOM     11  H   UNL     1       5.105  -6.632  22.814  0.00  0.00    +0.172 HD
ATOM     12  C   UNL     1       6.510  -5.274  22.117  0.00  0.00    +0.195 A 
ATOM     13  N   UNL     1       7.393  -4.346  22.364  0.00  0.00    -0.192 NA
ATOM     14  N   UNL     1       6.242  -5.638  20.842  0.00  0.00    -0.329 N 
ATOM     15  H   UNL     1       6.875  -5.286  20.131  0.00  0.00    +0.145 HD
ATOM     16  H   UNL     1       5.842  -6.545  20.628  0.00  0.00    +0.145 HD
ATOM     17  O   UNL     1       5.192  -6.347  25.247  0.00  0.00    -0.260 OA
ATOM     18  C   UNL     1       7.527  -4.095  23.689  0.00  0.00    +0.221 A 
ATOM     19  N   UNL     1       8.392  -3.186  24.285  0.00  0.00    -0.244 N 
ATOM     20  C   UNL     1       8.213  -3.205  25.615  0.00  0.00    +0.412 A 
ENDBRANCH   1  19
BRANCH   2  21
ATOM     21  O   UNL     1       9.742  -1.720  21.213  0.00  0.00    -0.385 OA
ATOM     22  H   UNL     1      10.093  -2.623  21.108  0.00  0.00    +0.210 HD
ENDBRANCH   2  21
BRANCH   3  23
ATOM     23  O   UNL     1       7.163   0.075  22.599  0.00  0.00    -0.386 OA
ATOM     24  H   UNL     1       7.094   1.046  22.481  0.00  0.00    +0.210 HD
ENDBRANCH   3  23
BRANCH   4  25
ATOM     25  C   UNL     1       9.582   1.101  24.683  0.00  0.00    +0.206 C 
BRANCH  25  26
ATOM     26  O   UNL     1       9.239   2.182  23.815  0.00  0.00    -0.284 OA
BRANCH  26  27
ATOM     27  P   UNL     1      10.611   3.171  23.455  0.00  0.00    +0.472 P 
ATOM     28  O   UNL     1      11.842   4.055  23.133  0.00  0.00    -0.228 OA
BRANCH  27  29
ATOM     29  O   UNL     1       9.544   4.390  23.250  0.00  0.00    -0.303 OA
ATOM     30  H   UNL     1       9.745   5.068  23.928  0.00  0.00    +0.222 HD
ENDBRANCH  27  29
BRANCH  27  31
ATOM     31  O   UNL     1      10.453   2.581  21.938  0.00  0.00    -0.303 OA
ATOM     32  H   UNL     1       9.787   1.871  21.967  0.00  0.00    +0.222 HD
ENDBRANCH  27  31
ENDBRANCH  26  27
ENDBRANCH  25  26
ENDBRANCH   4  25
TORSDOF 8
ENDMDL
MODEL 4
REMARK VINA RESULT:      -6.5      4.272      7.273
REMARK  Name = 
REMARK  9 active torsions:
REMARK  status: ('A' for Active; 'I' for Inactive)
REMARK    1  A    between atoms: C_1  and  N_2
REMARK    2  A    between atoms: N_4  and  C_5
REMARK    3  A    between atoms: C_8  and  C_10
REMARK    4  A    between atoms: C_10  and  O_11
REMARK    5  A    between atoms: O_11  and  P_12
REMARK    6  A    between atoms: P_12  and  O_13
REMARK    7  A    between atoms: P_12  and  O_14
REMARK    8  A    between atoms: C_16  and  O_18
REMARK    9  A    between atoms: C_19  and  O_21
REMARK                            x       y       z     vdW  Elec       q    Type
REMARK                         _______ _______ _______ _____ _____    ______ ____
ROOT
ATOM      1  C   UNL     1       6.938  -4.553  22.635  0.00  0.00    +0.257 C 
ATOM      2  C   UNL     1       6.000  -3.452  22.110  0.00  0.00    +0.195 C 
ATOM      3  C   UNL     1       6.816  -2.162  22.230  0.00  0.00    +0.178 C 
ATOM      4  C   UNL     1       8.140  -2.596  22.852  0.00  0.00    +0.178 C 
ATOM      5  O   UNL     1       8.262  -4.002  22.617  0.00  0.00    -0.346 OA
ENDROOT
BRANCH   1  19
ATOM      6  C   UNL     1       7.413  -5.261  27.506  0.00  0.00    +0.441 C 
ATOM      7  N   UNL     1       6.894  -5.313  26.148  0.00  0.00    -0.178 N 
ATOM      8  C   UNL     1       5.770  -6.013  25.737  0.00  0.00    +0.316 A 
ATOM      9  C   UNL     1       4.850  -6.843  26.451  0.00  0.00    +0.327 A 
ATOM     10  N   UNL     1       3.876  -7.322  25.592  0.00  0.00    -0.290 N 
ATOM     11  H   UNL     1       3.165  -7.894  26.030  0.00  0.00    +0.172 HD
ATOM     12  C   UNL     1       3.782  -7.035  24.245  0.00  0.00    +0.195 A 
ATOM     13  N   UNL     1       4.626  -6.283  23.594  0.00  0.00    -0.192 NA
ATOM     14  N   UNL     1       2.729  -7.590  23.604  0.00  0.00    -0.329 N 
ATOM     15  H   UNL     1       2.738  -7.533  22.590  0.00  0.00    +0.145 HD
ATOM     16  H   UNL     1       2.268  -8.417  23.967  0.00  0.00    +0.145 HD
ATOM     17  O   UNL     1       4.849  -7.138  27.642  0.00  0.00    -0.260 OA
ATOM     18  C   UNL     1       5.610  -5.797  24.390  0.00  0.00    +0.221 A 
ATOM     19  N   UNL     1       6.672  -4.987  24.008  0.00  0.00    -0.244 N 
ATOM     20  C   UNL     1       7.420  -4.693  25.082  0.00  0.00    +0.412 A 
ENDBRANCH   1  19
BRANCH   2  21
ATOM     21  O   UNL     1       5.592  -3.691  20.757  0.00  0.00    -0.385 OA
ATOM     22  H   UNL     1       5.073  -2.938  20.422  0.00  0.00    +0.210 HD
ENDBRANCH   2  21
BRANCH   3  23
ATOM     23  O   UNL     1       6.153  -1.256  23.114  0.00  0.00    -0.386 OA
ATOM     24  H   UNL     1       6.853  -0.735  23.561  0.00  0.00    +0.210 HD
ENDBRANCH   3  23
BRANCH   4  25
ATOM     25  C   UNL     1       9.357  -1.843  22.316  0.00  0.00    +0.206 C 
BRANCH  25  26
ATOM     26  O   UNL     1       8.985  -0.558  21.815  0.00  0.00    -0.284 OA
BRANCH  26  27
ATOM     27  P   UNL     1       9.676   0.716  22.757  0.00  0.00    +0.472 P 
ATOM     28  O   UNL     1      10.297   1.858  23.601  0.00  0.00    -0.228 OA
BRANCH  27  29
ATOM     29  O   UNL     1       8.154   1.024  23.260  0.00  0.00    -0.303 OA
ATOM     30  H   UNL     1       7.972   0.431  24.019  0.00  0.00    +0.222 HD
ENDBRANCH  27  29
BRANCH  27  31
ATOM     31  O   UNL     1       9.558   1.596  21.384  0.00  0.00    -0.303 OA
ATOM     32  H   UNL     1      10.367   2.132  21.307  0.00  0.00    +0.222 HD
ENDBRANCH  27  31
ENDBRANCH  26  27
ENDBRANCH  25  26
ENDBRANCH   4  25
TORSDOF 8
ENDMDL
MODEL 5
REMARK VINA RESULT:      -6.4      3.614      7.608
REMARK  Name = 
REMARK  9 active torsions:
REMARK  status: ('A' for Active; 'I' for Inactive)
REMARK    1  A    between atoms: C_1  and  N_2
REMARK    2  A    between atoms: N_4  and  C_5
REMARK    3  A    between atoms: C_8  and  C_10
REMARK    4  A    between atoms: C_10  and  O_11
REMARK    5  A    between atoms: O_11  and  P_12
REMARK    6  A    between atoms: P_12  and  O_13
REMARK    7  A    between atoms: P_12  and  O_14
REMARK    8  A    between atoms: C_16  and  O_18
REMARK    9  A    between atoms: C_19  and  O_21
REMARK                            x       y       z     vdW  Elec       q    Type
REMARK                         _______ _______ _______ _____ _____    ______ ____
ROOT
ATOM      1  C   UNL     1       8.899  -0.340  24.465  0.00  0.00    +0.257 C 
ATOM      2  C   UNL     1      10.133   0.159  23.694  0.00  0.00    +0.195 C 
ATOM      3  C   UNL     1       9.650   1.414  22.963  0.00  0.00    +0.178 C 
ATOM      4  C   UNL     1       8.171   1.528  23.323  0.00  0.00    +0.178 C 
ATOM      5  O   UNL     1       7.978   0.760  24.515  0.00  0.00    -0.346 OA
ENDROOT
BRANCH   1  19
ATOM      6  C   UNL     1       5.675  -2.932  21.757  0.00  0.00    +0.441 C 
ATOM      7  N   UNL     1       6.762  -2.600  22.665  0.00  0.00    -0.178 N 
ATOM      8  C   UNL     1       7.537  -3.510  23.367  0.00  0.00    +0.316 A 
ATOM      9  C   UNL     1       7.511  -4.939  23.426  0.00  0.00    +0.327 A 
ATOM     10  N   UNL     1       8.501  -5.398  24.279  0.00  0.00    -0.290 N 
ATOM     11  H   UNL     1       8.569  -6.405  24.349  0.00  0.00    +0.172 HD
ATOM     12  C   UNL     1       9.401  -4.607  24.963  0.00  0.00    +0.195 A 
ATOM     13  N   UNL     1       9.419  -3.303  24.912  0.00  0.00    -0.192 NA
ATOM     14  N   UNL     1      10.304  -5.272  25.718  0.00  0.00    -0.329 N 
ATOM     15  H   UNL     1      10.858  -4.710  26.357  0.00  0.00    +0.145 HD
ATOM     16  H   UNL     1      10.122  -6.214  26.047  0.00  0.00    +0.145 HD
ATOM     17  O   UNL     1       6.761  -5.717  22.845  0.00  0.00    -0.260 OA
ATOM     18  C   UNL     1       8.458  -2.801  24.099  0.00  0.00    +0.221 A 
ATOM     19  N   UNL     1       8.194  -1.461  23.843  0.00  0.00    -0.244 N 
ATOM     20  C   UNL     1       7.184  -1.364  22.965  0.00  0.00    +0.412 A 
ENDBRANCH   1  19
BRANCH   2  21
ATOM     21  O   UNL     1      11.233   0.451  24.566  0.00  0.00    -0.385 OA
ATOM     22  H   UNL     1      11.425   1.406  24.562  0.00  0.00    +0.210 HD
ENDBRANCH   2  21
BRANCH   3  23
ATOM     23  O   UNL     1       9.779   1.227  21.552  0.00  0.00    -0.386 OA
ATOM     24  H   UNL     1       9.828   2.121  21.152  0.00  0.00    +0.210 HD
ENDBRANCH   3  23
BRANCH   4  25
ATOM     25  C   UNL     1       7.684   2.964  23.512  0.00  0.00    +0.206 C 
BRANCH  25  26
ATOM     26  O   UNL     1       8.635   3.899  23.002  0.00  0.00    -0.284 OA
BRANCH  26  27
ATOM     27  P   UNL     1       8.154   5.530  23.313  0.00  0.00    +0.472 P 
ATOM     28  O   UNL     1       7.723   6.992  23.592  0.00  0.00    -0.228 OA
BRANCH  27  29
ATOM     29  O   UNL     1       7.681   5.574  21.751  0.00  0.00    -0.303 OA
ATOM     30  H   UNL     1       7.051   6.319  21.659  0.00  0.00    +0.222 HD
ENDBRANCH  27  29
BRANCH  27  31
ATOM     31  O   UNL     1       9.717   5.895  23.002  0.00  0.00    -0.303 OA
ATOM     32  H   UNL     1       9.832   5.897  22.035  0.00  0.00    +0.222 HD
ENDBRANCH  27  31
ENDBRANCH  26  27
ENDBRANCH  25  26
ENDBRANCH   4  25
TORSDOF 8
ENDMDL
MODEL 6
REMARK VINA RESULT:      -6.4      4.638      7.656
REMARK  Name = 
REMARK  9 active torsions:
REMARK  status: ('A' for Active; 'I' for Inactive)
REMARK    1  A    between atoms: C_1  and  N_2
REMARK    2  A    between atoms: N_4  and  C_5
REMARK    3  A    between atoms: C_8  and  C_10
REMARK    4  A    between atoms: C_10  and  O_11
REMARK    5  A    between atoms: O_11  and  P_12
REMARK    6  A    between atoms: P_12  and  O_13
REMARK    7  A    between atoms: P_12  and  O_14
REMARK    8  A    between atoms: C_16  and  O_18
REMARK    9  A    between atoms: C_19  and  O_21
REMARK                            x       y       z     vdW  Elec       q    Type
REMARK                         _______ _______ _______ _____ _____    ______ ____
ROOT
ATOM      1  C   UNL     1       6.203  -5.641  23.671  0.00  0.00    +0.257 C 
ATOM      2  C   UNL     1       6.311  -5.469  22.147  0.00  0.00    +0.195 C 
ATOM      3  C   UNL     1       6.464  -3.960  21.939  0.00  0.00    +0.178 C 
ATOM      4  C   UNL     1       6.389  -3.365  23.343  0.00  0.00    +0.178 C 
ATOM      5  O   UNL     1       6.694  -4.425  24.254  0.00  0.00    -0.346 OA
ENDROOT
BRANCH   1  19
ATOM      6  C   UNL     1       1.266  -5.685  23.957  0.00  0.00    +0.441 C 
ATOM      7  N   UNL     1       2.670  -5.839  24.305  0.00  0.00    -0.178 N 
ATOM      8  C   UNL     1       3.158  -6.268  25.530  0.00  0.00    +0.316 A 
ATOM      9  C   UNL     1       2.496  -6.651  26.738  0.00  0.00    +0.327 A 
ATOM     10  N   UNL     1       3.428  -7.009  27.698  0.00  0.00    -0.290 N 
ATOM     11  H   UNL     1       3.036  -7.326  28.575  0.00  0.00    +0.172 HD
ATOM     12  C   UNL     1       4.797  -7.020  27.523  0.00  0.00    +0.195 A 
ATOM     13  N   UNL     1       5.399  -6.664  26.421  0.00  0.00    -0.192 NA
ATOM     14  N   UNL     1       5.517  -7.435  28.589  0.00  0.00    -0.329 N 
ATOM     15  H   UNL     1       6.521  -7.288  28.540  0.00  0.00    +0.145 HD
ATOM     16  H   UNL     1       5.138  -7.392  29.529  0.00  0.00    +0.145 HD
ATOM     17  O   UNL     1       1.294  -6.685  26.976  0.00  0.00    -0.260 OA
ATOM     18  C   UNL     1       4.529  -6.290  25.451  0.00  0.00    +0.221 A 
ATOM     19  N   UNL     1       4.843  -5.839  24.175  0.00  0.00    -0.244 N 
ATOM     20  C   UNL     1       3.711  -5.592  23.498  0.00  0.00    +0.412 A 
ENDBRANCH   1  19
BRANCH   2  21
ATOM     21  O   UNL     1       7.423  -6.189  21.600  0.00  0.00    -0.385 OA
ATOM     22  H   UNL     1       8.243  -5.957  22.073  0.00  0.00    +0.210 HD
ENDBRANCH   2  21
BRANCH   3  23
ATOM     23  O   UNL     1       5.372  -3.470  21.159  0.00  0.00    -0.386 OA
ATOM     24  H   UNL     1       5.649  -2.601  20.799  0.00  0.00    +0.210 HD
ENDBRANCH   3  23
BRANCH   4  25
ATOM     25  C   UNL     1       7.315  -2.170  23.563  0.00  0.00    +0.206 C 
BRANCH  25  26
ATOM     26  O   UNL     1       8.244  -2.036  22.487  0.00  0.00    -0.284 OA
BRANCH  26  27
ATOM     27  P   UNL     1       9.596  -1.053  22.932  0.00  0.00    +0.472 P 
ATOM     28  O   UNL     1      10.807  -0.173  23.331  0.00  0.00    -0.228 OA
BRANCH  27  29
ATOM     29  O   UNL     1      10.248  -1.492  21.500  0.00  0.00    -0.303 OA
ATOM     30  H   UNL     1      11.200  -1.261  21.532  0.00  0.00    +0.222 HD
ENDBRANCH  27  29
BRANCH  27  31
ATOM     31  O   UNL     1      10.108  -2.381  23.738  0.00  0.00    -0.303 OA
ATOM     32  H   UNL     1       9.853  -3.160  23.213  0.00  0.00    +0.222 HD
ENDBRANCH  27  31
ENDBRANCH  26  27
ENDBRANCH  25  26
ENDBRANCH   4  25
TORSDOF 8
ENDMDL
MODEL 7
REMARK VINA RESULT:      -6.4      2.512      3.436
REMARK  Name = 
REMARK  9 active torsions:
REMARK  status: ('A' for Active; 'I' for Inactive)
REMARK    1  A    between atoms: C_1  and  N_2
REMARK    2  A    between atoms: N_4  and  C_5
REMARK    3  A    between atoms: C_8  and  C_10
REMARK    4  A    between atoms: C_10  and  O_11
REMARK    5  A    between atoms: O_11  and  P_12
REMARK    6  A    between atoms: P_12  and  O_13
REMARK    7  A    between atoms: P_12  and  O_14
REMARK    8  A    between atoms: C_16  and  O_18
REMARK    9  A    between atoms: C_19  and  O_21
REMARK                            x       y       z     vdW  Elec       q    Type
REMARK                         _______ _______ _______ _____ _____    ______ ____
ROOT
ATOM      1  C   UNL     1       5.725  -3.166  23.374  0.00  0.00    +0.257 C 
ATOM      2  C   UNL     1       6.851  -4.182  23.118  0.00  0.00    +0.195 C 
ATOM      3  C   UNL     1       6.785  -5.140  24.311  0.00  0.00    +0.178 C 
ATOM      4  C   UNL     1       5.664  -4.589  25.190  0.00  0.00    +0.178 C 
ATOM      5  O   UNL     1       4.856  -3.759  24.350  0.00  0.00    -0.346 OA
ENDROOT
BRANCH   1  19
ATOM      6  C   UNL     1       5.915   0.960  26.092  0.00  0.00    +0.441 C 
ATOM      7  N   UNL     1       6.235  -0.056  25.102  0.00  0.00    -0.178 N 
ATOM      8  C   UNL     1       7.265   0.012  24.176  0.00  0.00    +0.316 A 
ATOM      9  C   UNL     1       8.246   1.019  23.914  0.00  0.00    +0.327 A 
ATOM     10  N   UNL     1       9.072   0.619  22.877  0.00  0.00    -0.290 N 
ATOM     11  H   UNL     1       9.817   1.266  22.652  0.00  0.00    +0.172 HD
ATOM     12  C   UNL     1       8.986  -0.579  22.198  0.00  0.00    +0.195 A 
ATOM     13  N   UNL     1       8.085  -1.494  22.435  0.00  0.00    -0.192 NA
ATOM     14  N   UNL     1       9.918  -0.773  21.238  0.00  0.00    -0.329 N 
ATOM     15  H   UNL     1       9.768  -1.563  20.618  0.00  0.00    +0.145 HD
ATOM     16  H   UNL     1      10.396   0.009  20.803  0.00  0.00    +0.145 HD
ATOM     17  O   UNL     1       8.404   2.099  24.473  0.00  0.00    -0.260 OA
ATOM     18  C   UNL     1       7.241  -1.145  23.436  0.00  0.00    +0.221 A 
ATOM     19  N   UNL     1       6.165  -1.881  23.918  0.00  0.00    -0.244 N 
ATOM     20  C   UNL     1       5.587  -1.216  24.930  0.00  0.00    +0.412 A 
ENDBRANCH   1  19
BRANCH   2  21
ATOM     21  O   UNL     1       6.679  -4.878  21.878  0.00  0.00    -0.385 OA
ATOM     22  H   UNL     1       6.847  -4.281  21.127  0.00  0.00    +0.210 HD
ENDBRANCH   2  21
BRANCH   3  23
ATOM     23  O   UNL     1       8.017  -5.092  25.033  0.00  0.00    -0.386 OA
ATOM     24  H   UNL     1       8.735  -5.058  24.366  0.00  0.00    +0.210 HD
ENDBRANCH   3  23
BRANCH   4  25
ATOM     25  C   UNL     1       4.821  -5.666  25.871  0.00  0.00    +0.206 C 
BRANCH  25  26
ATOM     26  O   UNL     1       5.645  -6.575  26.602  0.00  0.00    -0.284 OA
BRANCH  26  27
ATOM     27  P   UNL     1       5.932  -6.019  28.214  0.00  0.00    +0.472 P 
ATOM     28  O   UNL     1       6.187  -5.522  29.659  0.00  0.00    -0.228 OA
BRANCH  27  29
ATOM     29  O   UNL     1       7.521  -6.136  27.856  0.00  0.00    -0.303 OA
ATOM     30  H   UNL     1       7.813  -5.255  27.540  0.00  0.00    +0.222 HD
ENDBRANCH  27  29
BRANCH  27  31
ATOM     31  O   UNL     1       5.761  -7.592  28.629  0.00  0.00    -0.303 OA
ATOM     32  H   UNL     1       5.463  -8.075  27.838  0.00  0.00    +0.222 HD
ENDBRANCH  27  31
ENDBRANCH  26  27
ENDBRANCH  25  26
ENDBRANCH   4  25
TORSDOF 8
ENDMDL
MODEL 8
REMARK VINA RESULT:      -6.2      2.054      2.388
REMARK  Name = 
REMARK  9 active torsions:
REMARK  status: ('A' for Active; 'I' for Inactive)
REMARK    1  A    between atoms: C_1  and  N_2
REMARK    2  A    between atoms: N_4  and  C_5
REMARK    3  A    between atoms: C_8  and  C_10
REMARK    4  A    between atoms: C_10  and  O_11
REMARK    5  A    between atoms: O_11  and  P_12
REMARK    6  A    between atoms: P_12  and  O_13
REMARK    7  A    between atoms: P_12  and  O_14
REMARK    8  A    between atoms: C_16  and  O_18
REMARK    9  A    between atoms: C_19  and  O_21
REMARK                            x       y       z     vdW  Elec       q    Type
REMARK                         _______ _______ _______ _____ _____    ______ ____
ROOT
ATOM      1  C   UNL     1       7.749  -4.266  25.058  0.00  0.00    +0.257 C 
ATOM      2  C   UNL     1       7.355  -5.036  26.330  0.00  0.00    +0.195 C 
ATOM      3  C   UNL     1       6.042  -5.736  25.965  0.00  0.00    +0.178 C 
ATOM      4  C   UNL     1       5.749  -5.290  24.535  0.00  0.00    +0.178 C 
ATOM      5  O   UNL     1       6.990  -4.839  23.983  0.00  0.00    -0.346 OA
ENDROOT
BRANCH   1  19
ATOM      6  C   UNL     1       5.842   0.102  26.376  0.00  0.00    +0.441 C 
ATOM      7  N   UNL     1       6.588  -0.917  25.654  0.00  0.00    -0.178 N 
ATOM      8  C   UNL     1       7.323  -0.714  24.496  0.00  0.00    +0.316 A 
ATOM      9  C   UNL     1       7.553   0.456  23.706  0.00  0.00    +0.327 A 
ATOM     10  N   UNL     1       8.370   0.150  22.630  0.00  0.00    -0.290 N 
ATOM     11  H   UNL     1       8.607   0.936  22.038  0.00  0.00    +0.172 HD
ATOM     12  C   UNL     1       8.907  -1.091  22.358  0.00  0.00    +0.195 A 
ATOM     13  N   UNL     1       8.691  -2.158  23.077  0.00  0.00    -0.192 NA
ATOM     14  N   UNL     1       9.704  -1.154  21.267  0.00  0.00    -0.329 N 
ATOM     15  H   UNL     1       9.967  -2.084  20.954  0.00  0.00    +0.145 HD
ATOM     16  H   UNL     1       9.628  -0.473  20.520  0.00  0.00    +0.145 HD
ATOM     17  O   UNL     1       7.130   1.594  23.880  0.00  0.00    -0.260 OA
ATOM     18  C   UNL     1       7.884  -1.916  24.138  0.00  0.00    +0.221 A 
ATOM     19  N   UNL     1       7.444  -2.835  25.083  0.00  0.00    -0.244 N 
ATOM     20  C   UNL     1       6.683  -2.210  25.994  0.00  0.00    +0.412 A 
ENDBRANCH   1  19
BRANCH   2  21
ATOM     21  O   UNL     1       8.360  -5.978  26.724  0.00  0.00    -0.385 OA
ATOM     22  H   UNL     1       9.207  -5.525  26.882  0.00  0.00    +0.210 HD
ENDBRANCH   2  21
BRANCH   3  23
ATOM     23  O   UNL     1       4.999  -5.277  26.826  0.00  0.00    -0.386 OA
ATOM     24  H   UNL     1       4.422  -4.697  26.286  0.00  0.00    +0.210 HD
ENDBRANCH   3  23
BRANCH   4  25
ATOM     25  C   UNL     1       5.123  -6.376  23.660  0.00  0.00    +0.206 C 
BRANCH  25  26
ATOM     26  O   UNL     1       4.487  -7.374  24.459  0.00  0.00    -0.284 OA
BRANCH  26  27
ATOM     27  P   UNL     1       2.792  -7.075  24.621  0.00  0.00    +0.472 P 
ATOM     28  O   UNL     1       1.273  -6.807  24.765  0.00  0.00    -0.228 OA
BRANCH  27  29
ATOM     29  O   UNL     1       2.958  -7.588  26.162  0.00  0.00    -0.303 OA
ATOM     30  H   UNL     1       2.058  -7.760  26.510  0.00  0.00    +0.222 HD
ENDBRANCH  27  29
BRANCH  27  31
ATOM     31  O   UNL     1       2.617  -8.572  23.987  0.00  0.00    -0.303 OA
ATOM     32  H   UNL     1       2.404  -8.469  23.043  0.00  0.00    +0.222 HD
ENDBRANCH  27  31
ENDBRANCH  26  27
ENDBRANCH  25  26
ENDBRANCH   4  25
TORSDOF 8
ENDMDL
MODEL 9
REMARK VINA RESULT:      -6.2      1.539      2.819
REMARK  Name = 
REMARK  9 active torsions:
REMARK  status: ('A' for Active; 'I' for Inactive)
REMARK    1  A    between atoms: C_1  and  N_2
REMARK    2  A    between atoms: N_4  and  C_5
REMARK    3  A    between atoms: C_8  and  C_10
REMARK    4  A    between atoms: C_10  and  O_11
REMARK    5  A    between atoms: O_11  and  P_12
REMARK    6  A    between atoms: P_12  and  O_13
REMARK    7  A    between atoms: P_12  and  O_14
REMARK    8  A    between atoms: C_16  and  O_18
REMARK    9  A    between atoms: C_19  and  O_21
REMARK                            x       y       z     vdW  Elec       q    Type
REMARK                         _______ _______ _______ _____ _____    ______ ____
ROOT
ATOM      1  C   UNL     1       9.044  -3.913  24.508  0.00  0.00    +0.257 C 
ATOM      2  C   UNL     1       8.693  -4.049  25.999  0.00  0.00    +0.195 C 
ATOM      3  C   UNL     1       7.225  -4.484  26.011  0.00  0.00    +0.178 C 
ATOM      4  C   UNL     1       6.820  -4.524  24.540  0.00  0.00    +0.178 C 
ATOM      5  O   UNL     1       8.031  -4.625  23.784  0.00  0.00    -0.346 OA
ENDROOT
BRANCH   1  19
ATOM      6  C   UNL     1       9.467  -0.043  21.460  0.00  0.00    +0.441 C 
ATOM      7  N   UNL     1       9.257  -0.838  22.659  0.00  0.00    -0.178 N 
ATOM      8  C   UNL     1       9.005  -0.338  23.928  0.00  0.00    +0.316 A 
ATOM      9  C   UNL     1       8.893   1.000  24.420  0.00  0.00    +0.327 A 
ATOM     10  N   UNL     1       8.628   0.985  25.780  0.00  0.00    -0.290 N 
ATOM     11  H   UNL     1       8.501   1.897  26.198  0.00  0.00    +0.172 HD
ATOM     12  C   UNL     1       8.472  -0.145  26.555  0.00  0.00    +0.195 A 
ATOM     13  N   UNL     1       8.581  -1.365  26.105  0.00  0.00    -0.192 NA
ATOM     14  N   UNL     1       8.186   0.077  27.858  0.00  0.00    -0.329 N 
ATOM     15  H   UNL     1       8.238  -0.729  28.474  0.00  0.00    +0.145 HD
ATOM     16  H   UNL     1       8.422   0.956  28.305  0.00  0.00    +0.145 HD
ATOM     17  O   UNL     1       9.002   2.055  23.805  0.00  0.00    -0.260 OA
ATOM     18  C   UNL     1       8.854  -1.407  24.777  0.00  0.00    +0.221 A 
ATOM     19  N   UNL     1       9.051  -2.541  23.999  0.00  0.00    -0.244 N 
ATOM     20  C   UNL     1       9.273  -2.176  22.727  0.00  0.00    +0.412 A 
ENDBRANCH   1  19
BRANCH   2  21
ATOM     21  O   UNL     1       9.527  -5.005  26.666  0.00  0.00    -0.385 OA
ATOM     22  H   UNL     1       9.036  -5.831  26.826  0.00  0.00    +0.210 HD
ENDBRANCH   2  21
BRANCH   3  23
ATOM     23  O   UNL     1       6.439  -3.502  26.690  0.00  0.00    -0.386 OA
ATOM     24  H   UNL     1       6.597  -3.628  27.650  0.00  0.00    +0.210 HD
ENDBRANCH   3  23
BRANCH   4  25
ATOM     25  C   UNL     1       5.859  -5.659  24.189  0.00  0.00    +0.206 C 
BRANCH  25  26
ATOM     26  O   UNL     1       4.586  -5.462  24.805  0.00  0.00    -0.284 OA
BRANCH  26  27
ATOM     27  P   UNL     1       3.314  -6.190  23.887  0.00  0.00    +0.472 P 
ATOM     28  O   UNL     1       2.175  -6.842  23.064  0.00  0.00    -0.228 OA
BRANCH  27  29
ATOM     29  O   UNL     1       4.263  -7.519  23.831  0.00  0.00    -0.303 OA
ATOM     30  H   UNL     1       3.897  -8.108  23.139  0.00  0.00    +0.222 HD
ENDBRANCH  27  29
BRANCH  27  31
ATOM     31  O   UNL     1       4.018  -5.455  22.607  0.00  0.00    -0.303 OA
ATOM     32  H   UNL     1       4.312  -6.152  21.992  0.00  0.00    +0.222 HD
ENDBRANCH  27  31
ENDBRANCH  26  27
ENDBRANCH  25  26
ENDBRANCH   4  25
TORSDOF 8
ENDMDL
