MODEL 1
REMARK VINA RESULT:      -6.7      0.000      0.000
REMARK  Name = 
REMARK  5 active torsions:
REMARK  status: ('A' for Active; 'I' for Inactive)
REMARK    1  A    between atoms: C_7  and  O_8
REMARK    2  A    between atoms: N_9  and  C1*_10
REMARK    3  A    between atoms: C3*_13  and  O3*_15
REMARK    4  A    between atoms: C4*_16  and  C5*_18
REMARK    5  A    between atoms: C5*_18  and  O5*_19
REMARK                            x       y       z     vdW  Elec       q    Type
REMARK                         _______ _______ _______ _____ _____    ______ ____
ROOT
ATOM      1  N   UNL     1       6.420  -0.362  23.007  0.00  0.00    -0.329 N 
ATOM      2  H   UNL     1       6.740   0.561  22.748  0.00  0.00    +0.145 HD
ATOM      3  H   UNL     1       5.612  -0.352  23.621  0.00  0.00    +0.145 HD
ATOM      4  C   UNL     1       7.348  -1.282  23.370  0.00  0.00    +0.195 A 
ATOM      5  N   UNL     1       8.596  -1.159  22.795  0.00  0.00    -0.293 N 
ATOM      6  H   UNL     1       8.772  -0.437  22.117  0.00  0.00    +0.172 HD
ATOM      7  C   UNL     1       9.661  -2.021  23.028  0.00  0.00    +0.280 A 
ATOM      8  O   UNL     1      10.745  -1.879  22.472  0.00  0.00    -0.265 OA
ATOM      9  C   UNL     1       9.325  -3.066  23.970  0.00  0.00    +0.176 A 
ATOM     10  N   UNL     1      10.071  -4.113  24.456  0.00  0.00    -0.188 NA
ATOM     11  C   UNL     1       9.246  -4.730  25.268  0.00  0.00    +0.300 A 
ATOM     12  N   UNL     1       8.014  -4.143  25.339  0.00  0.00    -0.251 N 
ATOM     13  C   UNL     1       8.050  -3.070  24.490  0.00  0.00    +0.174 A 
ATOM     14  N   UNL     1       7.033  -2.216  24.226  0.00  0.00    -0.196 NA
ENDROOT
BRANCH  12  15
ATOM     15  C1* UNL     1       6.871  -4.527  26.130  0.00  0.00    +0.228 C 
ATOM     16  O4* UNL     1       7.284  -4.918  27.457  0.00  0.00    -0.348 OA
ATOM     17  C4* UNL     1       6.263  -5.812  27.966  0.00  0.00    +0.175 C 
ATOM     18  C3* UNL     1       5.213  -5.964  26.857  0.00  0.00    +0.150 C 
ATOM     19  C2* UNL     1       6.018  -5.667  25.611  0.00  0.00    +0.088 C 
BRANCH  18  20
ATOM     20  O3* UNL     1       4.613  -7.248  26.821  0.00  0.00    -0.389 OA
ATOM     21  H3* UNL     1       4.662  -7.594  25.913  0.00  0.00    +0.210 HD
ENDBRANCH  18  20
BRANCH  17  22
ATOM     22  C5* UNL     1       5.694  -5.215  29.253  0.00  0.00    +0.190 C 
BRANCH  22  23
ATOM     23  O5* UNL     1       6.292  -5.828  30.398  0.00  0.00    -0.392 OA
ATOM     24  H5* UNL     1       7.131  -6.215  30.085  0.00  0.00    +0.210 HD
ENDBRANCH  22  23
ENDBRANCH  17  22
ENDBRANCH  12  15
BRANCH  11  25
ATOM     25  O   UNL     1       9.606  -5.818  25.917  0.00  0.00    -0.479 OA
ATOM     26  H   UNL     1      10.000  -6.350  25.196  0.00  0.00    +0.295 HD
ENDBRANCH  11  25
TORSDOF 5
ENDMDL
MODEL 2
REMARK VINA RESULT:      -6.5      2.738      3.461
REMARK  Name = 
REMARK  5 active torsions:
REMARK  status: ('A' for Active; 'I' for Inactive)
REMARK    1  A    between atoms: C_7  and  O_8
REMARK    2  A    between atoms: N_9  and  C1*_10
REMARK    3  A    between atoms: C3*_13  and  O3*_15
REMARK    4  A    between atoms: C4*_16  and  C5*_18
REMARK    5  A    between atoms: C5*_18  and  O5*_19
REMARK                            x       y       z     vdW  Elec       q    Type
REMARK                         _______ _______ _______ _____ _____    ______ ____
ROOT
ATOM      1  N   UNL     1       6.134   1.432  22.563  0.00  0.00    -0.329 N 
ATOM      2  H   UNL     1       6.130   2.372  22.934  0.00  0.00    +0.145 HD
ATOM      3  H   UNL     1       5.211   1.014  22.512  0.00  0.00    +0.145 HD
ATOM      4  C   UNL     1       7.080   0.571  23.013  0.00  0.00    +0.195 A 
ATOM      5  N   UNL     1       8.281   1.125  23.408  0.00  0.00    -0.293 N 
ATOM      6  H   UNL     1       8.434   2.115  23.321  0.00  0.00    +0.172 HD
ATOM      7  C   UNL     1       9.371   0.399  23.872  0.00  0.00    +0.280 A 
ATOM      8  O   UNL     1      10.425   0.940  24.188  0.00  0.00    -0.265 OA
ATOM      9  C   UNL     1       9.103  -1.022  23.920  0.00  0.00    +0.176 A 
ATOM     10  N   UNL     1       9.901  -2.076  24.298  0.00  0.00    -0.188 NA
ATOM     11  C   UNL     1       9.129  -3.124  24.130  0.00  0.00    +0.300 A 
ATOM     12  N   UNL     1       7.880  -2.810  23.670  0.00  0.00    -0.251 N 
ATOM     13  C   UNL     1       7.857  -1.450  23.518  0.00  0.00    +0.174 A 
ATOM     14  N   UNL     1       6.823  -0.708  23.058  0.00  0.00    -0.196 NA
ENDROOT
BRANCH  12  15
ATOM     15  C1* UNL     1       6.772  -3.688  23.388  0.00  0.00    +0.228 C 
ATOM     16  O4* UNL     1       6.770  -4.808  24.299  0.00  0.00    -0.348 OA
ATOM     17  C4* UNL     1       6.069  -5.888  23.633  0.00  0.00    +0.175 C 
ATOM     18  C3* UNL     1       5.665  -5.366  22.247  0.00  0.00    +0.150 C 
ATOM     19  C2* UNL     1       6.696  -4.286  21.998  0.00  0.00    +0.088 C 
BRANCH  18  20
ATOM     20  O3* UNL     1       5.675  -6.367  21.243  0.00  0.00    -0.389 OA
ATOM     21  H3* UNL     1       6.366  -6.154  20.592  0.00  0.00    +0.210 HD
ENDBRANCH  18  20
BRANCH  17  22
ATOM     22  C5* UNL     1       4.872  -6.292  24.494  0.00  0.00    +0.190 C 
BRANCH  22  23
ATOM     23  O5* UNL     1       4.241  -7.458  23.959  0.00  0.00    -0.392 OA
ATOM     24  H5* UNL     1       4.241  -7.340  22.990  0.00  0.00    +0.210 HD
ENDBRANCH  22  23
ENDBRANCH  17  22
ENDBRANCH  12  15
BRANCH  11  25
ATOM     25  O   UNL     1       9.563  -4.343  24.374  0.00  0.00    -0.479 OA
ATOM     26  H   UNL     1       8.755  -4.767  24.728  0.00  0.00    +0.295 HD
ENDBRANCH  11  25
TORSDOF 5
ENDMDL
MODEL 3
REMARK VINA RESULT:      -6.4      3.259      6.453
REMARK  Name = 
REMARK  5 active torsions:
REMARK  status: ('A' for Active; 'I' for Inactive)
REMARK    1  A    between atoms: C_7  and  O_8
REMARK    2  A    between atoms: N_9  and  C1*_10
REMARK    3  A    between atoms: C3*_13  and  O3*_15
REMARK    4  A    between atoms: C4*_16  and  C5*_18
REMARK    5  A    between atoms: C5*_18  and  O5*_19
REMARK                            x       y       z     vdW  Elec       q    Type
REMARK                         _______ _______ _______ _____ _____    ______ ____
ROOT
ATOM      1  N   UNL     1       5.204  -7.141  27.836  0.00  0.00    -0.329 N 
ATOM      2  H   UNL     1       4.442  -7.499  28.394  0.00  0.00    +0.145 HD
ATOM      3  H   UNL     1       5.768  -6.448  28.318  0.00  0.00    +0.145 HD
ATOM      4  C   UNL     1       4.950  -6.808  26.546  0.00  0.00    +0.195 A 
ATOM      5  N   UNL     1       3.950  -7.517  25.912  0.00  0.00    -0.293 N 
ATOM      6  H   UNL     1       3.475  -8.261  26.393  0.00  0.00    +0.172 HD
ATOM      7  C   UNL     1       3.569  -7.333  24.588  0.00  0.00    +0.280 A 
ATOM      8  O   UNL     1       2.688  -8.007  24.066  0.00  0.00    -0.265 OA
ATOM      9  C   UNL     1       4.327  -6.286  23.939  0.00  0.00    +0.176 A 
ATOM     10  N   UNL     1       4.278  -5.803  22.653  0.00  0.00    -0.188 NA
ATOM     11  C   UNL     1       5.196  -4.866  22.639  0.00  0.00    +0.300 A 
ATOM     12  N   UNL     1       5.833  -4.711  23.839  0.00  0.00    -0.251 N 
ATOM     13  C   UNL     1       5.286  -5.637  24.686  0.00  0.00    +0.174 A 
ATOM     14  N   UNL     1       5.638  -5.857  25.974  0.00  0.00    -0.196 NA
ENDROOT
BRANCH  12  15
ATOM     15  C1* UNL     1       6.872  -3.780  24.199  0.00  0.00    +0.228 C 
ATOM     16  O4* UNL     1       6.804  -2.601  23.369  0.00  0.00    -0.348 OA
ATOM     17  C4* UNL     1       8.134  -2.025  23.351  0.00  0.00    +0.175 C 
ATOM     18  C3* UNL     1       9.026  -2.940  24.201  0.00  0.00    +0.150 C 
ATOM     19  C2* UNL     1       8.304  -4.267  24.108  0.00  0.00    +0.088 C 
BRANCH  18  20
ATOM     20  O3* UNL     1      10.363  -3.016  23.735  0.00  0.00    -0.389 OA
ATOM     21  H3* UNL     1      10.712  -2.114  23.630  0.00  0.00    +0.210 HD
ENDBRANCH  18  20
BRANCH  17  22
ATOM     22  C5* UNL     1       8.051  -0.597  23.891  0.00  0.00    +0.190 C 
BRANCH  22  23
ATOM     23  O5* UNL     1       9.207  -0.289  24.673  0.00  0.00    -0.392 OA
ATOM     24  H5* UNL     1       8.877   0.181  25.462  0.00  0.00    +0.210 HD
ENDBRANCH  22  23
ENDBRANCH  17  22
ENDBRANCH  12  15
BRANCH  11  25
ATOM     25  O   UNL     1       5.459  -4.178  21.547  0.00  0.00    -0.479 OA
ATOM     26  H   UNL     1       4.618  -4.268  21.056  0.00  0.00    +0.295 HD
ENDBRANCH  11  25
TORSDOF 5
ENDMDL
MODEL 4
REMARK VINA RESULT:      -6.3      2.586      6.691
REMARK  Name = 
REMARK  5 active torsions:
REMARK  status: ('A' for Active; 'I' for Inactive)
REMARK    1  A    between atoms: C_7  and  O_8
REMARK    2  A    between atoms: N_9  and  C1*_10
REMARK    3  A    between atoms: C3*_13  and  O3*_15
REMARK    4  A    between atoms: C4*_16  and  C5*_18
REMARK    5  A    between atoms: C5*_18  and  O5*_19
REMARK                            x       y       z     vdW  Elec       q    Type
REMARK                         _______ _______ _______ _____ _____    ______ ____
ROOT
ATOM      1  N   UNL     1      10.568  -5.619  25.610  0.00  0.00    -0.329 N 
ATOM      2  H   UNL     1      10.713  -6.255  26.382  0.00  0.00    +0.145 HD
ATOM      3  H   UNL     1      11.349  -4.990  25.452  0.00  0.00    +0.145 HD
ATOM      4  C   UNL     1       9.364  -5.002  25.508  0.00  0.00    +0.195 A 
ATOM      5  N   UNL     1       8.275  -5.688  26.005  0.00  0.00    -0.293 N 
ATOM      6  H   UNL     1       8.390  -6.612  26.385  0.00  0.00    +0.172 HD
ATOM      7  C   UNL     1       6.965  -5.226  25.964  0.00  0.00    +0.280 A 
ATOM      8  O   UNL     1       6.029  -5.888  26.400  0.00  0.00    -0.265 OA
ATOM      9  C   UNL     1       6.864  -3.917  25.357  0.00  0.00    +0.176 A 
ATOM     10  N   UNL     1       5.771  -3.121  25.113  0.00  0.00    -0.188 NA
ATOM     11  C   UNL     1       6.284  -2.057  24.540  0.00  0.00    +0.300 A 
ATOM     12  N   UNL     1       7.643  -2.118  24.403  0.00  0.00    -0.251 N 
ATOM     13  C   UNL     1       8.028  -3.326  24.917  0.00  0.00    +0.174 A 
ATOM     14  N   UNL     1       9.288  -3.817  24.963  0.00  0.00    -0.196 NA
ENDROOT
BRANCH  12  15
ATOM     15  C1* UNL     1       8.541  -1.139  23.842  0.00  0.00    +0.228 C 
ATOM     16  O4* UNL     1       8.289   0.163  24.413  0.00  0.00    -0.348 OA
ATOM     17  C4* UNL     1       8.752   1.140  23.447  0.00  0.00    +0.175 C 
ATOM     18  C3* UNL     1       9.278   0.353  22.239  0.00  0.00    +0.150 C 
ATOM     19  C2* UNL     1       8.506  -0.945  22.340  0.00  0.00    +0.088 C 
BRANCH  18  20
ATOM     20  O3* UNL     1       9.068   1.013  21.001  0.00  0.00    -0.389 OA
ATOM     21  H3* UNL     1       9.113   1.974  21.145  0.00  0.00    +0.210 HD
ENDBRANCH  18  20
BRANCH  17  22
ATOM     22  C5* UNL     1       9.821   2.008  24.110  0.00  0.00    +0.190 C 
BRANCH  22  23
ATOM     23  O5* UNL     1      10.568   2.725  23.124  0.00  0.00    -0.392 OA
ATOM     24  H5* UNL     1      10.016   2.724  22.320  0.00  0.00    +0.210 HD
ENDBRANCH  22  23
ENDBRANCH  17  22
ENDBRANCH  12  15
BRANCH  11  25
ATOM     25  O   UNL     1       5.524  -1.061  24.134  0.00  0.00    -0.479 OA
ATOM     26  H   UNL     1       6.141  -0.574  23.551  0.00  0.00    +0.295 HD
ENDBRANCH  11  25
TORSDOF 5
ENDMDL
MODEL 5
REMARK VINA RESULT:      -6.2      2.895      4.421
REMARK  Name = 
REMARK  5 active torsions:
REMARK  status: ('A' for Active; 'I' for Inactive)
REMARK    1  A    between atoms: C_7  and  O_8
REMARK    2  A    between atoms: N_9  and  C1*_10
REMARK    3  A    between atoms: C3*_13  and  O3*_15
REMARK    4  A    between atoms: C4*_16  and  C5*_18
REMARK    5  A    between atoms: C5*_18  and  O5*_19
REMARK                            x       y       z     vdW  Elec       q    Type
REMARK                         _______ _______ _______ _____ _____    ______ ____
ROOT
ATOM      1  N   UNL     1       7.418   2.360  26.724  0.00  0.00    -0.329 N 
ATOM      2  H   UNL     1       7.729   3.214  27.166  0.00  0.00    +0.145 HD
ATOM      3  H   UNL     1       7.184   1.625  27.383  0.00  0.00    +0.145 HD
ATOM      4  C   UNL     1       8.115   1.905  25.653  0.00  0.00    +0.195 A 
ATOM      5  N   UNL     1       8.739   2.857  24.873  0.00  0.00    -0.293 N 
ATOM      6  H   UNL     1       8.636   3.834  25.089  0.00  0.00    +0.172 HD
ATOM      7  C   UNL     1       9.474   2.581  23.726  0.00  0.00    +0.280 A 
ATOM      8  O   UNL     1       9.989   3.469  23.056  0.00  0.00    -0.265 OA
ATOM      9  C   UNL     1       9.537   1.164  23.443  0.00  0.00    +0.176 A 
ATOM     10  N   UNL     1      10.139   0.478  22.416  0.00  0.00    -0.188 NA
ATOM     11  C   UNL     1       9.859  -0.778  22.676  0.00  0.00    +0.300 A 
ATOM     12  N   UNL     1       9.115  -0.943  23.811  0.00  0.00    -0.251 N 
ATOM     13  C   UNL     1       8.888   0.311  24.309  0.00  0.00    +0.174 A 
ATOM     14  N   UNL     1       8.169   0.623  25.412  0.00  0.00    -0.196 NA
ENDROOT
BRANCH  12  15
ATOM     15  C1* UNL     1       8.638  -2.164  24.412  0.00  0.00    +0.228 C 
ATOM     16  O4* UNL     1       9.683  -3.160  24.429  0.00  0.00    -0.348 OA
ATOM     17  C4* UNL     1       9.029  -4.453  24.467  0.00  0.00    +0.175 C 
ATOM     18  C3* UNL     1       7.518  -4.185  24.444  0.00  0.00    +0.150 C 
ATOM     19  C2* UNL     1       7.441  -2.834  23.768  0.00  0.00    +0.088 C 
BRANCH  18  20
ATOM     20  O3* UNL     1       6.779  -5.180  23.754  0.00  0.00    -0.389 OA
ATOM     21  H3* UNL     1       5.840  -5.099  23.995  0.00  0.00    +0.210 HD
ENDBRANCH  18  20
BRANCH  17  22
ATOM     22  C5* UNL     1       9.490  -5.193  25.722  0.00  0.00    +0.190 C 
BRANCH  22  23
ATOM     23  O5* UNL     1       8.377  -5.803  26.381  0.00  0.00    -0.392 OA
ATOM     24  H5* UNL     1       8.555  -6.762  26.372  0.00  0.00    +0.210 HD
ENDBRANCH  22  23
ENDBRANCH  17  22
ENDBRANCH  12  15
BRANCH  11  25
ATOM     25  O   UNL     1      10.258  -1.750  21.883  0.00  0.00    -0.479 OA
ATOM     26  H   UNL     1      10.501  -1.252  21.076  0.00  0.00    +0.295 HD
ENDBRANCH  11  25
TORSDOF 5
ENDMDL
MODEL 6
REMARK VINA RESULT:      -6.2      2.949      6.520
REMARK  Name = 
REMARK  5 active torsions:
REMARK  status: ('A' for Active; 'I' for Inactive)
REMARK    1  A    between atoms: C_7  and  O_8
REMARK    2  A    between atoms: N_9  and  C1*_10
REMARK    3  A    between atoms: C3*_13  and  O3*_15
REMARK    4  A    between atoms: C4*_16  and  C5*_18
REMARK    5  A    between atoms: C5*_18  and  O5*_19
REMARK                            x       y       z     vdW  Elec       q    Type
REMARK                         _______ _______ _______ _____ _____    ______ ____
ROOT
ATOM      1  N   UNL     1       7.170  -5.069  21.833  0.00  0.00    -0.329 N 
ATOM      2  H   UNL     1       7.387  -6.046  21.696  0.00  0.00    +0.145 HD
ATOM      3  H   UNL     1       7.404  -4.487  21.035  0.00  0.00    +0.145 HD
ATOM      4  C   UNL     1       7.505  -4.499  23.017  0.00  0.00    +0.195 A 
ATOM      5  N   UNL     1       7.515  -5.329  24.119  0.00  0.00    -0.293 N 
ATOM      6  H   UNL     1       7.247  -6.294  24.029  0.00  0.00    +0.172 HD
ATOM      7  C   UNL     1       7.808  -4.918  25.414  0.00  0.00    +0.280 A 
ATOM      8  O   UNL     1       7.779  -5.693  26.364  0.00  0.00    -0.265 OA
ATOM      9  C   UNL     1       8.131  -3.510  25.483  0.00  0.00    +0.176 A 
ATOM     10  N   UNL     1       8.461  -2.714  26.554  0.00  0.00    -0.188 NA
ATOM     11  C   UNL     1       8.640  -1.530  26.016  0.00  0.00    +0.300 A 
ATOM     12  N   UNL     1       8.450  -1.515  24.662  0.00  0.00    -0.251 N 
ATOM     13  C   UNL     1       8.106  -2.792  24.308  0.00  0.00    +0.174 A 
ATOM     14  N   UNL     1       7.801  -3.228  23.064  0.00  0.00    -0.196 NA
ENDROOT
BRANCH  12  15
ATOM     15  C1* UNL     1       8.575  -0.413  23.742  0.00  0.00    +0.228 C 
ATOM     16  O4* UNL     1       9.396   0.630  24.311  0.00  0.00    -0.348 OA
ATOM     17  C4* UNL     1       9.009   1.868  23.664  0.00  0.00    +0.175 C 
ATOM     18  C3* UNL     1       7.882   1.521  22.682  0.00  0.00    +0.150 C 
ATOM     19  C2* UNL     1       7.297   0.267  23.295  0.00  0.00    +0.088 C 
BRANCH  18  20
ATOM     20  O3* UNL     1       6.921   2.554  22.538  0.00  0.00    -0.389 OA
ATOM     21  H3* UNL     1       7.334   3.403  22.772  0.00  0.00    +0.210 HD
ENDBRANCH  18  20
BRANCH  17  22
ATOM     22  C5* UNL     1      10.240   2.462  22.979  0.00  0.00    +0.190 C 
BRANCH  22  23
ATOM     23  O5* UNL     1      10.204   2.208  21.573  0.00  0.00    -0.392 OA
ATOM     24  H5* UNL     1       9.274   2.000  21.364  0.00  0.00    +0.210 HD
ENDBRANCH  22  23
ENDBRANCH  17  22
ENDBRANCH  12  15
BRANCH  11  25
ATOM     25  O   UNL     1       8.953  -0.482  26.749  0.00  0.00    -0.479 OA
ATOM     26  H   UNL     1       9.890  -0.668  26.960  0.00  0.00    +0.295 HD
ENDBRANCH  11  25
TORSDOF 5
ENDMDL
MODEL 7
REMARK VINA RESULT:      -6.2      2.099      6.159
REMARK  Name = 
REMARK  5 active torsions:
REMARK  status: ('A' for Active; 'I' for Inactive)
REMARK    1  A    between atoms: C_7  and  O_8
REMARK    2  A    between atoms: N_9  and  C1*_10
REMARK    3  A    between atoms: C3*_13  and  O3*_15
REMARK    4  A    between atoms: C4*_16  and  C5*_18
REMARK    5  A    between atoms: C5*_18  and  O5*_19
REMARK                            x       y       z     vdW  Elec       q    Type
REMARK                         _______ _______ _______ _____ _____    ______ ____
ROOT
ATOM      1  N   UNL     1       4.429  -2.452  27.766  0.00  0.00    -0.329 N 
ATOM      2  H   UNL     1       3.547  -2.874  28.020  0.00  0.00    +0.145 HD
ATOM      3  H   UNL     1       4.332  -1.654  27.147  0.00  0.00    +0.145 HD
ATOM      4  C   UNL     1       5.452  -3.270  27.415  0.00  0.00    +0.195 A 
ATOM      5  N   UNL     1       5.468  -4.522  27.996  0.00  0.00    -0.293 N 
ATOM      6  H   UNL     1       4.766  -4.775  28.670  0.00  0.00    +0.172 HD
ATOM      7  C   UNL     1       6.448  -5.482  27.777  0.00  0.00    +0.280 A 
ATOM      8  O   UNL     1       6.428  -6.572  28.338  0.00  0.00    -0.265 OA
ATOM      9  C   UNL     1       7.456  -5.034  26.840  0.00  0.00    +0.176 A 
ATOM     10  N   UNL     1       8.585  -5.657  26.366  0.00  0.00    -0.188 NA
ATOM     11  C   UNL     1       9.110  -4.771  25.553  0.00  0.00    +0.300 A 
ATOM     12  N   UNL     1       8.386  -3.614  25.471  0.00  0.00    -0.251 N 
ATOM     13  C   UNL     1       7.318  -3.769  26.313  0.00  0.00    +0.174 A 
ATOM     14  N   UNL     1       6.351  -2.855  26.564  0.00  0.00    -0.196 NA
ENDROOT
BRANCH  12  15
ATOM     15  C1* UNL     1       8.643  -2.439  24.676  0.00  0.00    +0.228 C 
ATOM     16  O4* UNL     1       9.421  -2.780  23.509  0.00  0.00    -0.348 OA
ATOM     17  C4* UNL     1      10.123  -1.576  23.108  0.00  0.00    +0.175 C 
ATOM     18  C3* UNL     1       9.746  -0.486  24.120  0.00  0.00    +0.150 C 
ATOM     19  C2* UNL     1       9.380  -1.296  25.344  0.00  0.00    +0.088 C 
BRANCH  18  20
ATOM     20  O3* UNL     1      10.794   0.436  24.373  0.00  0.00    -0.389 OA
ATOM     21  H3* UNL     1      10.484   1.096  25.017  0.00  0.00    +0.210 HD
ENDBRANCH  18  20
BRANCH  17  22
ATOM     22  C5* UNL     1       9.717  -1.233  21.675  0.00  0.00    +0.190 C 
BRANCH  22  23
ATOM     23  O5* UNL     1       9.640   0.184  21.502  0.00  0.00    -0.392 OA
ATOM     24  H5* UNL     1       9.855   0.571  22.371  0.00  0.00    +0.210 HD
ENDBRANCH  22  23
ENDBRANCH  17  22
ENDBRANCH  12  15
BRANCH  11  25
ATOM     25  O   UNL     1      10.238  -5.007  24.915  0.00  0.00    -0.479 OA
ATOM     26  H   UNL     1      10.050  -5.877  24.508  0.00  0.00    +0.295 HD
ENDBRANCH  11  25
TORSDOF 5
ENDMDL
MODEL 8
REMARK VINA RESULT:      -6.2      2.734      6.671
REMARK  Name = 
REMARK  5 active torsions:
REMARK  status: ('A' for Active; 'I' for Inactive)
REMARK    1  A    between atoms: C_7  and  O_8
REMARK    2  A    between atoms: N_9  and  C1*_10
REMARK    3  A    between atoms: C3*_13  and  O3*_15
REMARK    4  A    between atoms: C4*_16  and  C5*_18
REMARK    5  A    between atoms: C5*_18  and  O5*_19
REMARK                            x       y       z     vdW  Elec       q    Type
REMARK                         _______ _______ _______ _____ _____    ______ ____
ROOT
ATOM      1  N   UNL     1       5.386  -2.256  27.608  0.00  0.00    -0.329 N 
ATOM      2  H   UNL     1       4.640  -2.903  27.828  0.00  0.00    +0.145 HD
ATOM      3  H   UNL     1       5.056  -1.331  27.354  0.00  0.00    +0.145 HD
ATOM      4  C   UNL     1       6.397  -2.692  26.817  0.00  0.00    +0.195 A 
ATOM      5  N   UNL     1       6.695  -4.038  26.882  0.00  0.00    -0.293 N 
ATOM      6  H   UNL     1       6.197  -4.636  27.518  0.00  0.00    +0.172 HD
ATOM      7  C   UNL     1       7.712  -4.657  26.165  0.00  0.00    +0.280 A 
ATOM      8  O   UNL     1       7.950  -5.854  26.277  0.00  0.00    -0.265 OA
ATOM      9  C   UNL     1       8.424  -3.731  25.310  0.00  0.00    +0.176 A 
ATOM     10  N   UNL     1       9.487  -3.925  24.461  0.00  0.00    -0.188 NA
ATOM     11  C   UNL     1       9.705  -2.732  23.961  0.00  0.00    +0.300 A 
ATOM     12  N   UNL     1       8.845  -1.780  24.433  0.00  0.00    -0.251 N 
ATOM     13  C   UNL     1       8.017  -2.415  25.319  0.00  0.00    +0.174 A 
ATOM     14  N   UNL     1       7.027  -1.847  26.045  0.00  0.00    -0.196 NA
ENDROOT
BRANCH  12  15
ATOM     15  C1* UNL     1       8.772  -0.379  24.100  0.00  0.00    +0.228 C 
ATOM     16  O4* UNL     1       8.805  -0.198  22.668  0.00  0.00    -0.348 OA
ATOM     17  C4* UNL     1       9.317   1.136  22.426  0.00  0.00    +0.175 C 
ATOM     18  C3* UNL     1       9.620   1.750  23.800  0.00  0.00    +0.150 C 
ATOM     19  C2* UNL     1       9.855   0.524  24.654  0.00  0.00    +0.088 C 
BRANCH  18  20
ATOM     20  O3* UNL     1      10.734   2.628  23.792  0.00  0.00    -0.389 OA
ATOM     21  H3* UNL     1      10.721   3.146  22.969  0.00  0.00    +0.210 HD
ENDBRANCH  18  20
BRANCH  17  22
ATOM     22  C5* UNL     1       8.270   1.921  21.635  0.00  0.00    +0.190 C 
BRANCH  22  23
ATOM     23  O5* UNL     1       8.320   3.308  21.976  0.00  0.00    -0.392 OA
ATOM     24  H5* UNL     1       7.612   3.448  22.632  0.00  0.00    +0.210 HD
ENDBRANCH  22  23
ENDBRANCH  17  22
ENDBRANCH  12  15
BRANCH  11  25
ATOM     25  O   UNL     1      10.682  -2.513  23.105  0.00  0.00    -0.479 OA
ATOM     26  H   UNL     1      10.730  -1.536  23.114  0.00  0.00    +0.295 HD
ENDBRANCH  11  25
TORSDOF 5
ENDMDL
MODEL 9
REMARK VINA RESULT:      -6.1      5.246      7.914
REMARK  Name = 
REMARK  5 active torsions:
REMARK  status: ('A' for Active; 'I' for Inactive)
REMARK    1  A    between atoms: C_7  and  O_8
REMARK    2  A    between atoms: N_9  and  C1*_10
REMARK    3  A    between atoms: C3*_13  and  O3*_15
REMARK    4  A    between atoms: C4*_16  and  C5*_18
REMARK    5  A    between atoms: C5*_18  and  O5*_19
REMARK                            x       y       z     vdW  Elec       q    Type
REMARK                         _______ _______ _______ _____ _____    ______ ____
ROOT
ATOM      1  N   UNL     1      13.048   4.876  23.150  0.00  0.00    -0.329 N 
ATOM      2  H   UNL     1      13.391   5.696  22.669  0.00  0.00    +0.145 HD
ATOM      3  H   UNL     1      13.469   4.012  22.826  0.00  0.00    +0.145 HD
ATOM      4  C   UNL     1      11.711   4.767  23.354  0.00  0.00    +0.195 A 
ATOM      5  N   UNL     1      11.010   5.948  23.490  0.00  0.00    -0.293 N 
ATOM      6  H   UNL     1      11.494   6.829  23.472  0.00  0.00    +0.172 HD
ATOM      7  C   UNL     1       9.643   6.031  23.729  0.00  0.00    +0.280 A 
ATOM      8  O   UNL     1       9.072   7.108  23.865  0.00  0.00    -0.265 OA
ATOM      9  C   UNL     1       9.017   4.729  23.798  0.00  0.00    +0.176 A 
ATOM     10  N   UNL     1       7.711   4.369  24.027  0.00  0.00    -0.188 NA
ATOM     11  C   UNL     1       7.738   3.058  23.981  0.00  0.00    +0.300 A 
ATOM     12  N   UNL     1       8.983   2.549  23.733  0.00  0.00    -0.251 N 
ATOM     13  C   UNL     1       9.823   3.625  23.626  0.00  0.00    +0.174 A 
ATOM     14  N   UNL     1      11.158   3.585  23.408  0.00  0.00    -0.196 NA
ENDROOT
BRANCH  12  15
ATOM     15  C1* UNL     1       9.389   1.173  23.598  0.00  0.00    +0.228 C 
ATOM     16  O4* UNL     1       8.425   0.437  22.814  0.00  0.00    -0.348 OA
ATOM     17  C4* UNL     1       8.546  -0.955  23.201  0.00  0.00    +0.175 C 
ATOM     18  C3* UNL     1       9.626  -1.020  24.290  0.00  0.00    +0.150 C 
ATOM     19  C2* UNL     1       9.578   0.376  24.873  0.00  0.00    +0.088 C 
BRANCH  18  20
ATOM     20  O3* UNL     1       9.386  -2.022  25.264  0.00  0.00    -0.389 OA
ATOM     21  H3* UNL     1       8.561  -2.487  25.041  0.00  0.00    +0.210 HD
ENDBRANCH  18  20
BRANCH  17  22
ATOM     22  C5* UNL     1       8.895  -1.775  21.959  0.00  0.00    +0.190 C 
BRANCH  22  23
ATOM     23  O5* UNL     1      10.252  -1.546  21.573  0.00  0.00    -0.392 OA
ATOM     24  H5* UNL     1      10.546  -0.765  22.079  0.00  0.00    +0.210 HD
ENDBRANCH  22  23
ENDBRANCH  17  22
ENDBRANCH  12  15
BRANCH  11  25
ATOM     25  O   UNL     1       6.652   2.340  24.181  0.00  0.00    -0.479 OA
ATOM     26  H   UNL     1       5.951   3.000  24.005  0.00  0.00    +0.295 HD
ENDBRANCH  11  25
TORSDOF 5
ENDMDL
