MODEL 1
REMARK VINA RESULT:      -7.5      0.000      0.000
REMARK  Name = 
REMARK  4 active torsions:
REMARK  status: ('A' for Active; 'I' for Inactive)
REMARK    1  A    between atoms: N_2  and  C_4
REMARK    2  A    between atoms: C_7  and  C_10
REMARK    3  A    between atoms: C_13  and  C_15
REMARK    4  A    between atoms: N_16  and  N_17
REMARK                            x       y       z     vdW  Elec       q    Type
REMARK                         _______ _______ _______ _____ _____    ______ ____
ROOT
ATOM      1  C   UNL     1       9.454   0.824  22.684  0.00  0.00    +0.136 A 
ATOM      2  O   UNL     1       9.272  -0.147  23.626  0.00  0.00    -0.454 OA
ATOM      3  C   UNL     1       9.128  -1.341  22.974  0.00  0.00    +0.148 A 
ATOM      4  C   UNL     1       9.232  -1.142  21.615  0.00  0.00    +0.051 A 
ATOM      5  C   UNL     1       9.454   0.243  21.429  0.00  0.00    +0.050 A 
ENDROOT
BRANCH   1   9
ATOM      6  C   UNL     1       9.769   4.907  23.919  0.00  0.00    +0.273 A 
ATOM      7  C   UNL     1       8.505   4.315  23.823  0.00  0.00    +0.085 A 
ATOM      8  C   UNL     1       8.403   2.965  23.453  0.00  0.00    +0.018 A 
ATOM      9  C   UNL     1       9.551   2.203  23.168  0.00  0.00    +0.018 A 
ATOM     10  C   UNL     1      10.806   2.809  23.314  0.00  0.00    +0.018 A 
ATOM     11  C   UNL     1      10.923   4.154  23.682  0.00  0.00    +0.085 A 
BRANCH   6  13
ATOM     12  O   UNL     1       8.967   7.084  23.886  0.00  0.00    -0.576 OA
ATOM     13  N   UNL     1       9.888   6.335  24.242  0.00  0.00    +0.080 N 
ATOM     14  O   UNL     1      10.896   6.705  24.860  0.00  0.00    +0.041 OA
ENDBRANCH   6  13
ENDBRANCH   1   9
BRANCH   3  15
ATOM     15  C   UNL     1       8.895  -2.511  23.773  0.00  0.00    +0.176 C 
ATOM     16  N   UNL     1       8.924  -2.475  25.074  0.00  0.00    -0.180 NA
BRANCH  16  17
ATOM     17  N   UNL     1       8.636  -3.649  25.713  0.00  0.00    -0.168 N 
ATOM     18  C   UNL     1       9.329  -4.862  25.594  0.00  0.00    +0.328 C 
ATOM     19  O   UNL     1      10.306  -5.111  24.906  0.00  0.00    -0.250 OA
ATOM     20  N   UNL     1       8.729  -5.757  26.421  0.00  0.00    -0.237 N 
ATOM     21  H   UNL     1       9.075  -6.687  26.585  0.00  0.00    +0.159 HD
ATOM     22  C   UNL     1       7.679  -5.186  27.069  0.00  0.00    +0.240 C 
ATOM     23  O   UNL     1       7.011  -5.736  27.931  0.00  0.00    -0.274 OA
ATOM     24  C   UNL     1       7.451  -3.788  26.526  0.00  0.00    +0.232 C 
ENDBRANCH  16  17
ENDBRANCH   3  15
TORSDOF 4
ENDMDL
MODEL 2
REMARK VINA RESULT:      -7.3      3.714      9.402
REMARK  Name = 
REMARK  4 active torsions:
REMARK  status: ('A' for Active; 'I' for Inactive)
REMARK    1  A    between atoms: N_2  and  C_4
REMARK    2  A    between atoms: C_7  and  C_10
REMARK    3  A    between atoms: C_13  and  C_15
REMARK    4  A    between atoms: N_16  and  N_17
REMARK                            x       y       z     vdW  Elec       q    Type
REMARK                         _______ _______ _______ _____ _____    ______ ____
ROOT
ATOM      1  C   UNL     1       7.771  -4.667  24.402  0.00  0.00    +0.136 A 
ATOM      2  O   UNL     1       7.976  -3.457  23.804  0.00  0.00    -0.454 OA
ATOM      3  C   UNL     1       9.245  -3.049  24.107  0.00  0.00    +0.148 A 
ATOM      4  C   UNL     1       9.865  -4.002  24.886  0.00  0.00    +0.051 A 
ATOM      5  C   UNL     1       8.925  -5.044  25.065  0.00  0.00    +0.050 A 
ENDROOT
BRANCH   1   9
ATOM      6  C   UNL     1       3.946  -6.522  23.929  0.00  0.00    +0.273 A 
ATOM      7  C   UNL     1       4.576  -6.555  25.179  0.00  0.00    +0.085 A 
ATOM      8  C   UNL     1       5.813  -5.916  25.344  0.00  0.00    +0.018 A 
ATOM      9  C   UNL     1       6.435  -5.251  24.270  0.00  0.00    +0.018 A 
ATOM     10  C   UNL     1       5.763  -5.196  23.042  0.00  0.00    +0.018 A 
ATOM     11  C   UNL     1       4.528  -5.829  22.863  0.00  0.00    +0.085 A 
BRANCH   6  13
ATOM     12  O   UNL     1       2.570  -8.364  24.237  0.00  0.00    -0.576 OA
ATOM     13  N   UNL     1       2.682  -7.241  23.724  0.00  0.00    +0.080 N 
ATOM     14  O   UNL     1       1.800  -6.680  23.060  0.00  0.00    +0.041 OA
ENDBRANCH   6  13
ENDBRANCH   1   9
BRANCH   3  15
ATOM     15  C   UNL     1       9.673  -1.775  23.601  0.00  0.00    +0.176 C 
ATOM     16  N   UNL     1       8.940  -0.707  23.714  0.00  0.00    -0.180 NA
BRANCH  16  17
ATOM     17  N   UNL     1       9.487   0.451  23.234  0.00  0.00    -0.168 N 
ATOM     18  C   UNL     1       9.545   0.860  21.894  0.00  0.00    +0.328 C 
ATOM     19  O   UNL     1       9.130   0.275  20.906  0.00  0.00    -0.250 OA
ATOM     20  N   UNL     1      10.141   2.079  21.865  0.00  0.00    -0.237 N 
ATOM     21  H   UNL     1      10.240   2.635  21.033  0.00  0.00    +0.159 HD
ATOM     22  C   UNL     1      10.478   2.481  23.119  0.00  0.00    +0.240 C 
ATOM     23  O   UNL     1      10.955   3.571  23.397  0.00  0.00    -0.274 OA
ATOM     24  C   UNL     1      10.204   1.356  24.100  0.00  0.00    +0.232 C 
ENDBRANCH  16  17
ENDBRANCH   3  15
TORSDOF 4
ENDMDL
MODEL 3
REMARK VINA RESULT:      -7.3      1.676      8.778
REMARK  Name = 
REMARK  4 active torsions:
REMARK  status: ('A' for Active; 'I' for Inactive)
REMARK    1  A    between atoms: N_2  and  C_4
REMARK    2  A    between atoms: C_7  and  C_10
REMARK    3  A    between atoms: C_13  and  C_15
REMARK    4  A    between atoms: N_16  and  N_17
REMARK                            x       y       z     vdW  Elec       q    Type
REMARK                         _______ _______ _______ _____ _____    ______ ____
ROOT
ATOM      1  C   UNL     1       8.815  -1.558  23.082  0.00  0.00    +0.136 A 
ATOM      2  O   UNL     1       8.798  -0.299  23.608  0.00  0.00    -0.454 OA
ATOM      3  C   UNL     1       9.294   0.557  22.664  0.00  0.00    +0.148 A 
ATOM      4  C   UNL     1       9.618  -0.147  21.525  0.00  0.00    +0.051 A 
ATOM      5  C   UNL     1       9.298  -1.501  21.787  0.00  0.00    +0.050 A 
ENDROOT
BRANCH   1   9
ATOM      6  C   UNL     1       7.460  -4.626  25.737  0.00  0.00    +0.273 A 
ATOM      7  C   UNL     1       7.052  -4.647  24.399  0.00  0.00    +0.085 A 
ATOM      8  C   UNL     1       7.525  -3.662  23.519  0.00  0.00    +0.018 A 
ATOM      9  C   UNL     1       8.395  -2.648  23.964  0.00  0.00    +0.018 A 
ATOM     10  C   UNL     1       8.822  -2.677  25.299  0.00  0.00    +0.018 A 
ATOM     11  C   UNL     1       8.359  -3.653  26.187  0.00  0.00    +0.085 A 
BRANCH   6  13
ATOM     12  O   UNL     1       5.984  -6.324  26.301  0.00  0.00    -0.576 OA
ATOM     13  N   UNL     1       6.924  -5.612  26.684  0.00  0.00    +0.080 N 
ATOM     14  O   UNL     1       7.447  -5.681  27.805  0.00  0.00    +0.041 OA
ENDBRANCH   6  13
ENDBRANCH   1   9
BRANCH   3  15
ATOM     15  C   UNL     1       9.397   1.946  23.014  0.00  0.00    +0.176 C 
ATOM     16  N   UNL     1      10.546   2.535  23.170  0.00  0.00    -0.180 NA
BRANCH  16  17
ATOM     17  N   UNL     1      10.501   3.872  23.452  0.00  0.00    -0.168 N 
ATOM     18  C   UNL     1      11.589   4.755  23.510  0.00  0.00    +0.328 C 
ATOM     19  O   UNL     1      12.772   4.511  23.329  0.00  0.00    -0.250 OA
ATOM     20  N   UNL     1      11.099   5.989  23.791  0.00  0.00    -0.237 N 
ATOM     21  H   UNL     1      11.660   6.823  23.814  0.00  0.00    +0.159 HD
ATOM     22  C   UNL     1       9.746   5.952  23.921  0.00  0.00    +0.240 C 
ATOM     23  O   UNL     1       9.037   6.932  24.094  0.00  0.00    -0.274 OA
ATOM     24  C   UNL     1       9.273   4.512  23.857  0.00  0.00    +0.232 C 
ENDBRANCH  16  17
ENDBRANCH   3  15
TORSDOF 4
ENDMDL
MODEL 4
REMARK VINA RESULT:      -7.2      2.907      3.101
REMARK  Name = 
REMARK  4 active torsions:
REMARK  status: ('A' for Active; 'I' for Inactive)
REMARK    1  A    between atoms: N_2  and  C_4
REMARK    2  A    between atoms: C_7  and  C_10
REMARK    3  A    between atoms: C_13  and  C_15
REMARK    4  A    between atoms: N_16  and  N_17
REMARK                            x       y       z     vdW  Elec       q    Type
REMARK                         _______ _______ _______ _____ _____    ______ ____
ROOT
ATOM      1  C   UNL     1       8.762   0.434  22.523  0.00  0.00    +0.136 A 
ATOM      2  O   UNL     1       7.738  -0.446  22.727  0.00  0.00    -0.454 OA
ATOM      3  C   UNL     1       8.168  -1.686  22.343  0.00  0.00    +0.148 A 
ATOM      4  C   UNL     1       9.472  -1.609  21.906  0.00  0.00    +0.051 A 
ATOM      5  C   UNL     1       9.857  -0.253  22.033  0.00  0.00    +0.050 A 
ENDROOT
BRANCH   1   9
ATOM      6  C   UNL     1       8.108   4.602  23.228  0.00  0.00    +0.273 A 
ATOM      7  C   UNL     1       7.345   3.942  22.258  0.00  0.00    +0.085 A 
ATOM      8  C   UNL     1       7.534   2.567  22.051  0.00  0.00    +0.018 A 
ATOM      9  C   UNL     1       8.484   1.845  22.797  0.00  0.00    +0.018 A 
ATOM     10  C   UNL     1       9.204   2.522  23.792  0.00  0.00    +0.018 A 
ATOM     11  C   UNL     1       9.026   3.892  24.009  0.00  0.00    +0.085 A 
BRANCH   6  13
ATOM     12  O   UNL     1       8.998   6.739  23.373  0.00  0.00    -0.576 OA
ATOM     13  N   UNL     1       7.968   6.052  23.411  0.00  0.00    +0.080 N 
ATOM     14  O   UNL     1       6.827   6.504  23.585  0.00  0.00    +0.041 OA
ENDBRANCH   6  13
ENDBRANCH   1   9
BRANCH   3  15
ATOM     15  C   UNL     1       7.237  -2.773  22.445  0.00  0.00    +0.176 C 
ATOM     16  N   UNL     1       7.623  -3.993  22.680  0.00  0.00    -0.180 NA
BRANCH  16  17
ATOM     17  N   UNL     1       6.630  -4.925  22.802  0.00  0.00    -0.168 N 
ATOM     18  C   UNL     1       5.896  -5.511  21.762  0.00  0.00    +0.328 C 
ATOM     19  O   UNL     1       5.990  -5.309  20.561  0.00  0.00    -0.250 OA
ATOM     20  N   UNL     1       5.036  -6.401  22.320  0.00  0.00    -0.237 N 
ATOM     21  H   UNL     1       4.443  -7.016  21.790  0.00  0.00    +0.159 HD
ATOM     22  C   UNL     1       5.172  -6.420  23.672  0.00  0.00    +0.240 C 
ATOM     23  O   UNL     1       4.582  -7.184  24.421  0.00  0.00    -0.274 OA
ATOM     24  C   UNL     1       6.135  -5.327  24.097  0.00  0.00    +0.232 C 
ENDBRANCH  16  17
ENDBRANCH   3  15
TORSDOF 4
ENDMDL
MODEL 5
REMARK VINA RESULT:      -7.1      2.315      3.396
REMARK  Name = 
REMARK  4 active torsions:
REMARK  status: ('A' for Active; 'I' for Inactive)
REMARK    1  A    between atoms: N_2  and  C_4
REMARK    2  A    between atoms: C_7  and  C_10
REMARK    3  A    between atoms: C_13  and  C_15
REMARK    4  A    between atoms: N_16  and  N_17
REMARK                            x       y       z     vdW  Elec       q    Type
REMARK                         _______ _______ _______ _____ _____    ______ ____
ROOT
ATOM      1  C   UNL     1       8.614  -1.660  23.253  0.00  0.00    +0.136 A 
ATOM      2  O   UNL     1       8.258  -2.205  24.453  0.00  0.00    -0.454 OA
ATOM      3  C   UNL     1       7.624  -3.391  24.203  0.00  0.00    +0.148 A 
ATOM      4  C   UNL     1       7.585  -3.618  22.845  0.00  0.00    +0.051 A 
ATOM      5  C   UNL     1       8.230  -2.515  22.236  0.00  0.00    +0.050 A 
ENDROOT
BRANCH   1   9
ATOM      6  C   UNL     1      10.278   2.278  23.402  0.00  0.00    +0.273 A 
ATOM      7  C   UNL     1      10.506   1.395  24.464  0.00  0.00    +0.085 A 
ATOM      8  C   UNL     1       9.990   0.092  24.400  0.00  0.00    +0.018 A 
ATOM      9  C   UNL     1       9.241  -0.337  23.289  0.00  0.00    +0.018 A 
ATOM     10  C   UNL     1       9.066   0.552  22.220  0.00  0.00    +0.018 A 
ATOM     11  C   UNL     1       9.574   1.854  22.270  0.00  0.00    +0.085 A 
BRANCH   6  13
ATOM     12  O   UNL     1      11.972   3.862  23.342  0.00  0.00    -0.576 OA
ATOM     13  N   UNL     1      10.756   3.663  23.483  0.00  0.00    +0.080 N 
ATOM     14  O   UNL     1       9.917   4.554  23.680  0.00  0.00    +0.041 OA
ENDBRANCH   6  13
ENDBRANCH   1   9
BRANCH   3  15
ATOM     15  C   UNL     1       7.132  -4.132  25.330  0.00  0.00    +0.176 C 
ATOM     16  N   UNL     1       6.442  -5.226  25.188  0.00  0.00    -0.180 NA
BRANCH  16  17
ATOM     17  N   UNL     1       6.078  -5.860  26.344  0.00  0.00    -0.168 N 
ATOM     18  C   UNL     1       5.032  -6.780  26.502  0.00  0.00    +0.328 C 
ATOM     19  O   UNL     1       4.249  -7.188  25.660  0.00  0.00    -0.250 OA
ATOM     20  N   UNL     1       5.039  -7.186  27.798  0.00  0.00    -0.237 N 
ATOM     21  H   UNL     1       4.437  -7.904  28.164  0.00  0.00    +0.159 HD
ATOM     22  C   UNL     1       6.035  -6.572  28.490  0.00  0.00    +0.240 C 
ATOM     23  O   UNL     1       6.322  -6.809  29.654  0.00  0.00    -0.274 OA
ATOM     24  C   UNL     1       6.697  -5.533  27.605  0.00  0.00    +0.232 C 
ENDBRANCH  16  17
ENDBRANCH   3  15
TORSDOF 4
ENDMDL
MODEL 6
REMARK VINA RESULT:      -6.8      2.938      3.267
REMARK  Name = 
REMARK  4 active torsions:
REMARK  status: ('A' for Active; 'I' for Inactive)
REMARK    1  A    between atoms: N_2  and  C_4
REMARK    2  A    between atoms: C_7  and  C_10
REMARK    3  A    between atoms: C_13  and  C_15
REMARK    4  A    between atoms: N_16  and  N_17
REMARK                            x       y       z     vdW  Elec       q    Type
REMARK                         _______ _______ _______ _____ _____    ______ ____
ROOT
ATOM      1  C   UNL     1       9.082  -0.288  23.555  0.00  0.00    +0.136 A 
ATOM      2  O   UNL     1       8.077  -1.207  23.456  0.00  0.00    -0.454 OA
ATOM      3  C   UNL     1       8.637  -2.451  23.538  0.00  0.00    +0.148 A 
ATOM      4  C   UNL     1      10.000  -2.336  23.704  0.00  0.00    +0.051 A 
ATOM      5  C   UNL     1      10.284  -0.950  23.728  0.00  0.00    +0.050 A 
ENDROOT
BRANCH   1   9
ATOM      6  C   UNL     1       8.160   3.861  23.071  0.00  0.00    +0.273 A 
ATOM      7  C   UNL     1       7.696   2.939  22.125  0.00  0.00    +0.085 A 
ATOM      8  C   UNL     1       7.968   1.575  22.301  0.00  0.00    +0.018 A 
ATOM      9  C   UNL     1       8.706   1.120  23.410  0.00  0.00    +0.018 A 
ATOM     10  C   UNL     1       9.120   2.059  24.365  0.00  0.00    +0.018 A 
ATOM     11  C   UNL     1       8.857   3.423  24.202  0.00  0.00    +0.085 A 
BRANCH   6  13
ATOM     12  O   UNL     1       8.532   6.084  23.619  0.00  0.00    -0.576 OA
ATOM     13  N   UNL     1       7.939   5.298  22.866  0.00  0.00    +0.080 N 
ATOM     14  O   UNL     1       7.181   5.640  21.947  0.00  0.00    +0.041 OA
ENDBRANCH   6  13
ENDBRANCH   1   9
BRANCH   3  15
ATOM     15  C   UNL     1       7.761  -3.583  23.428  0.00  0.00    +0.176 C 
ATOM     16  N   UNL     1       6.558  -3.576  23.923  0.00  0.00    -0.180 NA
BRANCH  16  17
ATOM     17  N   UNL     1       5.811  -4.700  23.704  0.00  0.00    -0.168 N 
ATOM     18  C   UNL     1       5.390  -5.199  22.463  0.00  0.00    +0.328 C 
ATOM     19  O   UNL     1       5.596  -4.738  21.352  0.00  0.00    -0.250 OA
ATOM     20  N   UNL     1       4.702  -6.346  22.698  0.00  0.00    -0.237 N 
ATOM     21  H   UNL     1       4.353  -6.949  21.972  0.00  0.00    +0.159 HD
ATOM     22  C   UNL     1       4.652  -6.615  24.029  0.00  0.00    +0.240 C 
ATOM     23  O   UNL     1       4.166  -7.624  24.519  0.00  0.00    -0.274 OA
ATOM     24  C   UNL     1       5.255  -5.456  24.800  0.00  0.00    +0.232 C 
ENDBRANCH  16  17
ENDBRANCH   3  15
TORSDOF 4
ENDMDL
MODEL 7
REMARK VINA RESULT:      -6.8      1.848      2.198
REMARK  Name = 
REMARK  4 active torsions:
REMARK  status: ('A' for Active; 'I' for Inactive)
REMARK    1  A    between atoms: N_2  and  C_4
REMARK    2  A    between atoms: C_7  and  C_10
REMARK    3  A    between atoms: C_13  and  C_15
REMARK    4  A    between atoms: N_16  and  N_17
REMARK                            x       y       z     vdW  Elec       q    Type
REMARK                         _______ _______ _______ _____ _____    ______ ____
ROOT
ATOM      1  C   UNL     1       9.527  -0.045  23.998  0.00  0.00    +0.136 A 
ATOM      2  O   UNL     1       8.527  -0.761  24.590  0.00  0.00    -0.454 OA
ATOM      3  C   UNL     1       8.704  -2.077  24.265  0.00  0.00    +0.148 A 
ATOM      4  C   UNL     1       9.826  -2.212  23.477  0.00  0.00    +0.051 A 
ATOM      5  C   UNL     1      10.361  -0.912  23.316  0.00  0.00    +0.050 A 
ENDROOT
BRANCH   1   9
ATOM      6  C   UNL     1       9.312   4.218  24.281  0.00  0.00    +0.273 A 
ATOM      7  C   UNL     1       8.374   3.436  24.966  0.00  0.00    +0.085 A 
ATOM      8  C   UNL     1       8.466   2.037  24.902  0.00  0.00    +0.018 A 
ATOM      9  C   UNL     1       9.479   1.410  24.154  0.00  0.00    +0.018 A 
ATOM     10  C   UNL     1      10.430   2.217  23.514  0.00  0.00    +0.018 A 
ATOM     11  C   UNL     1      10.352   3.612  23.569  0.00  0.00    +0.085 A 
BRANCH   6  13
ATOM     12  O   UNL     1       9.613   6.296  23.296  0.00  0.00    -0.576 OA
ATOM     13  N   UNL     1       9.190   5.681  24.286  0.00  0.00    +0.080 N 
ATOM     14  O   UNL     1       8.665   6.214  25.274  0.00  0.00    +0.041 OA
ENDBRANCH   6  13
ENDBRANCH   1   9
BRANCH   3  15
ATOM     15  C   UNL     1       7.742  -3.020  24.761  0.00  0.00    +0.176 C 
ATOM     16  N   UNL     1       7.940  -4.304  24.700  0.00  0.00    -0.180 NA
BRANCH  16  17
ATOM     17  N   UNL     1       6.966  -5.089  25.254  0.00  0.00    -0.168 N 
ATOM     18  C   UNL     1       6.973  -5.654  26.537  0.00  0.00    +0.328 C 
ATOM     19  O   UNL     1       7.833  -5.564  27.399  0.00  0.00    -0.250 OA
ATOM     20  N   UNL     1       5.805  -6.330  26.691  0.00  0.00    -0.237 N 
ATOM     21  H   UNL     1       5.520  -6.767  27.551  0.00  0.00    +0.159 HD
ATOM     22  C   UNL     1       5.043  -6.236  25.570  0.00  0.00    +0.240 C 
ATOM     23  O   UNL     1       3.910  -6.680  25.460  0.00  0.00    -0.274 OA
ATOM     24  C   UNL     1       5.831  -5.532  24.482  0.00  0.00    +0.232 C 
ENDBRANCH  16  17
ENDBRANCH   3  15
TORSDOF 4
ENDMDL
MODEL 8
REMARK VINA RESULT:      -6.7      2.892      8.951
REMARK  Name = 
REMARK  4 active torsions:
REMARK  status: ('A' for Active; 'I' for Inactive)
REMARK    1  A    between atoms: N_2  and  C_4
REMARK    2  A    between atoms: C_7  and  C_10
REMARK    3  A    between atoms: C_13  and  C_15
REMARK    4  A    between atoms: N_16  and  N_17
REMARK                            x       y       z     vdW  Elec       q    Type
REMARK                         _______ _______ _______ _____ _____    ______ ____
ROOT
ATOM      1  C   UNL     1       8.748  -1.843  23.092  0.00  0.00    +0.136 A 
ATOM      2  O   UNL     1       8.433  -0.522  22.952  0.00  0.00    -0.454 OA
ATOM      3  C   UNL     1       9.587   0.200  23.084  0.00  0.00    +0.148 A 
ATOM      4  C   UNL     1      10.647  -0.655  23.294  0.00  0.00    +0.051 A 
ATOM      5  C   UNL     1      10.112  -1.965  23.286  0.00  0.00    +0.050 A 
ENDROOT
BRANCH   1   9
ATOM      6  C   UNL     1       5.496  -4.620  23.197  0.00  0.00    +0.273 A 
ATOM      7  C   UNL     1       5.243  -3.277  22.892  0.00  0.00    +0.085 A 
ATOM      8  C   UNL     1       6.314  -2.373  22.823  0.00  0.00    +0.018 A 
ATOM      9  C   UNL     1       7.635  -2.794  23.063  0.00  0.00    +0.018 A 
ATOM     10  C   UNL     1       7.865  -4.152  23.323  0.00  0.00    +0.018 A 
ATOM     11  C   UNL     1       6.807  -5.065  23.396  0.00  0.00    +0.085 A 
BRANCH   6  13
ATOM     12  O   UNL     1       4.584  -6.604  23.978  0.00  0.00    -0.576 OA
ATOM     13  N   UNL     1       4.380  -5.563  23.337  0.00  0.00    +0.080 N 
ATOM     14  O   UNL     1       3.298  -5.261  22.814  0.00  0.00    +0.041 OA
ENDBRANCH   6  13
ENDBRANCH   1   9
BRANCH   3  15
ATOM     15  C   UNL     1       9.490   1.630  23.000  0.00  0.00    +0.176 C 
ATOM     16  N   UNL     1       9.795   2.402  24.001  0.00  0.00    -0.180 NA
BRANCH  16  17
ATOM     17  N   UNL     1       9.706   3.747  23.771  0.00  0.00    -0.168 N 
ATOM     18  C   UNL     1      10.766   4.625  23.500  0.00  0.00    +0.328 C 
ATOM     19  O   UNL     1      11.957   4.371  23.422  0.00  0.00    -0.250 OA
ATOM     20  N   UNL     1      10.234   5.859  23.305  0.00  0.00    -0.237 N 
ATOM     21  H   UNL     1      10.769   6.661  23.020  0.00  0.00    +0.159 HD
ATOM     22  C   UNL     1       8.882   5.827  23.439  0.00  0.00    +0.240 C 
ATOM     23  O   UNL     1       8.140   6.777  23.238  0.00  0.00    -0.274 OA
ATOM     24  C   UNL     1       8.453   4.450  23.910  0.00  0.00    +0.232 C 
ENDBRANCH  16  17
ENDBRANCH   3  15
TORSDOF 4
ENDMDL
MODEL 9
REMARK VINA RESULT:      -6.7      2.992      3.371
REMARK  Name = 
REMARK  4 active torsions:
REMARK  status: ('A' for Active; 'I' for Inactive)
REMARK    1  A    between atoms: N_2  and  C_4
REMARK    2  A    between atoms: C_7  and  C_10
REMARK    3  A    between atoms: C_13  and  C_15
REMARK    4  A    between atoms: N_16  and  N_17
REMARK                            x       y       z     vdW  Elec       q    Type
REMARK                         _______ _______ _______ _____ _____    ______ ____
ROOT
ATOM      1  C   UNL     1       8.826   0.366  25.049  0.00  0.00    +0.136 A 
ATOM      2  O   UNL     1       8.026  -0.378  24.231  0.00  0.00    -0.454 OA
ATOM      3  C   UNL     1       7.879  -1.613  24.800  0.00  0.00    +0.148 A 
ATOM      4  C   UNL     1       8.571  -1.660  25.991  0.00  0.00    +0.051 A 
ATOM      5  C   UNL     1       9.167  -0.387  26.157  0.00  0.00    +0.050 A 
ENDROOT
BRANCH   1   9
ATOM      6  C   UNL     1       9.931   4.324  23.860  0.00  0.00    +0.273 A 
ATOM      7  C   UNL     1      10.698   3.237  23.426  0.00  0.00    +0.085 A 
ATOM      8  C   UNL     1      10.316   1.936  23.786  0.00  0.00    +0.018 A 
ATOM      9  C   UNL     1       9.179   1.709  24.584  0.00  0.00    +0.018 A 
ATOM     10  C   UNL     1       8.404   2.812  24.968  0.00  0.00    +0.018 A 
ATOM     11  C   UNL     1       8.773   4.115  24.616  0.00  0.00    +0.085 A 
BRANCH   6  13
ATOM     12  O   UNL     1       9.478   6.505  23.212  0.00  0.00    -0.576 OA
ATOM     13  N   UNL     1      10.355   5.694  23.545  0.00  0.00    +0.080 N 
ATOM     14  O   UNL     1      11.561   5.962  23.639  0.00  0.00    +0.041 OA
ENDBRANCH   6  13
ENDBRANCH   1   9
BRANCH   3  15
ATOM     15  C   UNL     1       7.091  -2.582  24.092  0.00  0.00    +0.176 C 
ATOM     16  N   UNL     1       6.526  -3.586  24.695  0.00  0.00    -0.180 NA
BRANCH  16  17
ATOM     17  N   UNL     1       5.763  -4.406  23.910  0.00  0.00    -0.168 N 
ATOM     18  C   UNL     1       6.226  -5.348  22.980  0.00  0.00    +0.328 C 
ATOM     19  O   UNL     1       7.380  -5.617  22.686  0.00  0.00    -0.250 OA
ATOM     20  N   UNL     1       5.139  -5.962  22.447  0.00  0.00    -0.237 N 
ATOM     21  H   UNL     1       5.191  -6.736  21.806  0.00  0.00    +0.159 HD
ATOM     22  C   UNL     1       3.993  -5.464  22.981  0.00  0.00    +0.240 C 
ATOM     23  O   UNL     1       2.872  -5.888  22.743  0.00  0.00    -0.274 OA
ATOM     24  C   UNL     1       4.325  -4.287  23.879  0.00  0.00    +0.232 C 
ENDBRANCH  16  17
ENDBRANCH   3  15
TORSDOF 4
ENDMDL
