MODEL 1
REMARK VINA RESULT:      -7.0      0.000      0.000
REMARK  Name = 
REMARK  6 active torsions:
REMARK  status: ('A' for Active; 'I' for Inactive)
REMARK    1  A    between atoms: C_1  and  C_2
REMARK    2  A    between atoms: C_5  and  C_8
REMARK    3  A    between atoms: C_8  and  C_10
REMARK    4  A    between atoms: C_12  and  N_18
REMARK    5  A    between atoms: C_13  and  O_14
REMARK    6  A    between atoms: C_15  and  O_16
REMARK                            x       y       z     vdW  Elec       q    Type
REMARK                         _______ _______ _______ _____ _____    ______ ____
ROOT
ATOM      1  C   UNL     1       8.581  -2.884  24.248  0.00  0.00    +0.032 A 
ATOM      2  C   UNL     1       9.545  -3.864  24.504  0.00  0.00    +0.061 A 
ATOM      3  C   UNL     1       9.350  -4.762  25.547  0.00  0.00    +0.166 A 
ATOM      4  C   UNL     1       8.248  -4.672  26.395  0.00  0.00    +0.237 A 
ATOM      5  C   UNL     1       7.324  -3.641  26.192  0.00  0.00    +0.318 A 
ATOM      6  C   UNL     1       7.483  -2.751  25.115  0.00  0.00    +0.100 A 
ENDROOT
BRANCH   5   7
ATOM      7  N   UNL     1       6.183  -3.475  27.091  0.00  0.00    +0.084 N 
ATOM      8  O   UNL     1       5.716  -2.330  27.210  0.00  0.00    +0.042 OA
ATOM      9  O   UNL     1       5.747  -4.474  27.675  0.00  0.00    -0.576 OA
ENDBRANCH   5   7
BRANCH   1  10
ATOM     10  C   UNL     1       8.680  -1.954  23.088  0.00  0.00    +0.193 C 
ATOM     11  O   UNL     1       8.170  -2.294  22.022  0.00  0.00    -0.287 OA
BRANCH  10  16
ATOM     12  C   UNL     1      10.969   3.360  23.410  0.00  0.00    +0.044 C 
ATOM     13  C   UNL     1      10.485   1.945  23.300  0.00  0.00    -0.050 A 
ATOM     14  C   UNL     1      10.486   1.118  24.429  0.00  0.00    +0.004 A 
ATOM     15  C   UNL     1       9.952  -0.173  24.363  0.00  0.00    +0.012 A 
ATOM     16  C   UNL     1       9.363  -0.635  23.181  0.00  0.00    +0.022 A 
ATOM     17  C   UNL     1       9.422   0.166  22.035  0.00  0.00    +0.012 A 
ATOM     18  C   UNL     1       9.973   1.451  22.095  0.00  0.00    +0.004 A 
ENDBRANCH  10  16
ENDBRANCH   1  10
BRANCH   3  19
ATOM     19  O   UNL     1      10.266  -5.760  25.721  0.00  0.00    -0.503 OA
ATOM     20  H   UNL     1       9.746  -6.542  26.002  0.00  0.00    +0.292 HD
ENDBRANCH   3  19
BRANCH   4  21
ATOM     21  O   UNL     1       8.178  -5.637  27.366  0.00  0.00    -0.499 OA
ATOM     22  H   UNL     1       8.472  -6.498  26.996  0.00  0.00    +0.293 HD
ENDBRANCH   4  21
TORSDOF 5
ENDMDL
MODEL 2
REMARK VINA RESULT:      -6.9      1.881      2.314
REMARK  Name = 
REMARK  6 active torsions:
REMARK  status: ('A' for Active; 'I' for Inactive)
REMARK    1  A    between atoms: C_1  and  C_2
REMARK    2  A    between atoms: C_5  and  C_8
REMARK    3  A    between atoms: C_8  and  C_10
REMARK    4  A    between atoms: C_12  and  N_18
REMARK    5  A    between atoms: C_13  and  O_14
REMARK    6  A    between atoms: C_15  and  O_16
REMARK                            x       y       z     vdW  Elec       q    Type
REMARK                         _______ _______ _______ _____ _____    ______ ____
ROOT
ATOM      1  C   UNL     1       7.521  -4.107  24.162  0.00  0.00    +0.032 A 
ATOM      2  C   UNL     1       8.636  -4.045  25.005  0.00  0.00    +0.061 A 
ATOM      3  C   UNL     1       8.618  -4.727  26.215  0.00  0.00    +0.166 A 
ATOM      4  C   UNL     1       7.489  -5.419  26.651  0.00  0.00    +0.237 A 
ATOM      5  C   UNL     1       6.344  -5.413  25.848  0.00  0.00    +0.318 A 
ATOM      6  C   UNL     1       6.359  -4.765  24.600  0.00  0.00    +0.100 A 
ENDROOT
BRANCH   5   7
ATOM      7  N   UNL     1       5.119  -6.079  26.291  0.00  0.00    +0.084 N 
ATOM      8  O   UNL     1       4.041  -5.606  25.893  0.00  0.00    +0.042 OA
ATOM      9  O   UNL     1       5.224  -7.067  27.026  0.00  0.00    -0.576 OA
ENDBRANCH   5   7
BRANCH   1  10
ATOM     10  C   UNL     1       7.509  -3.481  22.810  0.00  0.00    +0.193 C 
ATOM     11  O   UNL     1       7.050  -4.129  21.871  0.00  0.00    -0.287 OA
BRANCH  10  16
ATOM     12  C   UNL     1       9.549   1.914  22.258  0.00  0.00    +0.044 C 
ATOM     13  C   UNL     1       8.979   0.529  22.290  0.00  0.00    -0.050 A 
ATOM     14  C   UNL     1       9.756  -0.556  21.868  0.00  0.00    +0.004 A 
ATOM     15  C   UNL     1       9.272  -1.863  21.980  0.00  0.00    +0.012 A 
ATOM     16  C   UNL     1       8.023  -2.106  22.564  0.00  0.00    +0.022 A 
ATOM     17  C   UNL     1       7.219  -1.020  22.925  0.00  0.00    +0.012 A 
ATOM     18  C   UNL     1       7.695   0.289  22.795  0.00  0.00    +0.004 A 
ENDBRANCH  10  16
ENDBRANCH   1  10
BRANCH   3  19
ATOM     19  O   UNL     1       9.751  -4.720  26.979  0.00  0.00    -0.503 OA
ATOM     20  H   UNL     1       9.943  -3.774  27.149  0.00  0.00    +0.292 HD
ENDBRANCH   3  19
BRANCH   4  21
ATOM     21  O   UNL     1       7.626  -6.060  27.856  0.00  0.00    -0.499 OA
ATOM     22  H   UNL     1       7.421  -5.435  28.586  0.00  0.00    +0.293 HD
ENDBRANCH   4  21
TORSDOF 5
ENDMDL
MODEL 3
REMARK VINA RESULT:      -6.9      2.745      3.746
REMARK  Name = 
REMARK  6 active torsions:
REMARK  status: ('A' for Active; 'I' for Inactive)
REMARK    1  A    between atoms: C_1  and  C_2
REMARK    2  A    between atoms: C_5  and  C_8
REMARK    3  A    between atoms: C_8  and  C_10
REMARK    4  A    between atoms: C_12  and  N_18
REMARK    5  A    between atoms: C_13  and  O_14
REMARK    6  A    between atoms: C_15  and  O_16
REMARK                            x       y       z     vdW  Elec       q    Type
REMARK                         _______ _______ _______ _____ _____    ______ ____
ROOT
ATOM      1  C   UNL     1       7.811  -4.447  23.800  0.00  0.00    +0.032 A 
ATOM      2  C   UNL     1       7.396  -4.261  22.477  0.00  0.00    +0.061 A 
ATOM      3  C   UNL     1       6.172  -4.773  22.065  0.00  0.00    +0.166 A 
ATOM      4  C   UNL     1       5.369  -5.530  22.916  0.00  0.00    +0.237 A 
ATOM      5  C   UNL     1       5.820  -5.788  24.214  0.00  0.00    +0.318 A 
ATOM      6  C   UNL     1       7.037  -5.242  24.662  0.00  0.00    +0.100 A 
ENDROOT
BRANCH   5   7
ATOM      7  N   UNL     1       5.037  -6.624  25.124  0.00  0.00    +0.084 N 
ATOM      8  O   UNL     1       5.180  -6.425  26.342  0.00  0.00    +0.042 OA
ATOM      9  O   UNL     1       4.282  -7.472  24.635  0.00  0.00    -0.576 OA
ENDBRANCH   5   7
BRANCH   1  10
ATOM     10  C   UNL     1       9.064  -3.844  24.333  0.00  0.00    +0.193 C 
ATOM     11  O   UNL     1       9.873  -4.580  24.896  0.00  0.00    -0.287 OA
BRANCH  10  16
ATOM     12  C   UNL     1      10.520   1.761  24.128  0.00  0.00    +0.044 C 
ATOM     13  C   UNL     1      10.045   0.340  24.120  0.00  0.00    -0.050 A 
ATOM     14  C   UNL     1      10.416  -0.514  23.075  0.00  0.00    +0.004 A 
ATOM     15  C   UNL     1      10.059  -1.866  23.102  0.00  0.00    +0.012 A 
ATOM     16  C   UNL     1       9.370  -2.393  24.201  0.00  0.00    +0.022 A 
ATOM     17  C   UNL     1       8.941  -1.527  25.213  0.00  0.00    +0.012 A 
ATOM     18  C   UNL     1       9.282  -0.171  25.177  0.00  0.00    +0.004 A 
ENDBRANCH  10  16
ENDBRANCH   1  10
BRANCH   3  19
ATOM     19  O   UNL     1       5.754  -4.504  20.792  0.00  0.00    -0.503 OA
ATOM     20  H   UNL     1       6.570  -4.303  20.288  0.00  0.00    +0.292 HD
ENDBRANCH   3  19
BRANCH   4  21
ATOM     21  O   UNL     1       4.181  -5.951  22.377  0.00  0.00    -0.499 OA
ATOM     22  H   UNL     1       4.358  -6.548  21.616  0.00  0.00    +0.293 HD
ENDBRANCH   4  21
TORSDOF 5
ENDMDL
MODEL 4
REMARK VINA RESULT:      -6.8      2.233      3.015
REMARK  Name = 
REMARK  6 active torsions:
REMARK  status: ('A' for Active; 'I' for Inactive)
REMARK    1  A    between atoms: C_1  and  C_2
REMARK    2  A    between atoms: C_5  and  C_8
REMARK    3  A    between atoms: C_8  and  C_10
REMARK    4  A    between atoms: C_12  and  N_18
REMARK    5  A    between atoms: C_13  and  O_14
REMARK    6  A    between atoms: C_15  and  O_16
REMARK                            x       y       z     vdW  Elec       q    Type
REMARK                         _______ _______ _______ _____ _____    ______ ____
ROOT
ATOM      1  C   UNL     1       8.933  -2.558  23.256  0.00  0.00    +0.032 A 
ATOM      2  C   UNL     1       9.141  -3.355  24.386  0.00  0.00    +0.061 A 
ATOM      3  C   UNL     1       8.225  -4.352  24.699  0.00  0.00    +0.166 A 
ATOM      4  C   UNL     1       7.061  -4.539  23.956  0.00  0.00    +0.237 A 
ATOM      5  C   UNL     1       6.810  -3.689  22.874  0.00  0.00    +0.318 A 
ATOM      6  C   UNL     1       7.747  -2.703  22.517  0.00  0.00    +0.100 A 
ENDROOT
BRANCH   5   7
ATOM      7  N   UNL     1       5.575  -3.812  22.100  0.00  0.00    +0.084 N 
ATOM      8  O   UNL     1       4.529  -4.033  22.732  0.00  0.00    +0.042 OA
ATOM      9  O   UNL     1       5.640  -3.688  20.871  0.00  0.00    -0.576 OA
ENDBRANCH   5   7
BRANCH   1  10
ATOM     10  C   UNL     1       9.923  -1.538  22.808  0.00  0.00    +0.193 C 
ATOM     11  O   UNL     1      10.931  -1.922  22.219  0.00  0.00    -0.287 OA
BRANCH  10  16
ATOM     12  C   UNL     1       9.514   4.132  23.933  0.00  0.00    +0.044 C 
ATOM     13  C   UNL     1       9.503   2.667  23.617  0.00  0.00    -0.050 A 
ATOM     14  C   UNL     1       9.754   2.233  22.311  0.00  0.00    +0.004 A 
ATOM     15  C   UNL     1       9.840   0.868  22.020  0.00  0.00    +0.012 A 
ATOM     16  C   UNL     1       9.727  -0.081  23.042  0.00  0.00    +0.022 A 
ATOM     17  C   UNL     1       9.410   0.349  24.336  0.00  0.00    +0.012 A 
ATOM     18  C   UNL     1       9.305   1.714  24.624  0.00  0.00    +0.004 A 
ENDBRANCH  10  16
ENDBRANCH   1  10
BRANCH   3  19
ATOM     19  O   UNL     1       8.497  -5.170  25.760  0.00  0.00    -0.503 OA
ATOM     20  H   UNL     1       8.717  -6.040  25.366  0.00  0.00    +0.292 HD
ENDBRANCH   3  19
BRANCH   4  21
ATOM     21  O   UNL     1       6.263  -5.573  24.371  0.00  0.00    -0.499 OA
ATOM     22  H   UNL     1       6.405  -6.352  23.790  0.00  0.00    +0.293 HD
ENDBRANCH   4  21
TORSDOF 5
ENDMDL
MODEL 5
REMARK VINA RESULT:      -6.7      2.640      3.740
REMARK  Name = 
REMARK  6 active torsions:
REMARK  status: ('A' for Active; 'I' for Inactive)
REMARK    1  A    between atoms: C_1  and  C_2
REMARK    2  A    between atoms: C_5  and  C_8
REMARK    3  A    between atoms: C_8  and  C_10
REMARK    4  A    between atoms: C_12  and  N_18
REMARK    5  A    between atoms: C_13  and  O_14
REMARK    6  A    between atoms: C_15  and  O_16
REMARK                            x       y       z     vdW  Elec       q    Type
REMARK                         _______ _______ _______ _____ _____    ______ ____
ROOT
ATOM      1  C   UNL     1       7.815  -4.723  24.904  0.00  0.00    +0.032 A 
ATOM      2  C   UNL     1       7.356  -5.280  26.102  0.00  0.00    +0.061 A 
ATOM      3  C   UNL     1       6.129  -5.933  26.127  0.00  0.00    +0.166 A 
ATOM      4  C   UNL     1       5.305  -5.990  25.004  0.00  0.00    +0.237 A 
ATOM      5  C   UNL     1       5.726  -5.361  23.828  0.00  0.00    +0.318 A 
ATOM      6  C   UNL     1       6.984  -4.734  23.772  0.00  0.00    +0.100 A 
ENDROOT
BRANCH   5   7
ATOM      7  N   UNL     1       4.870  -5.348  22.642  0.00  0.00    +0.084 N 
ATOM      8  O   UNL     1       5.406  -5.610  21.552  0.00  0.00    +0.042 OA
ATOM      9  O   UNL     1       3.671  -5.083  22.788  0.00  0.00    -0.576 OA
ENDBRANCH   5   7
BRANCH   1  10
ATOM     10  C   UNL     1       9.162  -4.096  24.784  0.00  0.00    +0.193 C 
ATOM     11  O   UNL     1      10.153  -4.821  24.854  0.00  0.00    -0.287 OA
BRANCH  10  16
ATOM     12  C   UNL     1      10.137   1.594  24.283  0.00  0.00    +0.044 C 
ATOM     13  C   UNL     1       9.785   0.139  24.350  0.00  0.00    -0.050 A 
ATOM     14  C   UNL     1      10.238  -0.735  23.355  0.00  0.00    +0.004 A 
ATOM     15  C   UNL     1       9.997  -2.109  23.453  0.00  0.00    +0.012 A 
ATOM     16  C   UNL     1       9.344  -2.633  24.574  0.00  0.00    +0.022 A 
ATOM     17  C   UNL     1       8.832  -1.754  25.536  0.00  0.00    +0.012 A 
ATOM     18  C   UNL     1       9.057  -0.377  25.428  0.00  0.00    +0.004 A 
ENDBRANCH  10  16
ENDBRANCH   1  10
BRANCH   3  19
ATOM     19  O   UNL     1       5.743  -6.541  27.288  0.00  0.00    -0.503 OA
ATOM     20  H   UNL     1       6.577  -6.792  27.739  0.00  0.00    +0.292 HD
ENDBRANCH   3  19
BRANCH   4  21
ATOM     21  O   UNL     1       4.135  -6.684  25.174  0.00  0.00    -0.499 OA
ATOM     22  H   UNL     1       4.259  -7.376  25.860  0.00  0.00    +0.293 HD
ENDBRANCH   4  21
TORSDOF 5
ENDMDL
MODEL 6
REMARK VINA RESULT:      -6.7      1.754      2.882
REMARK  Name = 
REMARK  6 active torsions:
REMARK  status: ('A' for Active; 'I' for Inactive)
REMARK    1  A    between atoms: C_1  and  C_2
REMARK    2  A    between atoms: C_5  and  C_8
REMARK    3  A    between atoms: C_8  and  C_10
REMARK    4  A    between atoms: C_12  and  N_18
REMARK    5  A    between atoms: C_13  and  O_14
REMARK    6  A    between atoms: C_15  and  O_16
REMARK                            x       y       z     vdW  Elec       q    Type
REMARK                         _______ _______ _______ _____ _____    ______ ____
ROOT
ATOM      1  C   UNL     1       8.599  -2.638  23.307  0.00  0.00    +0.032 A 
ATOM      2  C   UNL     1       7.509  -2.753  22.438  0.00  0.00    +0.061 A 
ATOM      3  C   UNL     1       6.404  -3.502  22.822  0.00  0.00    +0.166 A 
ATOM      4  C   UNL     1       6.375  -4.205  24.026  0.00  0.00    +0.237 A 
ATOM      5  C   UNL     1       7.498  -4.159  24.858  0.00  0.00    +0.318 A 
ATOM      6  C   UNL     1       8.608  -3.370  24.506  0.00  0.00    +0.100 A 
ENDROOT
BRANCH   5   7
ATOM      7  N   UNL     1       7.535  -4.925  26.104  0.00  0.00    +0.084 N 
ATOM      8  O   UNL     1       6.834  -5.949  26.161  0.00  0.00    +0.042 OA
ATOM      9  O   UNL     1       8.256  -4.516  27.021  0.00  0.00    -0.576 OA
ENDBRANCH   5   7
BRANCH   1  10
ATOM     10  C   UNL     1       9.773  -1.773  23.001  0.00  0.00    +0.193 C 
ATOM     11  O   UNL     1      10.814  -2.312  22.629  0.00  0.00    -0.287 OA
BRANCH  10  16
ATOM     12  C   UNL     1       9.942   3.980  23.675  0.00  0.00    +0.044 C 
ATOM     13  C   UNL     1       9.782   2.503  23.480  0.00  0.00    -0.050 A 
ATOM     14  C   UNL     1       9.936   1.946  22.205  0.00  0.00    +0.004 A 
ATOM     15  C   UNL     1       9.882   0.561  22.023  0.00  0.00    +0.012 A 
ATOM     16  C   UNL     1       9.724  -0.290  23.123  0.00  0.00    +0.022 A 
ATOM     17  C   UNL     1       9.504   0.267  24.387  0.00  0.00    +0.012 A 
ATOM     18  C   UNL     1       9.538   1.654  24.567  0.00  0.00    +0.004 A 
ENDBRANCH  10  16
ENDBRANCH   1  10
BRANCH   3  19
ATOM     19  O   UNL     1       5.319  -3.528  21.991  0.00  0.00    -0.503 OA
ATOM     20  H   UNL     1       4.976  -4.444  22.042  0.00  0.00    +0.292 HD
ENDBRANCH   3  19
BRANCH   4  21
ATOM     21  O   UNL     1       5.211  -4.884  24.278  0.00  0.00    -0.499 OA
ATOM     22  H   UNL     1       4.792  -5.145  23.429  0.00  0.00    +0.293 HD
ENDBRANCH   4  21
TORSDOF 5
ENDMDL
MODEL 7
REMARK VINA RESULT:      -6.6      2.575      3.249
REMARK  Name = 
REMARK  6 active torsions:
REMARK  status: ('A' for Active; 'I' for Inactive)
REMARK    1  A    between atoms: C_1  and  C_2
REMARK    2  A    between atoms: C_5  and  C_8
REMARK    3  A    between atoms: C_8  and  C_10
REMARK    4  A    between atoms: C_12  and  N_18
REMARK    5  A    between atoms: C_13  and  O_14
REMARK    6  A    between atoms: C_15  and  O_16
REMARK                            x       y       z     vdW  Elec       q    Type
REMARK                         _______ _______ _______ _____ _____    ______ ____
ROOT
ATOM      1  C   UNL     1       7.513  -3.961  23.646  0.00  0.00    +0.032 A 
ATOM      2  C   UNL     1       7.187  -4.823  22.594  0.00  0.00    +0.061 A 
ATOM      3  C   UNL     1       5.863  -5.194  22.398  0.00  0.00    +0.166 A 
ATOM      4  C   UNL     1       4.850  -4.787  23.265  0.00  0.00    +0.237 A 
ATOM      5  C   UNL     1       5.186  -3.993  24.366  0.00  0.00    +0.318 A 
ATOM      6  C   UNL     1       6.515  -3.571  24.556  0.00  0.00    +0.100 A 
ENDROOT
BRANCH   5   7
ATOM      7  N   UNL     1       4.166  -3.588  25.333  0.00  0.00    +0.084 N 
ATOM      8  O   UNL     1       4.432  -3.743  26.537  0.00  0.00    +0.042 OA
ATOM      9  O   UNL     1       3.108  -3.115  24.903  0.00  0.00    -0.576 OA
ENDBRANCH   5   7
BRANCH   1  10
ATOM     10  C   UNL     1       8.896  -3.446  23.855  0.00  0.00    +0.193 C 
ATOM     11  O   UNL     1       9.713  -4.177  24.411  0.00  0.00    -0.287 OA
BRANCH  10  16
ATOM     12  C   UNL     1      10.139   1.922  22.063  0.00  0.00    +0.044 C 
ATOM     13  C   UNL     1       9.930   0.505  22.502  0.00  0.00    -0.050 A 
ATOM     14  C   UNL     1      10.150   0.148  23.838  0.00  0.00    +0.004 A 
ATOM     15  C   UNL     1       9.870  -1.148  24.282  0.00  0.00    +0.012 A 
ATOM     16  C   UNL     1       9.317  -2.091  23.408  0.00  0.00    +0.022 A 
ATOM     17  C   UNL     1       9.160  -1.755  22.058  0.00  0.00    +0.012 A 
ATOM     18  C   UNL     1       9.459  -0.464  21.609  0.00  0.00    +0.004 A 
ENDBRANCH  10  16
ENDBRANCH   1  10
BRANCH   3  19
ATOM     19  O   UNL     1       5.561  -5.968  21.313  0.00  0.00    -0.503 OA
ATOM     20  H   UNL     1       5.963  -6.842  21.499  0.00  0.00    +0.292 HD
ENDBRANCH   3  19
BRANCH   4  21
ATOM     21  O   UNL     1       3.590  -5.215  22.934  0.00  0.00    -0.499 OA
ATOM     22  H   UNL     1       3.410  -5.009  21.990  0.00  0.00    +0.293 HD
ENDBRANCH   4  21
TORSDOF 5
ENDMDL
MODEL 8
REMARK VINA RESULT:      -6.5      2.360      3.401
REMARK  Name = 
REMARK  6 active torsions:
REMARK  status: ('A' for Active; 'I' for Inactive)
REMARK    1  A    between atoms: C_1  and  C_2
REMARK    2  A    between atoms: C_5  and  C_8
REMARK    3  A    between atoms: C_8  and  C_10
REMARK    4  A    between atoms: C_12  and  N_18
REMARK    5  A    between atoms: C_13  and  O_14
REMARK    6  A    between atoms: C_15  and  O_16
REMARK                            x       y       z     vdW  Elec       q    Type
REMARK                         _______ _______ _______ _____ _____    ______ ____
ROOT
ATOM      1  C   UNL     1       7.940  -4.586  25.275  0.00  0.00    +0.032 A 
ATOM      2  C   UNL     1       7.770  -4.626  26.663  0.00  0.00    +0.061 A 
ATOM      3  C   UNL     1       6.690  -5.316  27.201  0.00  0.00    +0.166 A 
ATOM      4  C   UNL     1       5.725  -5.915  26.392  0.00  0.00    +0.237 A 
ATOM      5  C   UNL     1       5.849  -5.804  25.004  0.00  0.00    +0.318 A 
ATOM      6  C   UNL     1       6.958  -5.148  24.441  0.00  0.00    +0.100 A 
ENDROOT
BRANCH   5   7
ATOM      7  N   UNL     1       4.831  -6.369  24.117  0.00  0.00    +0.084 N 
ATOM      8  O   UNL     1       4.497  -5.691  23.132  0.00  0.00    +0.042 OA
ATOM      9  O   UNL     1       4.366  -7.481  24.394  0.00  0.00    -0.576 OA
ENDBRANCH   5   7
BRANCH   1  10
ATOM     10  C   UNL     1       9.126  -3.949  24.637  0.00  0.00    +0.193 C 
ATOM     11  O   UNL     1      10.202  -4.544  24.678  0.00  0.00    -0.287 OA
BRANCH  10  16
ATOM     12  C   UNL     1       8.833   0.977  21.600  0.00  0.00    +0.044 C 
ATOM     13  C   UNL     1       8.945  -0.232  22.478  0.00  0.00    -0.050 A 
ATOM     14  C   UNL     1       7.842  -0.653  23.230  0.00  0.00    +0.004 A 
ATOM     15  C   UNL     1       7.902  -1.831  23.981  0.00  0.00    +0.012 A 
ATOM     16  C   UNL     1       9.049  -2.632  23.949  0.00  0.00    +0.022 A 
ATOM     17  C   UNL     1      10.175  -2.178  23.251  0.00  0.00    +0.012 A 
ATOM     18  C   UNL     1      10.122  -0.989  22.515  0.00  0.00    +0.004 A 
ENDBRANCH  10  16
ENDBRANCH   1  10
BRANCH   3  19
ATOM     19  O   UNL     1       6.595  -5.410  28.560  0.00  0.00    -0.503 OA
ATOM     20  H   UNL     1       7.385  -5.919  28.840  0.00  0.00    +0.292 HD
ENDBRANCH   3  19
BRANCH   4  21
ATOM     21  O   UNL     1       4.729  -6.575  27.064  0.00  0.00    -0.499 OA
ATOM     22  H   UNL     1       5.057  -6.856  27.946  0.00  0.00    +0.293 HD
ENDBRANCH   4  21
TORSDOF 5
ENDMDL
MODEL 9
REMARK VINA RESULT:      -6.5      3.305      6.532
REMARK  Name = 
REMARK  6 active torsions:
REMARK  status: ('A' for Active; 'I' for Inactive)
REMARK    1  A    between atoms: C_1  and  C_2
REMARK    2  A    between atoms: C_5  and  C_8
REMARK    3  A    between atoms: C_8  and  C_10
REMARK    4  A    between atoms: C_12  and  N_18
REMARK    5  A    between atoms: C_13  and  O_14
REMARK    6  A    between atoms: C_15  and  O_16
REMARK                            x       y       z     vdW  Elec       q    Type
REMARK                         _______ _______ _______ _____ _____    ______ ____
ROOT
ATOM      1  C   UNL     1       8.963  -2.879  24.751  0.00  0.00    +0.032 A 
ATOM      2  C   UNL     1       8.790  -2.282  26.005  0.00  0.00    +0.061 A 
ATOM      3  C   UNL     1       8.912  -0.904  26.129  0.00  0.00    +0.166 A 
ATOM      4  C   UNL     1       9.271  -0.098  25.050  0.00  0.00    +0.237 A 
ATOM      5  C   UNL     1       9.526  -0.702  23.815  0.00  0.00    +0.318 A 
ATOM      6  C   UNL     1       9.365  -2.091  23.660  0.00  0.00    +0.100 A 
ENDROOT
BRANCH   5   7
ATOM      7  N   UNL     1       9.960   0.097  22.669  0.00  0.00    +0.084 N 
ATOM      8  O   UNL     1       9.749  -0.372  21.538  0.00  0.00    +0.042 OA
ATOM      9  O   UNL     1      10.504   1.185  22.887  0.00  0.00    -0.576 OA
ENDBRANCH   5   7
BRANCH   1  10
ATOM     10  C   UNL     1       8.751  -4.337  24.528  0.00  0.00    +0.193 C 
ATOM     11  O   UNL     1       9.703  -5.097  24.693  0.00  0.00    -0.287 OA
BRANCH  10  16
ATOM     12  C   UNL     1       3.454  -6.157  23.043  0.00  0.00    +0.044 C 
ATOM     13  C   UNL     1       4.856  -5.801  23.435  0.00  0.00    -0.050 A 
ATOM     14  C   UNL     1       5.834  -5.627  22.450  0.00  0.00    +0.004 A 
ATOM     15  C   UNL     1       7.121  -5.204  22.794  0.00  0.00    +0.012 A 
ATOM     16  C   UNL     1       7.433  -4.898  24.123  0.00  0.00    +0.022 A 
ATOM     17  C   UNL     1       6.477  -5.135  25.117  0.00  0.00    +0.012 A 
ATOM     18  C   UNL     1       5.194  -5.577  24.775  0.00  0.00    +0.004 A 
ENDBRANCH  10  16
ENDBRANCH   1  10
BRANCH   3  19
ATOM     19  O   UNL     1       8.655  -0.339  27.346  0.00  0.00    -0.503 OA
ATOM     20  H   UNL     1       8.345  -1.075  27.914  0.00  0.00    +0.292 HD
ENDBRANCH   3  19
BRANCH   4  21
ATOM     21  O   UNL     1       9.333   1.245  25.319  0.00  0.00    -0.499 OA
ATOM     22  H   UNL     1       8.446   1.567  25.592  0.00  0.00    +0.293 HD
ENDBRANCH   4  21
TORSDOF 5
ENDMDL
