MODEL 1
REMARK VINA RESULT:      -7.0      0.000      0.000
REMARK  Name = 
REMARK  17 active torsions:
REMARK  status: ('A' for Active; 'I' for Inactive)
REMARK    1  A    between atoms: C_1  and  C_2
REMARK    2  A    between atoms: C_2  and  C_3
REMARK    3  A    between atoms: C_2  and  C_4
REMARK    4  A    between atoms: C_4  and  N_6
REMARK    5  A    between atoms: C_4  and  C_22
REMARK    6  A    between atoms: C_7  and  C_9
REMARK    7  A    between atoms: C_12  and  C_15
REMARK    8  A    between atoms: N_17  and  C_18
REMARK    9  A    between atoms: C_18  and  C_19
REMARK   10  A    between atoms: C_19  and  O_20
REMARK   11  A    between atoms: C_28  and  C_30
REMARK   12  A    between atoms: N_32  and  C_33
REMARK   13  A    between atoms: C_33  and  C_35
REMARK   14  A    between atoms: C_33  and  C_38
REMARK   15  A    between atoms: C_35  and  C_36
REMARK   16  A    between atoms: C_35  and  C_37
REMARK   17  A    between atoms: C_38  and  C_40
REMARK                            x       y       z     vdW  Elec       q    Type
REMARK                         _______ _______ _______ _____ _____    ______ ____
ROOT
ATOM      1  C   UNL     1       7.824  -3.454  25.105  0.00  0.00    +0.162 C 
ENDROOT
BRANCH   1   2
ATOM      2  C   UNL     1       7.149  -4.305  24.006  0.00  0.00    +0.237 C 
ATOM      3  N   UNL     1       5.968  -4.993  24.282  0.00  0.00    -0.288 N 
ATOM      4  C   UNL     1       4.967  -4.902  25.393  0.00  0.00    +0.162 C 
ATOM      5  C   UNL     1       3.603  -5.035  24.627  0.00  0.00    +0.033 C 
ATOM      6  C   UNL     1       3.959  -5.064  23.144  0.00  0.00    +0.021 C 
ATOM      7  C   UNL     1       5.337  -5.679  23.164  0.00  0.00    +0.109 C 
ATOM      8  O   UNL     1       7.647  -4.326  22.873  0.00  0.00    -0.274 OA
BRANCH   4   9
ATOM      9  C   UNL     1       4.804  -3.788  26.484  0.00  0.00    +0.234 C 
ATOM     10  N   UNL     1       4.272  -2.579  26.043  0.00  0.00    -0.304 N 
ATOM     11  H   UNL     1       4.290  -2.402  25.043  0.00  0.00    +0.149 HD
ATOM     12  O   UNL     1       5.159  -3.913  27.655  0.00  0.00    -0.274 OA
BRANCH  10  13
ATOM     13  C   UNL     1       4.289  -1.386  26.919  0.00  0.00    +0.151 C 
BRANCH  13  14
ATOM     14  C   UNL     1       2.885  -0.799  27.193  0.00  0.00    +0.011 C 
ATOM     15  C   UNL     1       2.889   0.039  28.465  0.00  0.00    +0.009 C 
ATOM     16  C   UNL     1       1.776  -1.851  27.279  0.00  0.00    +0.009 C 
ENDBRANCH  13  14
BRANCH  13  17
ATOM     17  C   UNL     1       5.208  -0.315  26.328  0.00  0.00    +0.256 C 
ATOM     18  O   UNL     1       4.888   0.291  25.297  0.00  0.00    -0.286 OA
BRANCH  17  19
ATOM     19  C   UNL     1       6.447   0.015  27.150  0.00  0.00    +0.453 C 
ATOM     20  F   UNL     1       7.153   1.048  26.614  0.00  0.00    -0.163 F 
ATOM     21  F   UNL     1       7.306  -1.034  27.249  0.00  0.00    -0.163 F 
ATOM     22  F   UNL     1       6.154   0.389  28.427  0.00  0.00    -0.163 F 
ENDBRANCH  17  19
ENDBRANCH  13  17
ENDBRANCH  10  13
ENDBRANCH   4   9
ENDBRANCH   1   2
BRANCH   1  23
ATOM     23  N   UNL     1       8.526  -2.249  24.604  0.00  0.00    -0.300 N 
ATOM     24  H   UNL     1       9.413  -2.048  25.037  0.00  0.00    +0.150 HD
ATOM     25  C   UNL     1       7.886  -1.232  23.933  0.00  0.00    +0.245 C 
ATOM     26  O   UNL     1       6.779  -1.362  23.423  0.00  0.00    -0.270 OA
BRANCH  25  27
ATOM     27  C   UNL     1       8.529   0.109  23.850  0.00  0.00    +0.037 A 
ATOM     28  C   UNL     1       7.720   1.142  23.348  0.00  0.00    +0.014 A 
ATOM     29  C   UNL     1       8.190   2.447  23.249  0.00  0.00    +0.014 A 
ATOM     30  C   UNL     1       9.486   2.744  23.677  0.00  0.00    +0.037 A 
ATOM     31  C   UNL     1      10.317   1.717  24.149  0.00  0.00    +0.014 A 
ATOM     32  C   UNL     1       9.841   0.401  24.240  0.00  0.00    +0.014 A 
BRANCH  30  33
ATOM     33  C   UNL     1       9.998   4.134  23.612  0.00  0.00    +0.245 C 
ATOM     34  N   UNL     1      11.366   4.265  23.456  0.00  0.00    -0.301 N 
ATOM     35  H   UNL     1      11.882   3.455  23.132  0.00  0.00    +0.150 HD
ATOM     36  O   UNL     1       9.243   5.094  23.687  0.00  0.00    -0.270 OA
BRANCH  34  37
ATOM     37  C   UNL     1      11.968   5.569  23.167  0.00  0.00    +0.225 C 
BRANCH  37  38
ATOM     38  C   UNL     1      13.355   5.467  22.537  0.00  0.00    +0.322 C 
ATOM     39  O   UNL     1      13.600   5.777  21.381  0.00  0.00    -0.249 OA
BRANCH  38  40
ATOM     40  O   UNL     1      14.294   4.955  23.368  0.00  0.00    -0.480 OA
ATOM     41  H   UNL     1      15.114   4.780  22.861  0.00  0.00    +0.295 HD
ENDBRANCH  38  40
ENDBRANCH  37  38
ENDBRANCH  34  37
ENDBRANCH  30  33
ENDBRANCH  25  27
ENDBRANCH   1  23
BRANCH   1  43
ATOM     42  C   UNL     1       8.145  -5.265  26.950  0.00  0.00    +0.009 C 
ATOM     43  C   UNL     1       8.824  -4.285  25.985  0.00  0.00    +0.012 C 
ATOM     44  C   UNL     1       9.907  -5.032  25.191  0.00  0.00    +0.009 C 
ENDBRANCH   1  43
TORSDOF 13
ENDMDL
MODEL 2
REMARK VINA RESULT:      -6.8      1.940      3.114
REMARK  Name = 
REMARK  17 active torsions:
REMARK  status: ('A' for Active; 'I' for Inactive)
REMARK    1  A    between atoms: C_1  and  C_2
REMARK    2  A    between atoms: C_2  and  C_3
REMARK    3  A    between atoms: C_2  and  C_4
REMARK    4  A    between atoms: C_4  and  N_6
REMARK    5  A    between atoms: C_4  and  C_22
REMARK    6  A    between atoms: C_7  and  C_9
REMARK    7  A    between atoms: C_12  and  C_15
REMARK    8  A    between atoms: N_17  and  C_18
REMARK    9  A    between atoms: C_18  and  C_19
REMARK   10  A    between atoms: C_19  and  O_20
REMARK   11  A    between atoms: C_28  and  C_30
REMARK   12  A    between atoms: N_32  and  C_33
REMARK   13  A    between atoms: C_33  and  C_35
REMARK   14  A    between atoms: C_33  and  C_38
REMARK   15  A    between atoms: C_35  and  C_36
REMARK   16  A    between atoms: C_35  and  C_37
REMARK   17  A    between atoms: C_38  and  C_40
REMARK                            x       y       z     vdW  Elec       q    Type
REMARK                         _______ _______ _______ _____ _____    ______ ____
ROOT
ATOM      1  C   UNL     1       7.980  -3.888  22.972  0.00  0.00    +0.162 C 
ENDROOT
BRANCH   1   2
ATOM      2  C   UNL     1       8.175  -4.890  24.132  0.00  0.00    +0.237 C 
ATOM      3  N   UNL     1       7.966  -4.481  25.450  0.00  0.00    -0.288 N 
ATOM      4  C   UNL     1       7.295  -3.286  26.056  0.00  0.00    +0.162 C 
ATOM      5  C   UNL     1       6.509  -3.918  27.258  0.00  0.00    +0.033 C 
ATOM      6  C   UNL     1       6.712  -5.425  27.143  0.00  0.00    +0.021 C 
ATOM      7  C   UNL     1       8.061  -5.511  26.474  0.00  0.00    +0.109 C 
ATOM      8  O   UNL     1       8.471  -6.062  23.870  0.00  0.00    -0.274 OA
BRANCH   4   9
ATOM      9  C   UNL     1       6.366  -2.225  25.372  0.00  0.00    +0.234 C 
ATOM     10  N   UNL     1       6.812  -0.906  25.421  0.00  0.00    -0.304 N 
ATOM     11  H   UNL     1       7.526  -0.684  26.108  0.00  0.00    +0.149 HD
ATOM     12  O   UNL     1       5.280  -2.488  24.859  0.00  0.00    -0.274 OA
BRANCH  10  13
ATOM     13  C   UNL     1       5.919   0.204  25.022  0.00  0.00    +0.151 C 
BRANCH  13  14
ATOM     14  C   UNL     1       6.659   1.383  24.349  0.00  0.00    +0.011 C 
ATOM     15  C   UNL     1       6.841   2.535  25.328  0.00  0.00    +0.009 C 
ATOM     16  C   UNL     1       5.982   1.898  23.076  0.00  0.00    +0.009 C 
ENDBRANCH  13  14
BRANCH  13  17
ATOM     17  C   UNL     1       5.123   0.697  26.232  0.00  0.00    +0.256 C 
ATOM     18  O   UNL     1       3.999   1.195  26.088  0.00  0.00    -0.286 OA
BRANCH  17  19
ATOM     19  C   UNL     1       5.756   0.424  27.590  0.00  0.00    +0.453 C 
ATOM     20  F   UNL     1       5.370  -0.778  28.099  0.00  0.00    -0.163 F 
ATOM     21  F   UNL     1       5.433   1.363  28.519  0.00  0.00    -0.163 F 
ATOM     22  F   UNL     1       7.117   0.388  27.545  0.00  0.00    -0.163 F 
ENDBRANCH  17  19
ENDBRANCH  13  17
ENDBRANCH  10  13
ENDBRANCH   4   9
ENDBRANCH   1   2
BRANCH   1  23
ATOM     23  N   UNL     1       8.286  -2.480  23.319  0.00  0.00    -0.300 N 
ATOM     24  H   UNL     1       7.505  -1.846  23.305  0.00  0.00    +0.150 HD
ATOM     25  C   UNL     1       9.554  -1.949  23.248  0.00  0.00    +0.245 C 
ATOM     26  O   UNL     1      10.565  -2.640  23.202  0.00  0.00    -0.270 OA
BRANCH  25  27
ATOM     27  C   UNL     1       9.726  -0.471  23.178  0.00  0.00    +0.037 A 
ATOM     28  C   UNL     1      10.153   0.149  24.366  0.00  0.00    +0.014 A 
ATOM     29  C   UNL     1      10.382   1.519  24.425  0.00  0.00    +0.014 A 
ATOM     30  C   UNL     1      10.205   2.295  23.277  0.00  0.00    +0.037 A 
ATOM     31  C   UNL     1       9.746   1.696  22.094  0.00  0.00    +0.014 A 
ATOM     32  C   UNL     1       9.509   0.314  22.041  0.00  0.00    +0.014 A 
BRANCH  30  33
ATOM     33  C   UNL     1      10.474   3.753  23.308  0.00  0.00    +0.245 C 
ATOM     34  N   UNL     1      11.788   4.127  23.097  0.00  0.00    -0.301 N 
ATOM     35  H   UNL     1      12.411   3.444  22.680  0.00  0.00    +0.150 HD
ATOM     36  O   UNL     1       9.576   4.561  23.503  0.00  0.00    -0.270 OA
BRANCH  34  37
ATOM     37  C   UNL     1      12.146   5.533  22.893  0.00  0.00    +0.225 C 
BRANCH  37  38
ATOM     38  C   UNL     1      13.612   5.734  22.516  0.00  0.00    +0.322 C 
ATOM     39  O   UNL     1      13.988   6.499  21.640  0.00  0.00    -0.249 OA
BRANCH  38  40
ATOM     40  O   UNL     1      14.467   4.949  23.214  0.00  0.00    -0.480 OA
ATOM     41  H   UNL     1      15.210   4.685  22.634  0.00  0.00    +0.295 HD
ENDBRANCH  38  40
ENDBRANCH  37  38
ENDBRANCH  34  37
ENDBRANCH  30  33
ENDBRANCH  25  27
ENDBRANCH   1  23
BRANCH   1  43
ATOM     42  C   UNL     1       6.093  -2.648  21.672  0.00  0.00    +0.009 C 
ATOM     43  C   UNL     1       6.535  -3.947  22.358  0.00  0.00    +0.012 C 
ATOM     44  C   UNL     1       6.294  -5.126  21.403  0.00  0.00    +0.009 C 
ENDBRANCH   1  43
TORSDOF 13
ENDMDL
MODEL 3
REMARK VINA RESULT:      -6.5      2.189      4.821
REMARK  Name = 
REMARK  17 active torsions:
REMARK  status: ('A' for Active; 'I' for Inactive)
REMARK    1  A    between atoms: C_1  and  C_2
REMARK    2  A    between atoms: C_2  and  C_3
REMARK    3  A    between atoms: C_2  and  C_4
REMARK    4  A    between atoms: C_4  and  N_6
REMARK    5  A    between atoms: C_4  and  C_22
REMARK    6  A    between atoms: C_7  and  C_9
REMARK    7  A    between atoms: C_12  and  C_15
REMARK    8  A    between atoms: N_17  and  C_18
REMARK    9  A    between atoms: C_18  and  C_19
REMARK   10  A    between atoms: C_19  and  O_20
REMARK   11  A    between atoms: C_28  and  C_30
REMARK   12  A    between atoms: N_32  and  C_33
REMARK   13  A    between atoms: C_33  and  C_35
REMARK   14  A    between atoms: C_33  and  C_38
REMARK   15  A    between atoms: C_35  and  C_36
REMARK   16  A    between atoms: C_35  and  C_37
REMARK   17  A    between atoms: C_38  and  C_40
REMARK                            x       y       z     vdW  Elec       q    Type
REMARK                         _______ _______ _______ _____ _____    ______ ____
ROOT
ATOM      1  C   UNL     1       4.285  -1.495  26.620  0.00  0.00    +0.162 C 
ENDROOT
BRANCH   1   2
ATOM      2  C   UNL     1       4.636  -2.469  27.766  0.00  0.00    +0.237 C 
ATOM      3  N   UNL     1       4.807  -3.828  27.500  0.00  0.00    -0.288 N 
ATOM      4  C   UNL     1       5.005  -4.605  26.234  0.00  0.00    +0.162 C 
ATOM      5  C   UNL     1       6.105  -5.645  26.648  0.00  0.00    +0.033 C 
ATOM      6  C   UNL     1       6.512  -5.277  28.072  0.00  0.00    +0.021 C 
ATOM      7  C   UNL     1       5.245  -4.660  28.611  0.00  0.00    +0.109 C 
ATOM      8  O   UNL     1       4.807  -2.019  28.906  0.00  0.00    -0.274 OA
BRANCH   4   9
ATOM      9  C   UNL     1       5.350  -4.079  24.798  0.00  0.00    +0.234 C 
ATOM     10  N   UNL     1       6.660  -4.287  24.374  0.00  0.00    -0.304 N 
ATOM     11  H   UNL     1       7.351  -4.496  25.089  0.00  0.00    +0.149 HD
ATOM     12  O   UNL     1       4.561  -3.469  24.079  0.00  0.00    -0.274 OA
BRANCH  10  13
ATOM     13  C   UNL     1       7.165  -3.634  23.146  0.00  0.00    +0.151 C 
BRANCH  13  14
ATOM     14  C   UNL     1       7.129  -4.548  21.899  0.00  0.00    +0.011 C 
ATOM     15  C   UNL     1       5.926  -4.219  21.024  0.00  0.00    +0.009 C 
ATOM     16  C   UNL     1       7.129  -6.044  22.224  0.00  0.00    +0.009 C 
ENDBRANCH  13  14
BRANCH  13  17
ATOM     17  C   UNL     1       8.584  -3.107  23.378  0.00  0.00    +0.256 C 
ATOM     18  O   UNL     1       9.389  -3.746  24.067  0.00  0.00    -0.286 OA
BRANCH  17  19
ATOM     19  C   UNL     1       8.944  -1.837  22.620  0.00  0.00    +0.453 C 
ATOM     20  F   UNL     1      10.040  -1.225  23.146  0.00  0.00    -0.163 F 
ATOM     21  F   UNL     1       7.942  -0.917  22.628  0.00  0.00    -0.163 F 
ATOM     22  F   UNL     1       9.240  -2.065  21.310  0.00  0.00    -0.163 F 
ENDBRANCH  17  19
ENDBRANCH  13  17
ENDBRANCH  10  13
ENDBRANCH   4   9
ENDBRANCH   1   2
BRANCH   1  23
ATOM     23  N   UNL     1       5.215  -0.349  26.482  0.00  0.00    -0.300 N 
ATOM     24  H   UNL     1       4.785   0.560  26.434  0.00  0.00    +0.150 HD
ATOM     25  C   UNL     1       6.506  -0.482  26.023  0.00  0.00    +0.245 C 
ATOM     26  O   UNL     1       7.094  -1.557  25.987  0.00  0.00    -0.270 OA
BRANCH  25  27
ATOM     27  C   UNL     1       7.223   0.714  25.499  0.00  0.00    +0.037 A 
ATOM     28  C   UNL     1       8.611   0.566  25.331  0.00  0.00    +0.014 A 
ATOM     29  C   UNL     1       9.392   1.596  24.820  0.00  0.00    +0.014 A 
ATOM     30  C   UNL     1       8.785   2.797  24.445  0.00  0.00    +0.037 A 
ATOM     31  C   UNL     1       7.405   2.971  24.638  0.00  0.00    +0.014 A 
ATOM     32  C   UNL     1       6.623   1.932  25.161  0.00  0.00    +0.014 A 
BRANCH  30  33
ATOM     33  C   UNL     1       9.592   3.898  23.867  0.00  0.00    +0.245 C 
ATOM     34  N   UNL     1      10.880   3.566  23.487  0.00  0.00    -0.301 N 
ATOM     35  H   UNL     1      11.096   2.582  23.370  0.00  0.00    +0.150 HD
ATOM     36  O   UNL     1       9.131   5.024  23.738  0.00  0.00    -0.270 OA
BRANCH  34  37
ATOM     37  C   UNL     1      11.701   4.501  22.715  0.00  0.00    +0.225 C 
BRANCH  37  38
ATOM     38  C   UNL     1      12.712   5.263  23.568  0.00  0.00    +0.322 C 
ATOM     39  O   UNL     1      12.401   6.093  24.409  0.00  0.00    -0.249 OA
BRANCH  38  40
ATOM     40  O   UNL     1      14.002   4.968  23.278  0.00  0.00    -0.480 OA
ATOM     41  H   UNL     1      14.544   5.780  23.351  0.00  0.00    +0.295 HD
ENDBRANCH  38  40
ENDBRANCH  37  38
ENDBRANCH  34  37
ENDBRANCH  30  33
ENDBRANCH  25  27
ENDBRANCH   1  23
BRANCH   1  43
ATOM     42  C   UNL     1       1.793  -1.967  27.215  0.00  0.00    +0.009 C 
ATOM     43  C   UNL     1       2.820  -0.938  26.726  0.00  0.00    +0.012 C 
ATOM     44  C   UNL     1       2.682   0.344  27.561  0.00  0.00    +0.009 C 
ENDBRANCH   1  43
TORSDOF 13
ENDMDL
MODEL 4
REMARK VINA RESULT:      -6.3      1.727      2.392
REMARK  Name = 
REMARK  17 active torsions:
REMARK  status: ('A' for Active; 'I' for Inactive)
REMARK    1  A    between atoms: C_1  and  C_2
REMARK    2  A    between atoms: C_2  and  C_3
REMARK    3  A    between atoms: C_2  and  C_4
REMARK    4  A    between atoms: C_4  and  N_6
REMARK    5  A    between atoms: C_4  and  C_22
REMARK    6  A    between atoms: C_7  and  C_9
REMARK    7  A    between atoms: C_12  and  C_15
REMARK    8  A    between atoms: N_17  and  C_18
REMARK    9  A    between atoms: C_18  and  C_19
REMARK   10  A    between atoms: C_19  and  O_20
REMARK   11  A    between atoms: C_28  and  C_30
REMARK   12  A    between atoms: N_32  and  C_33
REMARK   13  A    between atoms: C_33  and  C_35
REMARK   14  A    between atoms: C_33  and  C_38
REMARK   15  A    between atoms: C_35  and  C_36
REMARK   16  A    between atoms: C_35  and  C_37
REMARK   17  A    between atoms: C_38  and  C_40
REMARK                            x       y       z     vdW  Elec       q    Type
REMARK                         _______ _______ _______ _____ _____    ______ ____
ROOT
ATOM      1  C   UNL     1       7.594  -3.158  24.250  0.00  0.00    +0.162 C 
ENDROOT
BRANCH   1   2
ATOM      2  C   UNL     1       6.806  -3.872  23.129  0.00  0.00    +0.237 C 
ATOM      3  N   UNL     1       6.084  -5.032  23.413  0.00  0.00    -0.288 N 
ATOM      4  C   UNL     1       5.632  -5.668  24.692  0.00  0.00    +0.162 C 
ATOM      5  C   UNL     1       4.175  -6.132  24.339  0.00  0.00    +0.033 C 
ATOM      6  C   UNL     1       3.898  -5.604  22.935  0.00  0.00    +0.021 C 
ATOM      7  C   UNL     1       5.280  -5.580  22.330  0.00  0.00    +0.109 C 
ATOM      8  O   UNL     1       6.791  -3.376  21.996  0.00  0.00    -0.274 OA
BRANCH   4   9
ATOM      9  C   UNL     1       5.613  -5.065  26.139  0.00  0.00    +0.234 C 
ATOM     10  N   UNL     1       4.397  -4.529  26.558  0.00  0.00    -0.304 N 
ATOM     11  H   UNL     1       3.715  -4.311  25.838  0.00  0.00    +0.149 HD
ATOM     12  O   UNL     1       6.598  -5.003  26.873  0.00  0.00    -0.274 OA
BRANCH  10  13
ATOM     13  C   UNL     1       4.317  -3.730  27.800  0.00  0.00    +0.151 C 
BRANCH  13  14
ATOM     14  C   UNL     1       3.807  -4.530  29.020  0.00  0.00    +0.011 C 
ATOM     15  C   UNL     1       4.948  -4.833  29.983  0.00  0.00    +0.009 C 
ATOM     16  C   UNL     1       3.091  -5.833  28.654  0.00  0.00    +0.009 C 
ENDBRANCH  13  14
BRANCH  13  17
ATOM     17  C   UNL     1       3.443  -2.494  27.572  0.00  0.00    +0.256 C 
ATOM     18  O   UNL     1       2.222  -2.541  27.766  0.00  0.00    -0.286 OA
BRANCH  17  19
ATOM     19  C   UNL     1       4.191  -1.217  27.214  0.00  0.00    +0.453 C 
ATOM     20  F   UNL     1       5.295  -1.040  27.990  0.00  0.00    -0.163 F 
ATOM     21  F   UNL     1       3.428  -0.101  27.362  0.00  0.00    -0.163 F 
ATOM     22  F   UNL     1       4.637  -1.204  25.927  0.00  0.00    -0.163 F 
ENDBRANCH  17  19
ENDBRANCH  13  17
ENDBRANCH  10  13
ENDBRANCH   4   9
ENDBRANCH   1   2
BRANCH   1  23
ATOM     23  N   UNL     1       7.657  -1.684  24.111  0.00  0.00    -0.300 N 
ATOM     24  H   UNL     1       7.842  -1.339  23.184  0.00  0.00    +0.150 HD
ATOM     25  C   UNL     1       7.883  -0.840  25.175  0.00  0.00    +0.245 C 
ATOM     26  O   UNL     1       7.742  -1.184  26.342  0.00  0.00    -0.270 OA
BRANCH  25  27
ATOM     27  C   UNL     1       8.366   0.546  24.919  0.00  0.00    +0.037 A 
ATOM     28  C   UNL     1       9.534   0.651  24.145  0.00  0.00    +0.014 A 
ATOM     29  C   UNL     1      10.071   1.888  23.808  0.00  0.00    +0.014 A 
ATOM     30  C   UNL     1       9.427   3.054  24.227  0.00  0.00    +0.037 A 
ATOM     31  C   UNL     1       8.278   2.965  25.030  0.00  0.00    +0.014 A 
ATOM     32  C   UNL     1       7.744   1.715  25.374  0.00  0.00    +0.014 A 
BRANCH  30  33
ATOM     33  C   UNL     1       9.962   4.385  23.853  0.00  0.00    +0.245 C 
ATOM     34  N   UNL     1      11.294   4.415  23.482  0.00  0.00    -0.301 N 
ATOM     35  H   UNL     1      11.733   3.536  23.230  0.00  0.00    +0.150 HD
ATOM     36  O   UNL     1       9.254   5.383  23.872  0.00  0.00    -0.270 OA
BRANCH  34  37
ATOM     37  C   UNL     1      11.882   5.620  22.891  0.00  0.00    +0.225 C 
BRANCH  37  38
ATOM     38  C   UNL     1      13.331   5.429  22.448  0.00  0.00    +0.322 C 
ATOM     39  O   UNL     1      13.748   5.738  21.341  0.00  0.00    -0.249 OA
BRANCH  38  40
ATOM     40  O   UNL     1      14.114   4.840  23.382  0.00  0.00    -0.480 OA
ATOM     41  H   UNL     1      14.089   3.869  23.259  0.00  0.00    +0.295 HD
ENDBRANCH  38  40
ENDBRANCH  37  38
ENDBRANCH  34  37
ENDBRANCH  30  33
ENDBRANCH  25  27
ENDBRANCH   1  23
BRANCH   1  43
ATOM     42  C   UNL     1      10.139  -2.776  23.846  0.00  0.00    +0.009 C 
ATOM     43  C   UNL     1       9.057  -3.708  24.407  0.00  0.00    +0.012 C 
ATOM     44  C   UNL     1       9.438  -4.115  25.838  0.00  0.00    +0.009 C 
ENDBRANCH   1  43
TORSDOF 13
ENDMDL
MODEL 5
REMARK VINA RESULT:      -6.2      2.671      4.669
REMARK  Name = 
REMARK  17 active torsions:
REMARK  status: ('A' for Active; 'I' for Inactive)
REMARK    1  A    between atoms: C_1  and  C_2
REMARK    2  A    between atoms: C_2  and  C_3
REMARK    3  A    between atoms: C_2  and  C_4
REMARK    4  A    between atoms: C_4  and  N_6
REMARK    5  A    between atoms: C_4  and  C_22
REMARK    6  A    between atoms: C_7  and  C_9
REMARK    7  A    between atoms: C_12  and  C_15
REMARK    8  A    between atoms: N_17  and  C_18
REMARK    9  A    between atoms: C_18  and  C_19
REMARK   10  A    between atoms: C_19  and  O_20
REMARK   11  A    between atoms: C_28  and  C_30
REMARK   12  A    between atoms: N_32  and  C_33
REMARK   13  A    between atoms: C_33  and  C_35
REMARK   14  A    between atoms: C_33  and  C_38
REMARK   15  A    between atoms: C_35  and  C_36
REMARK   16  A    between atoms: C_35  and  C_37
REMARK   17  A    between atoms: C_38  and  C_40
REMARK                            x       y       z     vdW  Elec       q    Type
REMARK                         _______ _______ _______ _____ _____    ______ ____
ROOT
ATOM      1  C   UNL     1       5.715  -3.776  25.961  0.00  0.00    +0.162 C 
ENDROOT
BRANCH   1   2
ATOM      2  C   UNL     1       4.961  -4.579  24.877  0.00  0.00    +0.237 C 
ATOM      3  N   UNL     1       5.302  -4.429  23.532  0.00  0.00    -0.288 N 
ATOM      4  C   UNL     1       6.486  -3.826  22.839  0.00  0.00    +0.162 C 
ATOM      5  C   UNL     1       6.756  -4.853  21.683  0.00  0.00    +0.033 C 
ATOM      6  C   UNL     1       5.776  -6.001  21.909  0.00  0.00    +0.021 C 
ATOM      7  C   UNL     1       4.623  -5.302  22.586  0.00  0.00    +0.109 C 
ATOM      8  O   UNL     1       4.090  -5.386  25.224  0.00  0.00    -0.274 OA
BRANCH   4   9
ATOM      9  C   UNL     1       7.869  -3.399  23.442  0.00  0.00    +0.234 C 
ATOM     10  N   UNL     1       8.099  -2.028  23.521  0.00  0.00    -0.304 N 
ATOM     11  H   UNL     1       7.512  -1.426  22.951  0.00  0.00    +0.149 HD
ATOM     12  O   UNL     1       8.745  -4.191  23.786  0.00  0.00    -0.274 OA
BRANCH  10  13
ATOM     13  C   UNL     1       9.446  -1.510  23.849  0.00  0.00    +0.151 C 
BRANCH  13  14
ATOM     14  C   UNL     1       9.430  -0.341  24.861  0.00  0.00    +0.011 C 
ATOM     15  C   UNL     1      10.702   0.490  24.746  0.00  0.00    +0.009 C 
ATOM     16  C   UNL     1       9.237  -0.778  26.315  0.00  0.00    +0.009 C 
ENDBRANCH  13  14
BRANCH  13  17
ATOM     17  C   UNL     1      10.174  -1.095  22.569  0.00  0.00    +0.256 C 
ATOM     18  O   UNL     1      11.202  -1.682  22.209  0.00  0.00    -0.286 OA
BRANCH  17  19
ATOM     19  C   UNL     1       9.486  -0.017  21.741  0.00  0.00    +0.453 C 
ATOM     20  F   UNL     1       8.313   0.385  22.303  0.00  0.00    -0.163 F 
ATOM     21  F   UNL     1       9.192  -0.429  20.479  0.00  0.00    -0.163 F 
ATOM     22  F   UNL     1      10.238   1.111  21.607  0.00  0.00    -0.163 F 
ENDBRANCH  17  19
ENDBRANCH  13  17
ENDBRANCH  10  13
ENDBRANCH   4   9
ENDBRANCH   1   2
BRANCH   1  23
ATOM     23  N   UNL     1       6.081  -2.397  25.558  0.00  0.00    -0.300 N 
ATOM     24  H   UNL     1       7.065  -2.225  25.435  0.00  0.00    +0.150 HD
ATOM     25  C   UNL     1       5.250  -1.316  25.746  0.00  0.00    +0.245 C 
ATOM     26  O   UNL     1       4.049  -1.427  25.962  0.00  0.00    -0.270 OA
BRANCH  25  27
ATOM     27  C   UNL     1       5.825   0.058  25.736  0.00  0.00    +0.037 A 
ATOM     28  C   UNL     1       6.175   0.580  26.994  0.00  0.00    +0.014 A 
ATOM     29  C   UNL     1       6.750   1.840  27.119  0.00  0.00    +0.014 A 
ATOM     30  C   UNL     1       7.006   2.596  25.973  0.00  0.00    +0.037 A 
ATOM     31  C   UNL     1       6.630   2.102  24.714  0.00  0.00    +0.014 A 
ATOM     32  C   UNL     1       6.044   0.834  24.593  0.00  0.00    +0.014 A 
BRANCH  30  33
ATOM     33  C   UNL     1       7.648   3.928  26.080  0.00  0.00    +0.245 C 
ATOM     34  N   UNL     1       8.327   4.361  24.955  0.00  0.00    -0.301 N 
ATOM     35  H   UNL     1       8.125   3.897  24.076  0.00  0.00    +0.150 HD
ATOM     36  O   UNL     1       7.568   4.592  27.104  0.00  0.00    -0.270 OA
BRANCH  34  37
ATOM     37  C   UNL     1       8.820   5.737  24.858  0.00  0.00    +0.225 C 
BRANCH  37  38
ATOM     38  C   UNL     1       9.116   6.172  23.425  0.00  0.00    +0.322 C 
ATOM     39  O   UNL     1       8.261   6.569  22.646  0.00  0.00    -0.249 OA
BRANCH  38  40
ATOM     40  O   UNL     1      10.416   6.038  23.072  0.00  0.00    -0.480 OA
ATOM     41  H   UNL     1      10.918   5.660  23.823  0.00  0.00    +0.295 HD
ENDBRANCH  38  40
ENDBRANCH  37  38
ENDBRANCH  34  37
ENDBRANCH  30  33
ENDBRANCH  25  27
ENDBRANCH   1  23
BRANCH   1  43
ATOM     42  C   UNL     1       8.133  -3.562  26.906  0.00  0.00    +0.009 C 
ATOM     43  C   UNL     1       7.009  -4.509  26.466  0.00  0.00    +0.012 C 
ATOM     44  C   UNL     1       6.766  -5.547  27.571  0.00  0.00    +0.009 C 
ENDBRANCH   1  43
TORSDOF 13
ENDMDL
MODEL 6
REMARK VINA RESULT:      -6.2      3.630      9.477
REMARK  Name = 
REMARK  17 active torsions:
REMARK  status: ('A' for Active; 'I' for Inactive)
REMARK    1  A    between atoms: C_1  and  C_2
REMARK    2  A    between atoms: C_2  and  C_3
REMARK    3  A    between atoms: C_2  and  C_4
REMARK    4  A    between atoms: C_4  and  N_6
REMARK    5  A    between atoms: C_4  and  C_22
REMARK    6  A    between atoms: C_7  and  C_9
REMARK    7  A    between atoms: C_12  and  C_15
REMARK    8  A    between atoms: N_17  and  C_18
REMARK    9  A    between atoms: C_18  and  C_19
REMARK   10  A    between atoms: C_19  and  O_20
REMARK   11  A    between atoms: C_28  and  C_30
REMARK   12  A    between atoms: N_32  and  C_33
REMARK   13  A    between atoms: C_33  and  C_35
REMARK   14  A    between atoms: C_33  and  C_38
REMARK   15  A    between atoms: C_35  and  C_36
REMARK   16  A    between atoms: C_35  and  C_37
REMARK   17  A    between atoms: C_38  and  C_40
REMARK                            x       y       z     vdW  Elec       q    Type
REMARK                         _______ _______ _______ _____ _____    ______ ____
ROOT
ATOM      1  C   UNL     1       5.304   0.298  26.464  0.00  0.00    +0.162 C 
ENDROOT
BRANCH   1   2
ATOM      2  C   UNL     1       4.753   1.518  25.692  0.00  0.00    +0.237 C 
ATOM      3  N   UNL     1       5.598   2.262  24.868  0.00  0.00    -0.288 N 
ATOM      4  C   UNL     1       6.958   2.003  24.298  0.00  0.00    +0.162 C 
ATOM      5  C   UNL     1       6.816   2.548  22.832  0.00  0.00    +0.033 C 
ATOM      6  C   UNL     1       5.352   2.949  22.677  0.00  0.00    +0.021 C 
ATOM      7  C   UNL     1       4.978   3.325  24.090  0.00  0.00    +0.109 C 
ATOM      8  O   UNL     1       3.549   1.790  25.779  0.00  0.00    -0.274 OA
BRANCH   4   9
ATOM      9  C   UNL     1       7.764   0.660  24.240  0.00  0.00    +0.234 C 
ATOM     10  N   UNL     1       7.389  -0.231  23.237  0.00  0.00    -0.304 N 
ATOM     11  H   UNL     1       6.478  -0.091  22.810  0.00  0.00    +0.149 HD
ATOM     12  O   UNL     1       8.643   0.348  25.042  0.00  0.00    -0.274 OA
BRANCH  10  13
ATOM     13  C   UNL     1       7.910  -1.616  23.228  0.00  0.00    +0.151 C 
BRANCH  13  14
ATOM     14  C   UNL     1       9.163  -1.800  22.342  0.00  0.00    +0.011 C 
ATOM     15  C   UNL     1      10.390  -2.093  23.195  0.00  0.00    +0.009 C 
ATOM     16  C   UNL     1       9.454  -0.612  21.421  0.00  0.00    +0.009 C 
ENDBRANCH  13  14
BRANCH  13  17
ATOM     17  C   UNL     1       6.808  -2.588  22.800  0.00  0.00    +0.256 C 
ATOM     18  O   UNL     1       5.758  -2.169  22.296  0.00  0.00    -0.286 OA
BRANCH  17  19
ATOM     19  C   UNL     1       7.148  -4.066  22.932  0.00  0.00    +0.453 C 
ATOM     20  F   UNL     1       6.032  -4.839  23.022  0.00  0.00    -0.163 F 
ATOM     21  F   UNL     1       7.900  -4.337  24.033  0.00  0.00    -0.163 F 
ATOM     22  F   UNL     1       7.847  -4.548  21.867  0.00  0.00    -0.163 F 
ENDBRANCH  17  19
ENDBRANCH  13  17
ENDBRANCH  10  13
ENDBRANCH   4   9
ENDBRANCH   1   2
BRANCH   1  23
ATOM     23  N   UNL     1       4.962  -1.013  25.865  0.00  0.00    -0.300 N 
ATOM     24  H   UNL     1       4.032  -1.093  25.488  0.00  0.00    +0.150 HD
ATOM     25  C   UNL     1       5.645  -2.172  26.156  0.00  0.00    +0.245 C 
ATOM     26  O   UNL     1       6.758  -2.179  26.670  0.00  0.00    -0.270 OA
BRANCH  25  27
ATOM     27  C   UNL     1       5.003  -3.488  25.884  0.00  0.00    +0.037 A 
ATOM     28  C   UNL     1       3.851  -3.449  25.080  0.00  0.00    +0.014 A 
ATOM     29  C   UNL     1       3.176  -4.612  24.725  0.00  0.00    +0.014 A 
ATOM     30  C   UNL     1       3.662  -5.847  25.159  0.00  0.00    +0.037 A 
ATOM     31  C   UNL     1       4.791  -5.900  25.991  0.00  0.00    +0.014 A 
ATOM     32  C   UNL     1       5.465  -4.724  26.352  0.00  0.00    +0.014 A 
BRANCH  30  33
ATOM     33  C   UNL     1       2.978  -7.103  24.767  0.00  0.00    +0.245 C 
ATOM     34  N   UNL     1       1.716  -6.956  24.220  0.00  0.00    -0.301 N 
ATOM     35  H   UNL     1       1.456  -6.037  23.877  0.00  0.00    +0.150 HD
ATOM     36  O   UNL     1       3.512  -8.193  24.920  0.00  0.00    -0.270 OA
BRANCH  34  37
ATOM     37  C   UNL     1       1.027  -8.091  23.602  0.00  0.00    +0.225 C 
BRANCH  37  38
ATOM     38  C   UNL     1       0.856  -7.944  22.092  0.00  0.00    +0.322 C 
ATOM     39  O   UNL     1       1.010  -8.861  21.299  0.00  0.00    -0.249 OA
BRANCH  38  40
ATOM     40  O   UNL     1       0.557  -6.683  21.697  0.00  0.00    -0.480 OA
ATOM     41  H   UNL     1      -0.410  -6.607  21.563  0.00  0.00    +0.295 HD
ENDBRANCH  38  40
ENDBRANCH  37  38
ENDBRANCH  34  37
ENDBRANCH  30  33
ENDBRANCH  25  27
ENDBRANCH   1  23
BRANCH   1  43
ATOM     42  C   UNL     1       5.045   1.632  28.687  0.00  0.00    +0.009 C 
ATOM     43  C   UNL     1       4.863   0.288  27.972  0.00  0.00    +0.012 C 
ATOM     44  C   UNL     1       3.434  -0.221  28.217  0.00  0.00    +0.009 C 
ENDBRANCH   1  43
TORSDOF 13
ENDMDL
MODEL 7
REMARK VINA RESULT:      -6.0      3.677      5.028
REMARK  Name = 
REMARK  17 active torsions:
REMARK  status: ('A' for Active; 'I' for Inactive)
REMARK    1  A    between atoms: C_1  and  C_2
REMARK    2  A    between atoms: C_2  and  C_3
REMARK    3  A    between atoms: C_2  and  C_4
REMARK    4  A    between atoms: C_4  and  N_6
REMARK    5  A    between atoms: C_4  and  C_22
REMARK    6  A    between atoms: C_7  and  C_9
REMARK    7  A    between atoms: C_12  and  C_15
REMARK    8  A    between atoms: N_17  and  C_18
REMARK    9  A    between atoms: C_18  and  C_19
REMARK   10  A    between atoms: C_19  and  O_20
REMARK   11  A    between atoms: C_28  and  C_30
REMARK   12  A    between atoms: N_32  and  C_33
REMARK   13  A    between atoms: C_33  and  C_35
REMARK   14  A    between atoms: C_33  and  C_38
REMARK   15  A    between atoms: C_35  and  C_36
REMARK   16  A    between atoms: C_35  and  C_37
REMARK   17  A    between atoms: C_38  and  C_40
REMARK                            x       y       z     vdW  Elec       q    Type
REMARK                         _______ _______ _______ _____ _____    ______ ____
ROOT
ATOM      1  C   UNL     1       7.828  -3.868  23.182  0.00  0.00    +0.162 C 
ENDROOT
BRANCH   1   2
ATOM      2  C   UNL     1       8.466  -4.517  24.431  0.00  0.00    +0.237 C 
ATOM      3  N   UNL     1       7.979  -4.212  25.702  0.00  0.00    -0.288 N 
ATOM      4  C   UNL     1       6.721  -3.557  26.185  0.00  0.00    +0.162 C 
ATOM      5  C   UNL     1       6.336  -4.442  27.423  0.00  0.00    +0.033 C 
ATOM      6  C   UNL     1       7.345  -5.586  27.447  0.00  0.00    +0.021 C 
ATOM      7  C   UNL     1       8.558  -4.949  26.816  0.00  0.00    +0.109 C 
ATOM      8  O   UNL     1       9.377  -5.340  24.281  0.00  0.00    -0.274 OA
BRANCH   4   9
ATOM      9  C   UNL     1       5.408  -3.237  25.390  0.00  0.00    +0.234 C 
ATOM     10  N   UNL     1       4.436  -4.235  25.397  0.00  0.00    -0.304 N 
ATOM     11  H   UNL     1       4.733  -5.170  25.658  0.00  0.00    +0.149 HD
ATOM     12  O   UNL     1       5.227  -2.206  24.745  0.00  0.00    -0.274 OA
BRANCH  10  13
ATOM     13  C   UNL     1       3.264  -4.147  24.498  0.00  0.00    +0.151 C 
BRANCH  13  14
ATOM     14  C   UNL     1       1.980  -3.650  25.201  0.00  0.00    +0.011 C 
ATOM     15  C   UNL     1       2.140  -3.696  26.715  0.00  0.00    +0.009 C 
ATOM     16  C   UNL     1       0.715  -4.413  24.799  0.00  0.00    +0.009 C 
ENDBRANCH  13  14
BRANCH  13  17
ATOM     17  C   UNL     1       3.014  -5.501  23.830  0.00  0.00    +0.256 C 
ATOM     18  O   UNL     1       2.614  -5.564  22.660  0.00  0.00    -0.286 OA
BRANCH  17  19
ATOM     19  C   UNL     1       3.397  -6.722  24.656  0.00  0.00    +0.453 C 
ATOM     20  F   UNL     1       2.917  -7.874  24.114  0.00  0.00    -0.163 F 
ATOM     21  F   UNL     1       2.925  -6.664  25.930  0.00  0.00    -0.163 F 
ATOM     22  F   UNL     1       4.745  -6.894  24.757  0.00  0.00    -0.163 F 
ENDBRANCH  17  19
ENDBRANCH  13  17
ENDBRANCH  10  13
ENDBRANCH   4   9
ENDBRANCH   1   2
BRANCH   1  23
ATOM     23  N   UNL     1       7.584  -2.412  23.306  0.00  0.00    -0.300 N 
ATOM     24  H   UNL     1       6.617  -2.132  23.343  0.00  0.00    +0.150 HD
ATOM     25  C   UNL     1       8.521  -1.462  22.968  0.00  0.00    +0.245 C 
ATOM     26  O   UNL     1       9.713  -1.718  22.840  0.00  0.00    -0.270 OA
BRANCH  25  27
ATOM     27  C   UNL     1       8.083  -0.065  22.695  0.00  0.00    +0.037 A 
ATOM     28  C   UNL     1       6.957   0.371  23.415  0.00  0.00    +0.014 A 
ATOM     29  C   UNL     1       6.466   1.664  23.276  0.00  0.00    +0.014 A 
ATOM     30  C   UNL     1       7.115   2.558  22.422  0.00  0.00    +0.037 A 
ATOM     31  C   UNL     1       8.220   2.126  21.671  0.00  0.00    +0.014 A 
ATOM     32  C   UNL     1       8.708   0.819  21.808  0.00  0.00    +0.014 A 
BRANCH  30  33
ATOM     33  C   UNL     1       6.628   3.951  22.282  0.00  0.00    +0.245 C 
ATOM     34  N   UNL     1       5.274   4.140  22.487  0.00  0.00    -0.301 N 
ATOM     35  H   UNL     1       4.764   3.407  22.968  0.00  0.00    +0.150 HD
ATOM     36  O   UNL     1       7.393   4.866  22.007  0.00  0.00    -0.270 OA
BRANCH  34  37
ATOM     37  C   UNL     1       4.709   5.488  22.587  0.00  0.00    +0.225 C 
BRANCH  37  38
ATOM     38  C   UNL     1       4.970   6.154  23.935  0.00  0.00    +0.322 C 
ATOM     39  O   UNL     1       4.244   6.021  24.909  0.00  0.00    -0.249 OA
BRANCH  38  40
ATOM     40  O   UNL     1       6.066   6.949  23.947  0.00  0.00    -0.480 OA
ATOM     41  H   UNL     1       6.071   7.506  23.142  0.00  0.00    +0.295 HD
ENDBRANCH  38  40
ENDBRANCH  37  38
ENDBRANCH  34  37
ENDBRANCH  30  33
ENDBRANCH  25  27
ENDBRANCH   1  23
BRANCH   1  43
ATOM     42  C   UNL     1       5.674  -3.780  21.720  0.00  0.00    +0.009 C 
ATOM     43  C   UNL     1       6.486  -4.565  22.757  0.00  0.00    +0.012 C 
ATOM     44  C   UNL     1       6.642  -6.016  22.278  0.00  0.00    +0.009 C 
ENDBRANCH   1  43
TORSDOF 13
ENDMDL
MODEL 8
REMARK VINA RESULT:      -5.8      3.366      9.247
REMARK  Name = 
REMARK  17 active torsions:
REMARK  status: ('A' for Active; 'I' for Inactive)
REMARK    1  A    between atoms: C_1  and  C_2
REMARK    2  A    between atoms: C_2  and  C_3
REMARK    3  A    between atoms: C_2  and  C_4
REMARK    4  A    between atoms: C_4  and  N_6
REMARK    5  A    between atoms: C_4  and  C_22
REMARK    6  A    between atoms: C_7  and  C_9
REMARK    7  A    between atoms: C_12  and  C_15
REMARK    8  A    between atoms: N_17  and  C_18
REMARK    9  A    between atoms: C_18  and  C_19
REMARK   10  A    between atoms: C_19  and  O_20
REMARK   11  A    between atoms: C_28  and  C_30
REMARK   12  A    between atoms: N_32  and  C_33
REMARK   13  A    between atoms: C_33  and  C_35
REMARK   14  A    between atoms: C_33  and  C_38
REMARK   15  A    between atoms: C_35  and  C_36
REMARK   16  A    between atoms: C_35  and  C_37
REMARK   17  A    between atoms: C_38  and  C_40
REMARK                            x       y       z     vdW  Elec       q    Type
REMARK                         _______ _______ _______ _____ _____    ______ ____
ROOT
ATOM      1  C   UNL     1       6.936   1.415  27.132  0.00  0.00    +0.162 C 
ENDROOT
BRANCH   1   2
ATOM      2  C   UNL     1       6.530   2.694  26.365  0.00  0.00    +0.237 C 
ATOM      3  N   UNL     1       7.345   3.183  25.343  0.00  0.00    -0.288 N 
ATOM      4  C   UNL     1       8.479   2.588  24.566  0.00  0.00    +0.162 C 
ATOM      5  C   UNL     1       8.183   3.085  23.107  0.00  0.00    +0.033 C 
ATOM      6  C   UNL     1       6.842   3.810  23.178  0.00  0.00    +0.021 C 
ATOM      7  C   UNL     1       6.838   4.325  24.596  0.00  0.00    +0.109 C 
ATOM      8  O   UNL     1       5.456   3.243  26.638  0.00  0.00    -0.274 OA
BRANCH   4   9
ATOM      9  C   UNL     1       8.941   1.092  24.485  0.00  0.00    +0.234 C 
ATOM     10  N   UNL     1       8.280   0.302  23.548  0.00  0.00    -0.304 N 
ATOM     11  H   UNL     1       7.391   0.647  23.196  0.00  0.00    +0.149 HD
ATOM     12  O   UNL     1       9.792   0.593  25.219  0.00  0.00    -0.274 OA
BRANCH  10  13
ATOM     13  C   UNL     1       8.461  -1.166  23.541  0.00  0.00    +0.151 C 
BRANCH  13  14
ATOM     14  C   UNL     1       9.415  -1.667  22.432  0.00  0.00    +0.011 C 
ATOM     15  C   UNL     1      10.816  -1.892  22.985  0.00  0.00    +0.009 C 
ATOM     16  C   UNL     1       9.490  -0.744  21.213  0.00  0.00    +0.009 C 
ENDBRANCH  13  14
BRANCH  13  17
ATOM     17  C   UNL     1       7.102  -1.862  23.428  0.00  0.00    +0.256 C 
ATOM     18  O   UNL     1       6.068  -1.202  23.267  0.00  0.00    -0.286 OA
BRANCH  17  19
ATOM     19  C   UNL     1       7.143  -3.384  23.412  0.00  0.00    +0.453 C 
ATOM     20  F   UNL     1       5.959  -3.929  23.804  0.00  0.00    -0.163 F 
ATOM     21  F   UNL     1       8.099  -3.894  24.234  0.00  0.00    -0.163 F 
ATOM     22  F   UNL     1       7.394  -3.896  22.174  0.00  0.00    -0.163 F 
ENDBRANCH  17  19
ENDBRANCH  13  17
ENDBRANCH  10  13
ENDBRANCH   4   9
ENDBRANCH   1   2
BRANCH   1  23
ATOM     23  N   UNL     1       6.250   0.183  26.676  0.00  0.00    -0.300 N 
ATOM     24  H   UNL     1       5.252   0.255  26.561  0.00  0.00    +0.150 HD
ATOM     25  C   UNL     1       6.799  -1.072  26.803  0.00  0.00    +0.245 C 
ATOM     26  O   UNL     1       7.994  -1.260  27.003  0.00  0.00    -0.270 OA
BRANCH  25  27
ATOM     27  C   UNL     1       5.914  -2.269  26.742  0.00  0.00    +0.037 A 
ATOM     28  C   UNL     1       6.512  -3.487  27.110  0.00  0.00    +0.014 A 
ATOM     29  C   UNL     1       5.786  -4.673  27.127  0.00  0.00    +0.014 A 
ATOM     30  C   UNL     1       4.430  -4.653  26.793  0.00  0.00    +0.037 A 
ATOM     31  C   UNL     1       3.828  -3.450  26.391  0.00  0.00    +0.014 A 
ATOM     32  C   UNL     1       4.566  -2.258  26.368  0.00  0.00    +0.014 A 
BRANCH  30  33
ATOM     33  C   UNL     1       3.628  -5.900  26.835  0.00  0.00    +0.245 C 
ATOM     34  N   UNL     1       2.642  -6.014  25.871  0.00  0.00    -0.301 N 
ATOM     35  H   UNL     1       2.702  -5.405  25.063  0.00  0.00    +0.150 HD
ATOM     36  O   UNL     1       3.841  -6.765  27.673  0.00  0.00    -0.270 OA
BRANCH  34  37
ATOM     37  C   UNL     1       1.927  -7.277  25.673  0.00  0.00    +0.225 C 
BRANCH  37  38
ATOM     38  C   UNL     1       2.318  -7.996  24.384  0.00  0.00    +0.322 C 
ATOM     39  O   UNL     1       1.535  -8.642  23.704  0.00  0.00    -0.249 OA
BRANCH  38  40
ATOM     40  O   UNL     1       3.633  -7.892  24.079  0.00  0.00    -0.480 OA
ATOM     41  H   UNL     1       4.165  -8.275  24.807  0.00  0.00    +0.295 HD
ENDBRANCH  38  40
ENDBRANCH  37  38
ENDBRANCH  34  37
ENDBRANCH  30  33
ENDBRANCH  25  27
ENDBRANCH   1  23
BRANCH   1  43
ATOM     42  C   UNL     1       5.473   0.863  29.216  0.00  0.00    +0.009 C 
ATOM     43  C   UNL     1       6.736   1.552  28.683  0.00  0.00    +0.012 C 
ATOM     44  C   UNL     1       7.942   1.108  29.525  0.00  0.00    +0.009 C 
ENDBRANCH   1  43
TORSDOF 13
ENDMDL
MODEL 9
REMARK VINA RESULT:      -5.8      3.054      8.653
REMARK  Name = 
REMARK  17 active torsions:
REMARK  status: ('A' for Active; 'I' for Inactive)
REMARK    1  A    between atoms: C_1  and  C_2
REMARK    2  A    between atoms: C_2  and  C_3
REMARK    3  A    between atoms: C_2  and  C_4
REMARK    4  A    between atoms: C_4  and  N_6
REMARK    5  A    between atoms: C_4  and  C_22
REMARK    6  A    between atoms: C_7  and  C_9
REMARK    7  A    between atoms: C_12  and  C_15
REMARK    8  A    between atoms: N_17  and  C_18
REMARK    9  A    between atoms: C_18  and  C_19
REMARK   10  A    between atoms: C_19  and  O_20
REMARK   11  A    between atoms: C_28  and  C_30
REMARK   12  A    between atoms: N_32  and  C_33
REMARK   13  A    between atoms: C_33  and  C_35
REMARK   14  A    between atoms: C_33  and  C_38
REMARK   15  A    between atoms: C_35  and  C_36
REMARK   16  A    between atoms: C_35  and  C_37
REMARK   17  A    between atoms: C_38  and  C_40
REMARK                            x       y       z     vdW  Elec       q    Type
REMARK                         _______ _______ _______ _____ _____    ______ ____
ROOT
ATOM      1  C   UNL     1       9.012  -1.908  24.196  0.00  0.00    +0.162 C 
ENDROOT
BRANCH   1   2
ATOM      2  C   UNL     1       9.564  -0.977  23.094  0.00  0.00    +0.237 C 
ATOM      3  N   UNL     1       8.698  -0.142  22.387  0.00  0.00    -0.288 N 
ATOM      4  C   UNL     1       7.287   0.303  22.623  0.00  0.00    +0.162 C 
ATOM      5  C   UNL     1       7.345   1.822  22.236  0.00  0.00    +0.033 C 
ATOM      6  C   UNL     1       8.811   2.120  21.937  0.00  0.00    +0.021 C 
ATOM      7  C   UNL     1       9.309   0.784  21.445  0.00  0.00    +0.109 C 
ATOM      8  O   UNL     1      10.783  -0.951  22.884  0.00  0.00    -0.274 OA
BRANCH   4   9
ATOM      9  C   UNL     1       6.413   0.164  23.917  0.00  0.00    +0.234 C 
ATOM     10  N   UNL     1       6.319   1.304  24.711  0.00  0.00    -0.304 N 
ATOM     11  H   UNL     1       7.016   2.029  24.566  0.00  0.00    +0.149 HD
ATOM     12  O   UNL     1       5.869  -0.880  24.274  0.00  0.00    -0.274 OA
BRANCH  10  13
ATOM     13  C   UNL     1       5.723   1.231  26.064  0.00  0.00    +0.151 C 
BRANCH  13  14
ATOM     14  C   UNL     1       4.407   2.031  26.205  0.00  0.00    +0.011 C 
ATOM     15  C   UNL     1       3.304   1.158  26.788  0.00  0.00    +0.009 C 
ATOM     16  C   UNL     1       3.920   2.662  24.898  0.00  0.00    +0.009 C 
ENDBRANCH  13  14
BRANCH  13  17
ATOM     17  C   UNL     1       6.740   1.692  27.110  0.00  0.00    +0.256 C 
ATOM     18  O   UNL     1       7.471   2.666  26.893  0.00  0.00    -0.286 OA
BRANCH  17  19
ATOM     19  C   UNL     1       6.696   0.950  28.440  0.00  0.00    +0.453 C 
ATOM     20  F   UNL     1       5.987  -0.208  28.353  0.00  0.00    -0.163 F 
ATOM     21  F   UNL     1       6.125   1.684  29.433  0.00  0.00    -0.163 F 
ATOM     22  F   UNL     1       7.931   0.596  28.892  0.00  0.00    -0.163 F 
ENDBRANCH  17  19
ENDBRANCH  13  17
ENDBRANCH  10  13
ENDBRANCH   4   9
ENDBRANCH   1   2
BRANCH   1  23
ATOM     23  N   UNL     1       7.873  -2.755  23.770  0.00  0.00    -0.300 N 
ATOM     24  H   UNL     1       6.993  -2.280  23.657  0.00  0.00    +0.150 HD
ATOM     25  C   UNL     1       7.857  -4.123  23.923  0.00  0.00    +0.245 C 
ATOM     26  O   UNL     1       8.869  -4.784  24.123  0.00  0.00    -0.270 OA
BRANCH  25  27
ATOM     27  C   UNL     1       6.555  -4.848  23.892  0.00  0.00    +0.037 A 
ATOM     28  C   UNL     1       6.238  -5.579  25.050  0.00  0.00    +0.014 A 
ATOM     29  C   UNL     1       5.039  -6.273  25.161  0.00  0.00    +0.014 A 
ATOM     30  C   UNL     1       4.119  -6.229  24.111  0.00  0.00    +0.037 A 
ATOM     31  C   UNL     1       4.437  -5.531  22.935  0.00  0.00    +0.014 A 
ATOM     32  C   UNL     1       5.651  -4.838  22.824  0.00  0.00    +0.014 A 
BRANCH  30  33
ATOM     33  C   UNL     1       2.820  -6.935  24.220  0.00  0.00    +0.245 C 
ATOM     34  N   UNL     1       1.886  -6.630  23.247  0.00  0.00    -0.301 N 
ATOM     35  H   UNL     1       2.217  -6.180  22.401  0.00  0.00    +0.150 HD
ATOM     36  O   UNL     1       2.607  -7.738  25.118  0.00  0.00    -0.270 OA
BRANCH  34  37
ATOM     37  C   UNL     1       0.652  -7.410  23.119  0.00  0.00    +0.225 C 
BRANCH  37  38
ATOM     38  C   UNL     1       0.838  -8.713  22.346  0.00  0.00    +0.322 C 
ATOM     39  O   UNL     1       0.445  -9.799  22.743  0.00  0.00    -0.249 OA
BRANCH  38  40
ATOM     40  O   UNL     1       1.524  -8.565  21.187  0.00  0.00    -0.480 OA
ATOM     41  H   UNL     1       0.906  -8.296  20.477  0.00  0.00    +0.295 HD
ENDBRANCH  38  40
ENDBRANCH  37  38
ENDBRANCH  34  37
ENDBRANCH  30  33
ENDBRANCH  25  27
ENDBRANCH   1  23
BRANCH   1  43
ATOM     42  C   UNL     1       8.300  -2.031  26.699  0.00  0.00    +0.009 C 
ATOM     43  C   UNL     1       8.596  -1.129  25.495  0.00  0.00    +0.012 C 
ATOM     44  C   UNL     1       9.577  -0.027  25.922  0.00  0.00    +0.009 C 
ENDBRANCH   1  43
TORSDOF 13
ENDMDL
