MODEL 1
REMARK VINA RESULT:      -3.9      0.000      0.000
REMARK  Name = 
REMARK  1 active torsions:
REMARK  status: ('A' for Active; 'I' for Inactive)
REMARK    1  A    between atoms: N_1  and  C_2
REMARK                            x       y       z     vdW  Elec       q    Type
REMARK                         _______ _______ _______ _____ _____    ______ ____
ROOT
ATOM      1  C   UNL     1       8.947  -5.341  25.324  0.00  0.00    +0.136 A 
ATOM      2  N   UNL     1       8.725  -5.283  24.000  0.00  0.00    -0.218 NA
ATOM      3  C   UNL     1       7.426  -5.210  23.631  0.00  0.00    +0.149 A 
ATOM      4 CL   UNL     1       7.150  -5.132  21.942  0.00  0.00    -0.060 Cl
ATOM      5  C   UNL     1       6.380  -5.192  24.539  0.00  0.00    +0.151 A 
ATOM      6  N   UNL     1       6.587  -5.252  25.875  0.00  0.00    -0.257 NA
ATOM      7  C   UNL     1       7.892  -5.336  26.240  0.00  0.00    +0.154 A 
ENDROOT
BRANCH   1   8
ATOM      8  N   UNL     1      10.274  -5.452  25.733  0.00  0.00    -0.342 N 
ATOM      9  H   UNL     1      10.831  -5.667  24.908  0.00  0.00    +0.144 HD
ATOM     10  H   UNL     1      10.604  -4.616  26.202  0.00  0.00    +0.144 HD
ENDBRANCH   1   8
TORSDOF 1
ENDMDL
MODEL 2
REMARK VINA RESULT:      -3.8      6.027      6.473
REMARK  Name = 
REMARK  1 active torsions:
REMARK  status: ('A' for Active; 'I' for Inactive)
REMARK    1  A    between atoms: N_1  and  C_2
REMARK                            x       y       z     vdW  Elec       q    Type
REMARK                         _______ _______ _______ _____ _____    ______ ____
ROOT
ATOM      1  C   UNL     1      10.066   1.272  22.627  0.00  0.00    +0.136 A 
ATOM      2  N   UNL     1       9.506   0.124  22.212  0.00  0.00    -0.218 NA
ATOM      3  C   UNL     1       9.461  -0.867  23.131  0.00  0.00    +0.149 A 
ATOM      4 CL   UNL     1       8.742  -2.327  22.597  0.00  0.00    -0.060 Cl
ATOM      5  C   UNL     1       9.950  -0.728  24.420  0.00  0.00    +0.151 A 
ATOM      6  N   UNL     1      10.519   0.421  24.853  0.00  0.00    -0.257 NA
ATOM      7  C   UNL     1      10.571   1.409  23.923  0.00  0.00    +0.154 A 
ENDROOT
BRANCH   1   8
ATOM      8  N   UNL     1      10.157   2.300  21.692  0.00  0.00    -0.342 N 
ATOM      9  H   UNL     1      10.536   1.900  20.835  0.00  0.00    +0.144 HD
ATOM     10  H   UNL     1       9.266   2.757  21.532  0.00  0.00    +0.144 HD
ENDBRANCH   1   8
TORSDOF 1
ENDMDL
MODEL 3
REMARK VINA RESULT:      -3.7      5.847      6.489
REMARK  Name = 
REMARK  1 active torsions:
REMARK  status: ('A' for Active; 'I' for Inactive)
REMARK    1  A    between atoms: N_1  and  C_2
REMARK                            x       y       z     vdW  Elec       q    Type
REMARK                         _______ _______ _______ _____ _____    ______ ____
ROOT
ATOM      1  C   UNL     1       9.732   0.695  22.195  0.00  0.00    +0.136 A 
ATOM      2  N   UNL     1       9.614   0.727  23.534  0.00  0.00    -0.218 NA
ATOM      3  C   UNL     1       9.586  -0.481  24.143  0.00  0.00    +0.149 A 
ATOM      4 CL   UNL     1       9.441  -0.434  25.849  0.00  0.00    -0.060 Cl
ATOM      5  C   UNL     1       9.674  -1.680  23.454  0.00  0.00    +0.151 A 
ATOM      6  N   UNL     1       9.791  -1.727  22.107  0.00  0.00    -0.257 NA
ATOM      7  C   UNL     1       9.808  -0.514  21.499  0.00  0.00    +0.154 A 
ENDROOT
BRANCH   1   8
ATOM      8  N   UNL     1       9.729   1.923  21.536  0.00  0.00    -0.342 N 
ATOM      9  H   UNL     1      10.021   2.631  22.209  0.00  0.00    +0.144 HD
ATOM     10  H   UNL     1      10.322   1.920  20.713  0.00  0.00    +0.144 HD
ENDBRANCH   1   8
TORSDOF 1
ENDMDL
MODEL 4
REMARK VINA RESULT:      -3.7      2.412      2.484
REMARK  Name = 
REMARK  1 active torsions:
REMARK  status: ('A' for Active; 'I' for Inactive)
REMARK    1  A    between atoms: N_1  and  C_2
REMARK                            x       y       z     vdW  Elec       q    Type
REMARK                         _______ _______ _______ _____ _____    ______ ____
ROOT
ATOM      1  C   UNL     1       9.161  -4.854  25.017  0.00  0.00    +0.136 A 
ATOM      2  N   UNL     1       9.907  -3.898  24.437  0.00  0.00    -0.218 NA
ATOM      3  C   UNL     1       9.214  -2.926  23.802  0.00  0.00    +0.149 A 
ATOM      4 CL   UNL     1      10.170  -1.709  23.068  0.00  0.00    -0.060 Cl
ATOM      5  C   UNL     1       7.830  -2.896  23.743  0.00  0.00    +0.151 A 
ATOM      6  N   UNL     1       7.066  -3.852  24.320  0.00  0.00    -0.257 NA
ATOM      7  C   UNL     1       7.766  -4.831  24.947  0.00  0.00    +0.154 A 
ENDROOT
BRANCH   1   8
ATOM      8  N   UNL     1       9.848  -5.888  25.650  0.00  0.00    -0.342 N 
ATOM      9  H   UNL     1       9.680  -6.738  25.115  0.00  0.00    +0.144 HD
ATOM     10  H   UNL     1      10.838  -5.692  25.745  0.00  0.00    +0.144 HD
ENDBRANCH   1   8
TORSDOF 1
ENDMDL
MODEL 5
REMARK VINA RESULT:      -3.7      1.478      1.739
REMARK  Name = 
REMARK  1 active torsions:
REMARK  status: ('A' for Active; 'I' for Inactive)
REMARK    1  A    between atoms: N_1  and  C_2
REMARK                            x       y       z     vdW  Elec       q    Type
REMARK                         _______ _______ _______ _____ _____    ______ ____
ROOT
ATOM      1  C   UNL     1       9.276  -4.786  24.938  0.00  0.00    +0.136 A 
ATOM      2  N   UNL     1       8.691  -5.581  24.026  0.00  0.00    -0.218 NA
ATOM      3  C   UNL     1       7.796  -4.973  23.213  0.00  0.00    +0.149 A 
ATOM      4 CL   UNL     1       7.058  -5.991  22.050  0.00  0.00    -0.060 Cl
ATOM      5  C   UNL     1       7.491  -3.624  23.296  0.00  0.00    +0.151 A 
ATOM      6  N   UNL     1       8.070  -2.812  24.211  0.00  0.00    -0.257 NA
ATOM      7  C   UNL     1       8.959  -3.429  25.031  0.00  0.00    +0.154 A 
ENDROOT
BRANCH   1   8
ATOM      8  N   UNL     1      10.177  -5.391  25.812  0.00  0.00    -0.342 N 
ATOM      9  H   UNL     1       9.961  -6.386  25.832  0.00  0.00    +0.144 HD
ATOM     10  H   UNL     1      11.141  -5.221  25.550  0.00  0.00    +0.144 HD
ENDBRANCH   1   8
TORSDOF 1
ENDMDL
MODEL 6
REMARK VINA RESULT:      -3.6      3.457      4.176
REMARK  Name = 
REMARK  1 active torsions:
REMARK  status: ('A' for Active; 'I' for Inactive)
REMARK    1  A    between atoms: N_1  and  C_2
REMARK                            x       y       z     vdW  Elec       q    Type
REMARK                         _______ _______ _______ _____ _____    ______ ____
ROOT
ATOM      1  C   UNL     1       9.285  -1.692  22.203  0.00  0.00    +0.136 A 
ATOM      2  N   UNL     1       8.048  -2.211  22.118  0.00  0.00    -0.218 NA
ATOM      3  C   UNL     1       7.755  -3.167  23.028  0.00  0.00    +0.149 A 
ATOM      4 CL   UNL     1       6.175  -3.820  22.917  0.00  0.00    -0.060 Cl
ATOM      5  C   UNL     1       8.652  -3.596  23.993  0.00  0.00    +0.151 A 
ATOM      6  N   UNL     1       9.901  -3.085  24.090  0.00  0.00    -0.257 NA
ATOM      7  C   UNL     1      10.195  -2.134  23.167  0.00  0.00    +0.154 A 
ENDROOT
BRANCH   1   8
ATOM      8  N   UNL     1       9.629  -0.730  21.256  0.00  0.00    -0.342 N 
ATOM      9  H   UNL     1       9.978   0.083  21.761  0.00  0.00    +0.144 HD
ATOM     10  H   UNL     1      10.306  -1.073  20.584  0.00  0.00    +0.144 HD
ENDBRANCH   1   8
TORSDOF 1
ENDMDL
MODEL 7
REMARK VINA RESULT:      -3.5      5.451      5.795
REMARK  Name = 
REMARK  1 active torsions:
REMARK  status: ('A' for Active; 'I' for Inactive)
REMARK    1  A    between atoms: N_1  and  C_2
REMARK                            x       y       z     vdW  Elec       q    Type
REMARK                         _______ _______ _______ _____ _____    ______ ____
ROOT
ATOM      1  C   UNL     1       9.548  -0.470  24.932  0.00  0.00    +0.136 A 
ATOM      2  N   UNL     1       9.699   0.625  24.168  0.00  0.00    -0.218 NA
ATOM      3  C   UNL     1       9.939   0.390  22.857  0.00  0.00    +0.149 A 
ATOM      4 CL   UNL     1      10.126   1.790  21.888  0.00  0.00    -0.060 Cl
ATOM      5  C   UNL     1      10.024  -0.884  22.318  0.00  0.00    +0.151 A 
ATOM      6  N   UNL     1       9.876  -1.996  23.076  0.00  0.00    -0.257 NA
ATOM      7  C   UNL     1       9.647  -1.755  24.392  0.00  0.00    +0.154 A 
ENDROOT
BRANCH   1   8
ATOM      8  N   UNL     1       9.334  -0.261  26.293  0.00  0.00    -0.342 N 
ATOM      9  H   UNL     1       9.923   0.520  26.578  0.00  0.00    +0.144 HD
ATOM     10  H   UNL     1       8.357  -0.093  26.508  0.00  0.00    +0.144 HD
ENDBRANCH   1   8
TORSDOF 1
ENDMDL
MODEL 8
REMARK VINA RESULT:      -3.5      5.987      6.424
REMARK  Name = 
REMARK  1 active torsions:
REMARK  status: ('A' for Active; 'I' for Inactive)
REMARK    1  A    between atoms: N_1  and  C_2
REMARK                            x       y       z     vdW  Elec       q    Type
REMARK                         _______ _______ _______ _____ _____    ______ ____
ROOT
ATOM      1  C   UNL     1       9.407   1.196  22.087  0.00  0.00    +0.136 A 
ATOM      2  N   UNL     1      10.049   0.087  22.492  0.00  0.00    -0.218 NA
ATOM      3  C   UNL     1       9.261  -0.891  22.993  0.00  0.00    +0.149 A 
ATOM      4 CL   UNL     1      10.085  -2.303  23.503  0.00  0.00    -0.060 Cl
ATOM      5  C   UNL     1       7.883  -0.779  23.089  0.00  0.00    +0.151 A 
ATOM      6  N   UNL     1       7.223   0.332  22.688  0.00  0.00    -0.257 NA
ATOM      7  C   UNL     1       8.020   1.315  22.195  0.00  0.00    +0.154 A 
ENDROOT
BRANCH   1   8
ATOM      8  N   UNL     1      10.197   2.235  21.597  0.00  0.00    -0.342 N 
ATOM      9  H   UNL     1       9.743   3.110  21.854  0.00  0.00    +0.144 HD
ATOM     10  H   UNL     1      11.150   2.190  21.941  0.00  0.00    +0.144 HD
ENDBRANCH   1   8
TORSDOF 1
ENDMDL
MODEL 9
REMARK VINA RESULT:      -3.5      2.556      3.280
REMARK  Name = 
REMARK  1 active torsions:
REMARK  status: ('A' for Active; 'I' for Inactive)
REMARK    1  A    between atoms: N_1  and  C_2
REMARK                            x       y       z     vdW  Elec       q    Type
REMARK                         _______ _______ _______ _____ _____    ______ ____
ROOT
ATOM      1  C   UNL     1       8.320  -4.955  26.353  0.00  0.00    +0.136 A 
ATOM      2  N   UNL     1       7.753  -3.737  26.401  0.00  0.00    -0.218 NA
ATOM      3  C   UNL     1       8.252  -2.829  25.532  0.00  0.00    +0.149 A 
ATOM      4 CL   UNL     1       7.522  -1.281  25.595  0.00  0.00    -0.060 Cl
ATOM      5  C   UNL     1       9.275  -3.114  24.642  0.00  0.00    +0.151 A 
ATOM      6  N   UNL     1       9.857  -4.334  24.583  0.00  0.00    -0.257 NA
ATOM      7  C   UNL     1       9.361  -5.239  25.465  0.00  0.00    +0.154 A 
ENDROOT
BRANCH   1   8
ATOM      8  N   UNL     1       7.851  -5.902  27.261  0.00  0.00    -0.342 N 
ATOM      9  H   UNL     1       8.306  -5.720  28.154  0.00  0.00    +0.144 HD
ATOM     10  H   UNL     1       6.840  -5.888  27.345  0.00  0.00    +0.144 HD
ENDBRANCH   1   8
TORSDOF 1
ENDMDL
