MODEL 1
REMARK VINA RESULT:      -7.1      0.000      0.000
REMARK  Name = 
REMARK  7 active torsions:
REMARK  status: ('A' for Active; 'I' for Inactive)
REMARK    1  A    between atoms: C_1  and  C_2
REMARK    2  A    between atoms: C_2  and  C_3
REMARK    3  A    between atoms: C_2  and  C_4
REMARK    4  A    between atoms: C_2  and  O_5
REMARK    5  A    between atoms: O_5  and  C_6
REMARK    6  A    between atoms: N_8  and  C_9
REMARK    7  A    between atoms: C_9  and  C_10
REMARK                            x       y       z     vdW  Elec       q    Type
REMARK                         _______ _______ _______ _____ _____    ______ ____
ROOT
ATOM      1  C   UNL     1       9.646  -1.538  22.990  0.00  0.00    +0.002 A 
ATOM      2  C   UNL     1       9.965  -0.181  23.269  0.00  0.00    +0.088 A 
ATOM      3  C   UNL     1      10.305   0.543  24.468  0.00  0.00    +0.262 A 
ATOM      4  N   UNL     1      10.489   1.895  24.243  0.00  0.00    -0.295 N 
ATOM      5  H   UNL     1      10.685   2.443  25.060  0.00  0.00    +0.172 HD
ATOM      6  C   UNL     1      10.359   2.499  23.013  0.00  0.00    +0.195 A 
ATOM      7  N   UNL     1      10.064   1.860  21.914  0.00  0.00    -0.198 NA
ATOM      8  N   UNL     1      10.560   3.842  22.984  0.00  0.00    -0.329 N 
ATOM      9  H   UNL     1      10.697   4.196  22.044  0.00  0.00    +0.145 HD
ATOM     10  H   UNL     1      11.201   4.235  23.661  0.00  0.00    +0.145 HD
ATOM     11  O   UNL     1      10.415   0.040  25.581  0.00  0.00    -0.267 OA
ATOM     12  C   UNL     1       9.874   0.534  22.098  0.00  0.00    +0.147 A 
ATOM     13  N   UNL     1       9.511  -0.328  21.104  0.00  0.00    -0.345 N 
ATOM     14  H   UNL     1       9.347  -0.056  20.145  0.00  0.00    +0.167 HD
ATOM     15  C   UNL     1       9.368  -1.590  21.631  0.00  0.00    +0.090 A 
ENDROOT
BRANCH   1  16
ATOM     16  C   UNL     1       9.552  -2.649  23.972  0.00  0.00    +0.145 C 
BRANCH  16  18
ATOM     17  C   UNL     1       8.086  -4.557  24.067  0.00  0.00    +0.401 C 
ATOM     18  N   UNL     1       8.225  -3.205  23.978  0.00  0.00    -0.277 N 
ATOM     19  H   UNL     1       7.412  -2.645  23.778  0.00  0.00    +0.152 HD
ATOM     20  O   UNL     1       9.032  -5.320  24.195  0.00  0.00    -0.226 OA
BRANCH  17  21
ATOM     21  O   UNL     1       6.778  -4.916  24.010  0.00  0.00    -0.445 OA
BRANCH  21  23
ATOM     22  C   UNL     1       7.036  -5.713  21.684  0.00  0.00    +0.055 C 
ATOM     23  C   UNL     1       6.137  -4.999  22.705  0.00  0.00    +0.107 C 
ATOM     24  C   UNL     1       4.877  -5.859  22.900  0.00  0.00    +0.055 C 
ATOM     25  C   UNL     1       5.695  -3.611  22.218  0.00  0.00    +0.055 C 
ENDBRANCH  21  23
ENDBRANCH  17  21
ENDBRANCH  16  18
ENDBRANCH   1  16
TORSDOF 4
ENDMDL
MODEL 2
REMARK VINA RESULT:      -6.9      2.648      7.142
REMARK  Name = 
REMARK  7 active torsions:
REMARK  status: ('A' for Active; 'I' for Inactive)
REMARK    1  A    between atoms: C_1  and  C_2
REMARK    2  A    between atoms: C_2  and  C_3
REMARK    3  A    between atoms: C_2  and  C_4
REMARK    4  A    between atoms: C_2  and  O_5
REMARK    5  A    between atoms: O_5  and  C_6
REMARK    6  A    between atoms: N_8  and  C_9
REMARK    7  A    between atoms: C_9  and  C_10
REMARK                            x       y       z     vdW  Elec       q    Type
REMARK                         _______ _______ _______ _____ _____    ______ ____
ROOT
ATOM      1  C   UNL     1       8.883  -4.343  25.265  0.00  0.00    +0.002 A 
ATOM      2  C   UNL     1       7.603  -4.867  24.936  0.00  0.00    +0.088 A 
ATOM      3  C   UNL     1       6.757  -4.791  23.772  0.00  0.00    +0.262 A 
ATOM      4  N   UNL     1       5.548  -5.440  23.945  0.00  0.00    -0.295 N 
ATOM      5  H   UNL     1       4.911  -5.374  23.173  0.00  0.00    +0.172 HD
ATOM      6  C   UNL     1       5.175  -6.086  25.102  0.00  0.00    +0.195 A 
ATOM      7  N   UNL     1       5.931  -6.178  26.162  0.00  0.00    -0.198 NA
ATOM      8  N   UNL     1       3.942  -6.653  25.097  0.00  0.00    -0.329 N 
ATOM      9  H   UNL     1       3.812  -7.314  25.856  0.00  0.00    +0.145 HD
ATOM     10  H   UNL     1       3.578  -6.980  24.211  0.00  0.00    +0.145 HD
ATOM     11  O   UNL     1       7.050  -4.212  22.732  0.00  0.00    -0.267 OA
ATOM     12  C   UNL     1       7.122  -5.551  26.029  0.00  0.00    +0.147 A 
ATOM     13  N   UNL     1       8.055  -5.471  27.021  0.00  0.00    -0.345 N 
ATOM     14  H   UNL     1       7.942  -5.866  27.944  0.00  0.00    +0.167 HD
ATOM     15  C   UNL     1       9.130  -4.740  26.573  0.00  0.00    +0.090 A 
ENDROOT
BRANCH   1  16
ATOM     16  C   UNL     1       9.737  -3.482  24.408  0.00  0.00    +0.145 C 
BRANCH  16  18
ATOM     17  C   UNL     1       9.516  -1.441  23.150  0.00  0.00    +0.401 C 
ATOM     18  N   UNL     1       9.120  -2.197  24.212  0.00  0.00    -0.277 N 
ATOM     19  H   UNL     1       8.516  -1.784  24.904  0.00  0.00    +0.152 HD
ATOM     20  O   UNL     1      10.332  -1.821  22.324  0.00  0.00    -0.226 OA
BRANCH  17  21
ATOM     21  O   UNL     1       8.875  -0.244  23.140  0.00  0.00    -0.445 OA
BRANCH  21  23
ATOM     22  C   UNL     1      10.028   1.703  22.147  0.00  0.00    +0.055 C 
ATOM     23  C   UNL     1       9.642   0.958  23.433  0.00  0.00    +0.107 C 
ATOM     24  C   UNL     1       8.710   1.875  24.242  0.00  0.00    +0.055 C 
ATOM     25  C   UNL     1      10.865   0.634  24.304  0.00  0.00    +0.055 C 
ENDBRANCH  21  23
ENDBRANCH  17  21
ENDBRANCH  16  18
ENDBRANCH   1  16
TORSDOF 4
ENDMDL
MODEL 3
REMARK VINA RESULT:      -6.8      1.653      2.377
REMARK  Name = 
REMARK  7 active torsions:
REMARK  status: ('A' for Active; 'I' for Inactive)
REMARK    1  A    between atoms: C_1  and  C_2
REMARK    2  A    between atoms: C_2  and  C_3
REMARK    3  A    between atoms: C_2  and  C_4
REMARK    4  A    between atoms: C_2  and  O_5
REMARK    5  A    between atoms: O_5  and  C_6
REMARK    6  A    between atoms: N_8  and  C_9
REMARK    7  A    between atoms: C_9  and  C_10
REMARK                            x       y       z     vdW  Elec       q    Type
REMARK                         _______ _______ _______ _____ _____    ______ ____
ROOT
ATOM      1  C   UNL     1       8.753  -1.330  25.673  0.00  0.00    +0.002 A 
ATOM      2  C   UNL     1       9.200  -0.645  24.511  0.00  0.00    +0.088 A 
ATOM      3  C   UNL     1       9.868  -1.052  23.301  0.00  0.00    +0.262 A 
ATOM      4  N   UNL     1      10.147   0.008  22.459  0.00  0.00    -0.295 N 
ATOM      5  H   UNL     1      10.651  -0.227  21.624  0.00  0.00    +0.172 HD
ATOM      6  C   UNL     1       9.834   1.320  22.737  0.00  0.00    +0.195 A 
ATOM      7  N   UNL     1       9.218   1.709  23.821  0.00  0.00    -0.198 NA
ATOM      8  N   UNL     1      10.200   2.232  21.801  0.00  0.00    -0.329 N 
ATOM      9  H   UNL     1       9.740   3.127  21.927  0.00  0.00    +0.145 HD
ATOM     10  H   UNL     1      10.235   1.927  20.837  0.00  0.00    +0.145 HD
ATOM     11  O   UNL     1      10.175  -2.208  23.027  0.00  0.00    -0.267 OA
ATOM     12  C   UNL     1       8.932   0.695  24.669  0.00  0.00    +0.147 A 
ATOM     13  N   UNL     1       8.336   0.866  25.885  0.00  0.00    -0.345 N 
ATOM     14  H   UNL     1       8.058   1.760  26.263  0.00  0.00    +0.167 HD
ATOM     15  C   UNL     1       8.220  -0.356  26.507  0.00  0.00    +0.090 A 
ENDROOT
BRANCH   1  16
ATOM     16  C   UNL     1       8.902  -2.780  25.963  0.00  0.00    +0.145 C 
BRANCH  16  18
ATOM     17  C   UNL     1       8.045  -4.599  24.638  0.00  0.00    +0.401 C 
ATOM     18  N   UNL     1       7.789  -3.517  25.427  0.00  0.00    -0.277 N 
ATOM     19  H   UNL     1       6.842  -3.181  25.499  0.00  0.00    +0.152 HD
ATOM     20  O   UNL     1       9.172  -5.006  24.405  0.00  0.00    -0.226 OA
BRANCH  17  21
ATOM     21  O   UNL     1       6.891  -5.147  24.178  0.00  0.00    -0.445 OA
BRANCH  21  23
ATOM     22  C   UNL     1       7.101  -6.041  21.883  0.00  0.00    +0.055 C 
ATOM     23  C   UNL     1       6.530  -4.935  22.783  0.00  0.00    +0.107 C 
ATOM     24  C   UNL     1       4.996  -5.026  22.720  0.00  0.00    +0.055 C 
ATOM     25  C   UNL     1       6.943  -3.533  22.312  0.00  0.00    +0.055 C 
ENDBRANCH  21  23
ENDBRANCH  17  21
ENDBRANCH  16  18
ENDBRANCH   1  16
TORSDOF 4
ENDMDL
MODEL 4
REMARK VINA RESULT:      -6.8      2.795      6.881
REMARK  Name = 
REMARK  7 active torsions:
REMARK  status: ('A' for Active; 'I' for Inactive)
REMARK    1  A    between atoms: C_1  and  C_2
REMARK    2  A    between atoms: C_2  and  C_3
REMARK    3  A    between atoms: C_2  and  C_4
REMARK    4  A    between atoms: C_2  and  O_5
REMARK    5  A    between atoms: O_5  and  C_6
REMARK    6  A    between atoms: N_8  and  C_9
REMARK    7  A    between atoms: C_9  and  C_10
REMARK                            x       y       z     vdW  Elec       q    Type
REMARK                         _______ _______ _______ _____ _____    ______ ____
ROOT
ATOM      1  C   UNL     1       8.120  -4.206  24.148  0.00  0.00    +0.002 A 
ATOM      2  C   UNL     1       7.279  -4.928  25.038  0.00  0.00    +0.088 A 
ATOM      3  C   UNL     1       7.387  -5.328  26.418  0.00  0.00    +0.262 A 
ATOM      4  N   UNL     1       6.307  -6.078  26.845  0.00  0.00    -0.295 N 
ATOM      5  H   UNL     1       6.363  -6.414  27.789  0.00  0.00    +0.172 HD
ATOM      6  C   UNL     1       5.239  -6.421  26.046  0.00  0.00    +0.195 A 
ATOM      7  N   UNL     1       5.116  -6.059  24.798  0.00  0.00    -0.198 NA
ATOM      8  N   UNL     1       4.276  -7.179  26.631  0.00  0.00    -0.329 N 
ATOM      9  H   UNL     1       3.414  -7.196  26.096  0.00  0.00    +0.145 HD
ATOM     10  H   UNL     1       4.132  -7.069  27.626  0.00  0.00    +0.145 HD
ATOM     11  O   UNL     1       8.329  -5.053  27.153  0.00  0.00    -0.267 OA
ATOM     12  C   UNL     1       6.158  -5.325  24.346  0.00  0.00    +0.147 A 
ATOM     13  N   UNL     1       6.272  -4.875  23.063  0.00  0.00    -0.345 N 
ATOM     14  H   UNL     1       5.596  -5.052  22.334  0.00  0.00    +0.167 HD
ATOM     15  C   UNL     1       7.460  -4.194  22.927  0.00  0.00    +0.090 A 
ENDROOT
BRANCH   1  16
ATOM     16  C   UNL     1       9.465  -3.651  24.450  0.00  0.00    +0.145 C 
BRANCH  16  18
ATOM     17  C   UNL     1       9.995  -1.478  23.558  0.00  0.00    +0.401 C 
ATOM     18  N   UNL     1       9.409  -2.216  24.541  0.00  0.00    -0.277 N 
ATOM     19  H   UNL     1       9.078  -1.748  25.370  0.00  0.00    +0.152 HD
ATOM     20  O   UNL     1      10.522  -1.973  22.573  0.00  0.00    -0.226 OA
BRANCH  17  21
ATOM     21  O   UNL     1       9.895  -0.150  23.822  0.00  0.00    -0.445 OA
BRANCH  21  23
ATOM     22  C   UNL     1       7.642  -0.138  22.805  0.00  0.00    +0.055 C 
ATOM     23  C   UNL     1       8.942   0.641  23.057  0.00  0.00    +0.107 C 
ATOM     24  C   UNL     1       8.596   1.858  23.932  0.00  0.00    +0.055 C 
ATOM     25  C   UNL     1       9.571   1.155  21.754  0.00  0.00    +0.055 C 
ENDBRANCH  21  23
ENDBRANCH  17  21
ENDBRANCH  16  18
ENDBRANCH   1  16
TORSDOF 4
ENDMDL
MODEL 5
REMARK VINA RESULT:      -6.7      3.029      7.213
REMARK  Name = 
REMARK  7 active torsions:
REMARK  status: ('A' for Active; 'I' for Inactive)
REMARK    1  A    between atoms: C_1  and  C_2
REMARK    2  A    between atoms: C_2  and  C_3
REMARK    3  A    between atoms: C_2  and  C_4
REMARK    4  A    between atoms: C_2  and  O_5
REMARK    5  A    between atoms: O_5  and  C_6
REMARK    6  A    between atoms: N_8  and  C_9
REMARK    7  A    between atoms: C_9  and  C_10
REMARK                            x       y       z     vdW  Elec       q    Type
REMARK                         _______ _______ _______ _____ _____    ______ ____
ROOT
ATOM      1  C   UNL     1       6.776  -4.823  24.176  0.00  0.00    +0.002 A 
ATOM      2  C   UNL     1       6.815  -5.326  25.505  0.00  0.00    +0.088 A 
ATOM      3  C   UNL     1       7.810  -5.327  26.548  0.00  0.00    +0.262 A 
ATOM      4  N   UNL     1       7.395  -5.999  27.683  0.00  0.00    -0.295 N 
ATOM      5  H   UNL     1       8.075  -6.060  28.418  0.00  0.00    +0.172 HD
ATOM      6  C   UNL     1       6.170  -6.613  27.814  0.00  0.00    +0.195 A 
ATOM      7  N   UNL     1       5.251  -6.614  26.888  0.00  0.00    -0.198 NA
ATOM      8  N   UNL     1       5.942  -7.242  28.996  0.00  0.00    -0.329 N 
ATOM      9  H   UNL     1       4.962  -7.459  29.141  0.00  0.00    +0.145 HD
ATOM     10  H   UNL     1       6.399  -6.873  29.820  0.00  0.00    +0.145 HD
ATOM     11  O   UNL     1       8.915  -4.803  26.460  0.00  0.00    -0.267 OA
ATOM     12  C   UNL     1       5.625  -5.966  25.760  0.00  0.00    +0.147 A 
ATOM     13  N   UNL     1       4.849  -5.878  24.641  0.00  0.00    -0.345 N 
ATOM     14  H   UNL     1       3.932  -6.289  24.549  0.00  0.00    +0.167 HD
ATOM     15  C   UNL     1       5.535  -5.187  23.669  0.00  0.00    +0.090 A 
ENDROOT
BRANCH   1  16
ATOM     16  C   UNL     1       7.872  -4.123  23.458  0.00  0.00    +0.145 C 
BRANCH  16  18
ATOM     17  C   UNL     1       9.391  -2.398  24.174  0.00  0.00    +0.401 C 
ATOM     18  N   UNL     1       8.105  -2.827  24.035  0.00  0.00    -0.277 N 
ATOM     19  H   UNL     1       7.366  -2.293  24.464  0.00  0.00    +0.152 HD
ATOM     20  O   UNL     1      10.356  -3.038  23.784  0.00  0.00    -0.226 OA
BRANCH  17  21
ATOM     21  O   UNL     1       9.436  -1.183  24.778  0.00  0.00    -0.445 OA
BRANCH  21  23
ATOM     22  C   UNL     1       9.897  -0.386  22.484  0.00  0.00    +0.055 C 
ATOM     23  C   UNL     1       9.733  -0.012  23.965  0.00  0.00    +0.107 C 
ATOM     24  C   UNL     1       8.509   0.912  24.081  0.00  0.00    +0.055 C 
ATOM     25  C   UNL     1      10.953   0.743  24.511  0.00  0.00    +0.055 C 
ENDBRANCH  21  23
ENDBRANCH  17  21
ENDBRANCH  16  18
ENDBRANCH   1  16
TORSDOF 4
ENDMDL
MODEL 6
REMARK VINA RESULT:      -6.6      2.190      2.988
REMARK  Name = 
REMARK  7 active torsions:
REMARK  status: ('A' for Active; 'I' for Inactive)
REMARK    1  A    between atoms: C_1  and  C_2
REMARK    2  A    between atoms: C_2  and  C_3
REMARK    3  A    between atoms: C_2  and  C_4
REMARK    4  A    between atoms: C_2  and  O_5
REMARK    5  A    between atoms: O_5  and  C_6
REMARK    6  A    between atoms: N_8  and  C_9
REMARK    7  A    between atoms: C_9  and  C_10
REMARK                            x       y       z     vdW  Elec       q    Type
REMARK                         _______ _______ _______ _____ _____    ______ ____
ROOT
ATOM      1  C   UNL     1       9.552  -0.701  23.981  0.00  0.00    +0.002 A 
ATOM      2  C   UNL     1       9.202   0.484  23.279  0.00  0.00    +0.088 A 
ATOM      3  C   UNL     1       9.125   0.838  21.884  0.00  0.00    +0.262 A 
ATOM      4  N   UNL     1       8.775   2.160  21.685  0.00  0.00    -0.295 N 
ATOM      5  H   UNL     1       8.752   2.460  20.727  0.00  0.00    +0.172 HD
ATOM      6  C   UNL     1       8.530   3.057  22.700  0.00  0.00    +0.195 A 
ATOM      7  N   UNL     1       8.582   2.755  23.969  0.00  0.00    -0.198 NA
ATOM      8  N   UNL     1       8.215   4.321  22.317  0.00  0.00    -0.329 N 
ATOM      9  H   UNL     1       7.810   4.868  23.069  0.00  0.00    +0.145 HD
ATOM     10  H   UNL     1       7.741   4.439  21.431  0.00  0.00    +0.145 HD
ATOM     11  O   UNL     1       9.350   0.070  20.955  0.00  0.00    -0.267 OA
ATOM     12  C   UNL     1       8.926   1.467  24.200  0.00  0.00    +0.147 A 
ATOM     13  N   UNL     1       9.090   0.936  25.447  0.00  0.00    -0.345 N 
ATOM     14  H   UNL     1       8.976   1.453  26.306  0.00  0.00    +0.167 HD
ATOM     15  C   UNL     1       9.471  -0.380  25.330  0.00  0.00    +0.090 A 
ENDROOT
BRANCH   1  16
ATOM     16  C   UNL     1       9.991  -1.990  23.386  0.00  0.00    +0.145 C 
BRANCH  16  18
ATOM     17  C   UNL     1       8.538  -3.840  23.900  0.00  0.00    +0.401 C 
ATOM     18  N   UNL     1       9.623  -3.089  24.239  0.00  0.00    -0.277 N 
ATOM     19  H   UNL     1      10.051  -3.231  25.140  0.00  0.00    +0.152 HD
ATOM     20  O   UNL     1       7.891  -3.660  22.880  0.00  0.00    -0.226 OA
BRANCH  17  21
ATOM     21  O   UNL     1       8.302  -4.799  24.832  0.00  0.00    -0.445 OA
BRANCH  21  23
ATOM     22  C   UNL     1       5.927  -5.397  25.168  0.00  0.00    +0.055 C 
ATOM     23  C   UNL     1       7.152  -4.645  25.711  0.00  0.00    +0.107 C 
ATOM     24  C   UNL     1       7.544  -5.295  27.049  0.00  0.00    +0.055 C 
ATOM     25  C   UNL     1       6.851  -3.162  25.973  0.00  0.00    +0.055 C 
ENDBRANCH  21  23
ENDBRANCH  17  21
ENDBRANCH  16  18
ENDBRANCH   1  16
TORSDOF 4
ENDMDL
MODEL 7
REMARK VINA RESULT:      -6.4      2.622      3.316
REMARK  Name = 
REMARK  7 active torsions:
REMARK  status: ('A' for Active; 'I' for Inactive)
REMARK    1  A    between atoms: C_1  and  C_2
REMARK    2  A    between atoms: C_2  and  C_3
REMARK    3  A    between atoms: C_2  and  C_4
REMARK    4  A    between atoms: C_2  and  O_5
REMARK    5  A    between atoms: O_5  and  C_6
REMARK    6  A    between atoms: N_8  and  C_9
REMARK    7  A    between atoms: C_9  and  C_10
REMARK                            x       y       z     vdW  Elec       q    Type
REMARK                         _______ _______ _______ _____ _____    ______ ____
ROOT
ATOM      1  C   UNL     1       7.927  -2.678  23.666  0.00  0.00    +0.002 A 
ATOM      2  C   UNL     1       8.474  -1.538  23.016  0.00  0.00    +0.088 A 
ATOM      3  C   UNL     1       9.777  -1.209  22.494  0.00  0.00    +0.262 A 
ATOM      4  N   UNL     1       9.842   0.073  21.982  0.00  0.00    -0.295 N 
ATOM      5  H   UNL     1      10.744   0.357  21.648  0.00  0.00    +0.172 HD
ATOM      6  C   UNL     1       8.785   0.956  21.973  0.00  0.00    +0.195 A 
ATOM      7  N   UNL     1       7.595   0.675  22.428  0.00  0.00    -0.198 NA
ATOM      8  N   UNL     1       9.037   2.182  21.445  0.00  0.00    -0.329 N 
ATOM      9  H   UNL     1       8.190   2.698  21.235  0.00  0.00    +0.145 HD
ATOM     10  H   UNL     1       9.739   2.245  20.719  0.00  0.00    +0.145 HD
ATOM     11  O   UNL     1      10.743  -1.965  22.500  0.00  0.00    -0.267 OA
ATOM     12  C   UNL     1       7.497  -0.573  22.940  0.00  0.00    +0.147 A 
ATOM     13  N   UNL     1       6.365  -1.072  23.517  0.00  0.00    -0.345 N 
ATOM     14  H   UNL     1       5.502  -0.558  23.618  0.00  0.00    +0.167 HD
ATOM     15  C   UNL     1       6.611  -2.350  23.963  0.00  0.00    +0.090 A 
ENDROOT
BRANCH   1  16
ATOM     16  C   UNL     1       8.646  -3.928  24.021  0.00  0.00    +0.145 C 
BRANCH  16  18
ATOM     17  C   UNL     1       8.027  -5.085  26.041  0.00  0.00    +0.401 C 
ATOM     18  N   UNL     1       7.773  -4.828  24.727  0.00  0.00    -0.277 N 
ATOM     19  H   UNL     1       7.074  -5.376  24.251  0.00  0.00    +0.152 HD
ATOM     20  O   UNL     1       8.930  -4.549  26.665  0.00  0.00    -0.226 OA
BRANCH  17  21
ATOM     21  O   UNL     1       7.144  -5.987  26.539  0.00  0.00    -0.445 OA
BRANCH  21  23
ATOM     22  C   UNL     1       4.759  -5.748  25.931  0.00  0.00    +0.055 C 
ATOM     23  C   UNL     1       5.844  -5.511  26.992  0.00  0.00    +0.107 C 
ATOM     24  C   UNL     1       5.484  -6.356  28.226  0.00  0.00    +0.055 C 
ATOM     25  C   UNL     1       5.917  -4.040  27.428  0.00  0.00    +0.055 C 
ENDBRANCH  21  23
ENDBRANCH  17  21
ENDBRANCH  16  18
ENDBRANCH   1  16
TORSDOF 4
ENDMDL
MODEL 8
REMARK VINA RESULT:      -6.4      2.241      6.729
REMARK  Name = 
REMARK  7 active torsions:
REMARK  status: ('A' for Active; 'I' for Inactive)
REMARK    1  A    between atoms: C_1  and  C_2
REMARK    2  A    between atoms: C_2  and  C_3
REMARK    3  A    between atoms: C_2  and  C_4
REMARK    4  A    between atoms: C_2  and  O_5
REMARK    5  A    between atoms: O_5  and  C_6
REMARK    6  A    between atoms: N_8  and  C_9
REMARK    7  A    between atoms: C_9  and  C_10
REMARK                            x       y       z     vdW  Elec       q    Type
REMARK                         _______ _______ _______ _____ _____    ______ ____
ROOT
ATOM      1  C   UNL     1       7.856  -2.176  23.908  0.00  0.00    +0.002 A 
ATOM      2  C   UNL     1       7.438  -3.433  23.395  0.00  0.00    +0.088 A 
ATOM      3  C   UNL     1       7.941  -4.779  23.504  0.00  0.00    +0.262 A 
ATOM      4  N   UNL     1       7.204  -5.689  22.769  0.00  0.00    -0.295 N 
ATOM      5  H   UNL     1       7.548  -6.632  22.783  0.00  0.00    +0.172 HD
ATOM      6  C   UNL     1       6.109  -5.358  22.004  0.00  0.00    +0.195 A 
ATOM      7  N   UNL     1       5.629  -4.149  21.901  0.00  0.00    -0.198 NA
ATOM      8  N   UNL     1       5.518  -6.381  21.334  0.00  0.00    -0.329 N 
ATOM      9  H   UNL     1       4.593  -6.143  20.994  0.00  0.00    +0.145 HD
ATOM     10  H   UNL     1       5.571  -7.304  21.745  0.00  0.00    +0.145 HD
ATOM     11  O   UNL     1       8.922  -5.107  24.164  0.00  0.00    -0.267 OA
ATOM     12  C   UNL     1       6.329  -3.231  22.606  0.00  0.00    +0.147 A 
ATOM     13  N   UNL     1       6.044  -1.897  22.612  0.00  0.00    -0.345 N 
ATOM     14  H   UNL     1       5.292  -1.472  22.090  0.00  0.00    +0.167 HD
ATOM     15  C   UNL     1       6.964  -1.242  23.398  0.00  0.00    +0.090 A 
ENDROOT
BRANCH   1  16
ATOM     16  C   UNL     1       9.051  -1.913  24.750  0.00  0.00    +0.145 C 
BRANCH  16  18
ATOM     17  C   UNL     1      10.230   0.095  24.136  0.00  0.00    +0.401 C 
ATOM     18  N   UNL     1       9.265  -0.497  24.893  0.00  0.00    -0.277 N 
ATOM     19  H   UNL     1       8.827   0.037  25.627  0.00  0.00    +0.152 HD
ATOM     20  O   UNL     1      10.890  -0.506  23.302  0.00  0.00    -0.226 OA
BRANCH  17  21
ATOM     21  O   UNL     1      10.335   1.417  24.429  0.00  0.00    -0.445 OA
BRANCH  21  23
ATOM     22  C   UNL     1       8.197   2.657  24.459  0.00  0.00    +0.055 C 
ATOM     23  C   UNL     1       9.498   2.358  23.699  0.00  0.00    +0.107 C 
ATOM     24  C   UNL     1      10.300   3.668  23.613  0.00  0.00    +0.055 C 
ATOM     25  C   UNL     1       9.233   1.868  22.268  0.00  0.00    +0.055 C 
ENDBRANCH  21  23
ENDBRANCH  17  21
ENDBRANCH  16  18
ENDBRANCH   1  16
TORSDOF 4
ENDMDL
MODEL 9
REMARK VINA RESULT:      -6.2      2.910      6.980
REMARK  Name = 
REMARK  7 active torsions:
REMARK  status: ('A' for Active; 'I' for Inactive)
REMARK    1  A    between atoms: C_1  and  C_2
REMARK    2  A    between atoms: C_2  and  C_3
REMARK    3  A    between atoms: C_2  and  C_4
REMARK    4  A    between atoms: C_2  and  O_5
REMARK    5  A    between atoms: O_5  and  C_6
REMARK    6  A    between atoms: N_8  and  C_9
REMARK    7  A    between atoms: C_9  and  C_10
REMARK                            x       y       z     vdW  Elec       q    Type
REMARK                         _______ _______ _______ _____ _____    ______ ____
ROOT
ATOM      1  C   UNL     1       7.117  -4.943  23.131  0.00  0.00    +0.002 A 
ATOM      2  C   UNL     1       5.739  -4.777  23.437  0.00  0.00    +0.088 A 
ATOM      3  C   UNL     1       5.012  -3.973  24.387  0.00  0.00    +0.262 A 
ATOM      4  N   UNL     1       3.648  -4.192  24.342  0.00  0.00    -0.295 N 
ATOM      5  H   UNL     1       3.109  -3.683  25.018  0.00  0.00    +0.172 HD
ATOM      6  C   UNL     1       3.036  -5.085  23.492  0.00  0.00    +0.195 A 
ATOM      7  N   UNL     1       3.673  -5.813  22.616  0.00  0.00    -0.198 NA
ATOM      8  N   UNL     1       1.686  -5.182  23.600  0.00  0.00    -0.329 N 
ATOM      9  H   UNL     1       1.263  -5.652  22.806  0.00  0.00    +0.145 HD
ATOM     10  H   UNL     1       1.178  -4.359  23.898  0.00  0.00    +0.145 HD
ATOM     11  O   UNL     1       5.526  -3.179  25.168  0.00  0.00    -0.267 OA
ATOM     12  C   UNL     1       5.013  -5.626  22.634  0.00  0.00    +0.147 A 
ATOM     13  N   UNL     1       5.888  -6.311  21.843  0.00  0.00    -0.345 N 
ATOM     14  H   UNL     1       5.619  -7.021  21.178  0.00  0.00    +0.167 HD
ATOM     15  C   UNL     1       7.171  -5.908  22.134  0.00  0.00    +0.090 A 
ENDROOT
BRANCH   1  16
ATOM     16  C   UNL     1       8.263  -4.277  23.802  0.00  0.00    +0.145 C 
BRANCH  16  18
ATOM     17  C   UNL     1       9.379  -2.157  23.562  0.00  0.00    +0.401 C 
ATOM     18  N   UNL     1       8.209  -2.854  23.597  0.00  0.00    -0.277 N 
ATOM     19  H   UNL     1       7.340  -2.345  23.620  0.00  0.00    +0.152 HD
ATOM     20  O   UNL     1      10.477  -2.687  23.643  0.00  0.00    -0.226 OA
BRANCH  17  21
ATOM     21  O   UNL     1       9.148  -0.828  23.412  0.00  0.00    -0.445 OA
BRANCH  21  23
ATOM     22  C   UNL     1       9.046  -0.736  25.880  0.00  0.00    +0.055 C 
ATOM     23  C   UNL     1       9.287   0.037  24.575  0.00  0.00    +0.107 C 
ATOM     24  C   UNL     1      10.748   0.518  24.579  0.00  0.00    +0.055 C 
ATOM     25  C   UNL     1       8.381   1.272  24.456  0.00  0.00    +0.055 C 
ENDBRANCH  21  23
ENDBRANCH  17  21
ENDBRANCH  16  18
ENDBRANCH   1  16
TORSDOF 4
ENDMDL
