MODEL 1
REMARK VINA RESULT:      -8.4      0.000      0.000
REMARK  Name = 
REMARK  5 active torsions:
REMARK  status: ('A' for Active; 'I' for Inactive)
REMARK    1  A    between atoms: C_8  and  O_9
REMARK    2  A    between atoms: O_9  and  C_10
REMARK    3  A    between atoms: C_10  and  C_11
REMARK    4  A    between atoms: N_14  and  C_15
REMARK    5  A    between atoms: C_15  and  C_16
REMARK                            x       y       z     vdW  Elec       q    Type
REMARK                         _______ _______ _______ _____ _____    ______ ____
ROOT
ATOM      1  N   UNL     1       5.705  -7.136  28.870  0.00  0.00    -0.327 N 
ATOM      2  H   UNL     1       6.055  -6.631  29.668  0.00  0.00    +0.145 HD
ATOM      3  H   UNL     1       4.712  -7.310  28.823  0.00  0.00    +0.145 HD
ATOM      4  C   UNL     1       6.106  -6.500  27.714  0.00  0.00    +0.215 A 
ATOM      5  N   UNL     1       7.203  -5.750  27.771  0.00  0.00    -0.199 NA
ATOM      6  C   UNL     1       7.592  -5.182  26.620  0.00  0.00    +0.133 A 
ATOM      7  N   UNL     1       8.620  -4.243  26.745  0.00  0.00    -0.342 N 
ATOM      8  H   UNL     1       9.055  -4.326  27.655  0.00  0.00    +0.144 HD
ATOM      9  H   UNL     1       9.256  -4.269  25.953  0.00  0.00    +0.144 HD
ATOM     10  C   UNL     1       6.914  -5.363  25.408  0.00  0.00    +0.082 A 
ATOM     11  C   UNL     1       5.710  -6.073  25.516  0.00  0.00    +0.081 A 
ATOM     12  C   UNL     1       4.878  -6.183  24.409  0.00  0.00    +0.029 A 
ATOM     13  C   UNL     1       5.212  -5.621  23.182  0.00  0.00    +0.006 A 
ATOM     14  C   UNL     1       6.435  -4.989  23.054  0.00  0.00    +0.046 A 
ATOM     15  C   UNL     1       7.328  -4.899  24.141  0.00  0.00    +0.133 A 
ATOM     16  N   UNL     1       5.316  -6.648  26.651  0.00  0.00    -0.214 NA
ENDROOT
BRANCH  15  17
ATOM     17  O   UNL     1       8.650  -4.434  24.027  0.00  0.00    -0.491 OA
BRANCH  17  18
ATOM     18  C   UNL     1       8.655  -3.156  23.430  0.00  0.00    +0.232 C 
BRANCH  18  19
ATOM     19  C   UNL     1       9.647  -2.068  23.849  0.00  0.00    +0.029 C 
ATOM     20  C   UNL     1       9.021  -0.792  24.416  0.00  0.00    +0.022 C 
ATOM     21  C   UNL     1       8.109  -0.092  23.400  0.00  0.00    +0.085 C 
ATOM     22  N   UNL     1       8.681   0.094  22.056  0.00  0.00    -0.298 NA
ATOM     23  C   UNL     1       9.370  -1.096  21.536  0.00  0.00    +0.085 C 
ATOM     24  C   UNL     1      10.371  -1.692  22.538  0.00  0.00    +0.022 C 
BRANCH  22  25
ATOM     25  C   UNL     1       9.536   1.287  21.945  0.00  0.00    +0.122 C 
BRANCH  25  26
ATOM     26  C   UNL     1       8.857   2.473  22.598  0.00  0.00    +0.002 A 
ATOM     27  C   UNL     1       9.466   3.145  23.662  0.00  0.00    +0.128 A 
ATOM     28  F   UNL     1      10.608   2.675  24.187  0.00  0.00    -0.205 F 
ATOM     29  C   UNL     1       8.967   4.357  24.129  0.00  0.00    +0.038 A 
ATOM     30  C   UNL     1       7.833   4.911  23.536  0.00  0.00    +0.003 A 
ATOM     31  C   UNL     1       7.202   4.248  22.483  0.00  0.00    +0.000 A 
ATOM     32  C   UNL     1       7.710   3.036  22.016  0.00  0.00    +0.008 A 
ENDBRANCH  25  26
ENDBRANCH  22  25
ENDBRANCH  18  19
ENDBRANCH  17  18
ENDBRANCH  15  17
TORSDOF 5
ENDMDL
MODEL 2
REMARK VINA RESULT:      -8.3      1.512      2.242
REMARK  Name = 
REMARK  5 active torsions:
REMARK  status: ('A' for Active; 'I' for Inactive)
REMARK    1  A    between atoms: C_8  and  O_9
REMARK    2  A    between atoms: O_9  and  C_10
REMARK    3  A    between atoms: C_10  and  C_11
REMARK    4  A    between atoms: N_14  and  C_15
REMARK    5  A    between atoms: C_15  and  C_16
REMARK                            x       y       z     vdW  Elec       q    Type
REMARK                         _______ _______ _______ _____ _____    ______ ____
ROOT
ATOM      1  N   UNL     1       4.960  -7.148  27.325  0.00  0.00    -0.327 N 
ATOM      2  H   UNL     1       5.055  -6.804  28.266  0.00  0.00    +0.145 HD
ATOM      3  H   UNL     1       4.026  -7.262  26.958  0.00  0.00    +0.145 HD
ATOM      4  C   UNL     1       5.684  -6.345  26.468  0.00  0.00    +0.215 A 
ATOM      5  N   UNL     1       6.712  -5.671  26.977  0.00  0.00    -0.199 NA
ATOM      6  C   UNL     1       7.424  -4.935  26.111  0.00  0.00    +0.133 A 
ATOM      7  N   UNL     1       8.365  -4.084  26.696  0.00  0.00    -0.342 N 
ATOM      8  H   UNL     1       8.510  -4.342  27.664  0.00  0.00    +0.144 HD
ATOM      9  H   UNL     1       9.208  -4.005  26.135  0.00  0.00    +0.144 HD
ATOM     10  C   UNL     1       7.138  -4.873  24.741  0.00  0.00    +0.082 A 
ATOM     11  C   UNL     1       5.959  -5.530  24.364  0.00  0.00    +0.081 A 
ATOM     12  C   UNL     1       5.494  -5.408  23.060  0.00  0.00    +0.029 A 
ATOM     13  C   UNL     1       6.176  -4.662  22.105  0.00  0.00    +0.006 A 
ATOM     14  C   UNL     1       7.379  -4.080  22.456  0.00  0.00    +0.046 A 
ATOM     15  C   UNL     1       7.908  -4.220  23.754  0.00  0.00    +0.133 A 
ATOM     16  N   UNL     1       5.247  -6.270  25.213  0.00  0.00    -0.214 NA
ENDROOT
BRANCH  15  17
ATOM     17  O   UNL     1       9.202  -3.809  24.117  0.00  0.00    -0.491 OA
BRANCH  17  18
ATOM     18  C   UNL     1       9.323  -2.414  23.948  0.00  0.00    +0.232 C 
BRANCH  18  19
ATOM     19  C   UNL     1       8.280  -1.436  24.493  0.00  0.00    +0.029 C 
ATOM     20  C   UNL     1       7.678  -0.477  23.462  0.00  0.00    +0.022 C 
ATOM     21  C   UNL     1       8.739   0.429  22.824  0.00  0.00    +0.085 C 
ATOM     22  N   UNL     1       9.654   1.094  23.766  0.00  0.00    -0.298 NA
ATOM     23  C   UNL     1      10.168   0.207  24.820  0.00  0.00    +0.085 C 
ATOM     24  C   UNL     1       9.056  -0.589  25.523  0.00  0.00    +0.022 C 
BRANCH  22  25
ATOM     25  C   UNL     1       9.103   2.331  24.342  0.00  0.00    +0.122 C 
BRANCH  25  26
ATOM     26  C   UNL     1       9.911   3.525  23.876  0.00  0.00    +0.002 A 
ATOM     27  C   UNL     1       9.418   4.824  24.035  0.00  0.00    +0.128 A 
ATOM     28  F   UNL     1       8.175   5.017  24.502  0.00  0.00    -0.205 F 
ATOM     29  C   UNL     1      10.228   5.933  23.815  0.00  0.00    +0.038 A 
ATOM     30  C   UNL     1      11.553   5.753  23.419  0.00  0.00    +0.003 A 
ATOM     31  C   UNL     1      12.059   4.465  23.240  0.00  0.00    +0.000 A 
ATOM     32  C   UNL     1      11.243   3.356  23.466  0.00  0.00    +0.008 A 
ENDBRANCH  25  26
ENDBRANCH  22  25
ENDBRANCH  18  19
ENDBRANCH  17  18
ENDBRANCH  15  17
TORSDOF 5
ENDMDL
MODEL 3
REMARK VINA RESULT:      -8.2      1.645      2.569
REMARK  Name = 
REMARK  5 active torsions:
REMARK  status: ('A' for Active; 'I' for Inactive)
REMARK    1  A    between atoms: C_8  and  O_9
REMARK    2  A    between atoms: O_9  and  C_10
REMARK    3  A    between atoms: C_10  and  C_11
REMARK    4  A    between atoms: N_14  and  C_15
REMARK    5  A    between atoms: C_15  and  C_16
REMARK                            x       y       z     vdW  Elec       q    Type
REMARK                         _______ _______ _______ _____ _____    ______ ____
ROOT
ATOM      1  N   UNL     1       3.044  -6.444  23.003  0.00  0.00    -0.327 N 
ATOM      2  H   UNL     1       3.093  -6.910  22.111  0.00  0.00    +0.145 HD
ATOM      3  H   UNL     1       2.560  -6.916  23.752  0.00  0.00    +0.145 HD
ATOM      4  C   UNL     1       4.318  -6.123  23.422  0.00  0.00    +0.215 A 
ATOM      5  N   UNL     1       5.255  -5.975  22.490  0.00  0.00    -0.199 NA
ATOM      6  C   UNL     1       6.472  -5.619  22.925  0.00  0.00    +0.133 A 
ATOM      7  N   UNL     1       7.481  -5.667  21.959  0.00  0.00    -0.342 N 
ATOM      8  H   UNL     1       7.072  -5.738  21.036  0.00  0.00    +0.144 HD
ATOM      9  H   UNL     1       8.159  -4.920  22.080  0.00  0.00    +0.144 HD
ATOM     10  C   UNL     1       6.767  -5.390  24.276  0.00  0.00    +0.082 A 
ATOM     11  C   UNL     1       5.724  -5.702  25.158  0.00  0.00    +0.081 A 
ATOM     12  C   UNL     1       5.950  -5.660  26.528  0.00  0.00    +0.029 A 
ATOM     13  C   UNL     1       7.186  -5.300  27.057  0.00  0.00    +0.006 A 
ATOM     14  C   UNL     1       8.190  -4.917  26.189  0.00  0.00    +0.046 A 
ATOM     15  C   UNL     1       7.985  -4.899  24.795  0.00  0.00    +0.133 A 
ATOM     16  N   UNL     1       4.509  -6.050  24.739  0.00  0.00    -0.214 NA
ENDROOT
BRANCH  15  17
ATOM     17  O   UNL     1       8.899  -4.351  23.878  0.00  0.00    -0.491 OA
BRANCH  17  18
ATOM     18  C   UNL     1       8.681  -2.962  23.764  0.00  0.00    +0.232 C 
BRANCH  18  19
ATOM     19  C   UNL     1       9.807  -1.944  23.965  0.00  0.00    +0.029 C 
ATOM     20  C   UNL     1       9.380  -0.603  24.566  0.00  0.00    +0.022 C 
ATOM     21  C   UNL     1       8.367   0.134  23.682  0.00  0.00    +0.085 C 
ATOM     22  N   UNL     1       8.720   0.228  22.255  0.00  0.00    -0.298 NA
ATOM     23  C   UNL     1       9.222  -1.031  21.685  0.00  0.00    +0.085 C 
ATOM     24  C   UNL     1      10.329  -1.672  22.538  0.00  0.00    +0.022 C 
BRANCH  22  25
ATOM     25  C   UNL     1       9.630   1.344  21.951  0.00  0.00    +0.122 C 
BRANCH  25  26
ATOM     26  C   UNL     1       9.146   2.608  22.631  0.00  0.00    +0.002 A 
ATOM     27  C   UNL     1       9.990   3.326  23.483  0.00  0.00    +0.128 A 
ATOM     28  F   UNL     1      11.201   2.840  23.794  0.00  0.00    -0.205 F 
ATOM     29  C   UNL     1       9.642   4.593  23.942  0.00  0.00    +0.038 A 
ATOM     30  C   UNL     1       8.427   5.157  23.557  0.00  0.00    +0.003 A 
ATOM     31  C   UNL     1       7.563   4.450  22.719  0.00  0.00    +0.000 A 
ATOM     32  C   UNL     1       7.920   3.181  22.258  0.00  0.00    +0.008 A 
ENDBRANCH  25  26
ENDBRANCH  22  25
ENDBRANCH  18  19
ENDBRANCH  17  18
ENDBRANCH  15  17
TORSDOF 5
ENDMDL
MODEL 4
REMARK VINA RESULT:      -8.0      1.863      2.899
REMARK  Name = 
REMARK  5 active torsions:
REMARK  status: ('A' for Active; 'I' for Inactive)
REMARK    1  A    between atoms: C_8  and  O_9
REMARK    2  A    between atoms: O_9  and  C_10
REMARK    3  A    between atoms: C_10  and  C_11
REMARK    4  A    between atoms: N_14  and  C_15
REMARK    5  A    between atoms: C_15  and  C_16
REMARK                            x       y       z     vdW  Elec       q    Type
REMARK                         _______ _______ _______ _____ _____    ______ ____
ROOT
ATOM      1  N   UNL     1       3.701  -7.037  25.052  0.00  0.00    -0.327 N 
ATOM      2  H   UNL     1       3.394  -7.567  24.252  0.00  0.00    +0.145 HD
ATOM      3  H   UNL     1       3.867  -7.539  25.912  0.00  0.00    +0.145 HD
ATOM      4  C   UNL     1       4.834  -6.324  24.721  0.00  0.00    +0.215 A 
ATOM      5  N   UNL     1       5.021  -6.024  23.438  0.00  0.00    -0.199 NA
ATOM      6  C   UNL     1       6.108  -5.291  23.155  0.00  0.00    +0.133 A 
ATOM      7  N   UNL     1       6.391  -5.160  21.792  0.00  0.00    -0.342 N 
ATOM      8  H   UNL     1       5.590  -5.448  21.244  0.00  0.00    +0.144 HD
ATOM      9  H   UNL     1       6.767  -4.244  21.568  0.00  0.00    +0.144 HD
ATOM     10  C   UNL     1       7.003  -4.837  24.132  0.00  0.00    +0.082 A 
ATOM     11  C   UNL     1       6.755  -5.329  25.420  0.00  0.00    +0.081 A 
ATOM     12  C   UNL     1       7.663  -5.071  26.439  0.00  0.00    +0.029 A 
ATOM     13  C   UNL     1       8.814  -4.320  26.223  0.00  0.00    +0.006 A 
ATOM     14  C   UNL     1       9.018  -3.768  24.972  0.00  0.00    +0.046 A 
ATOM     15  C   UNL     1       8.096  -3.967  23.926  0.00  0.00    +0.133 A 
ATOM     16  N   UNL     1       5.676  -6.052  25.716  0.00  0.00    -0.214 NA
ENDROOT
BRANCH  15  17
ATOM     17  O   UNL     1       8.154  -3.289  22.696  0.00  0.00    -0.491 OA
BRANCH  17  18
ATOM     18  C   UNL     1       8.492  -1.937  22.913  0.00  0.00    +0.232 C 
BRANCH  18  19
ATOM     19  C   UNL     1       9.790  -1.328  22.376  0.00  0.00    +0.029 C 
ATOM     20  C   UNL     1      10.705  -0.700  23.430  0.00  0.00    +0.022 C 
ATOM     21  C   UNL     1      10.028   0.461  24.169  0.00  0.00    +0.085 C 
ATOM     22  N   UNL     1       9.365   1.458  23.313  0.00  0.00    -0.298 NA
ATOM     23  C   UNL     1       8.556   0.870  22.236  0.00  0.00    +0.085 C 
ATOM     24  C   UNL     1       9.316  -0.200  21.435  0.00  0.00    +0.022 C 
BRANCH  22  25
ATOM     25  C   UNL     1      10.285   2.477  22.783  0.00  0.00    +0.122 C 
BRANCH  25  26
ATOM     26  C   UNL     1      10.206   3.734  23.625  0.00  0.00    +0.002 A 
ATOM     27  C   UNL     1      11.229   4.687  23.580  0.00  0.00    +0.128 A 
ATOM     28  F   UNL     1      12.343   4.442  22.874  0.00  0.00    -0.205 F 
ATOM     29  C   UNL     1      11.076   5.937  24.172  0.00  0.00    +0.038 A 
ATOM     30  C   UNL     1       9.888   6.246  24.833  0.00  0.00    +0.003 A 
ATOM     31  C   UNL     1       8.861   5.304  24.903  0.00  0.00    +0.000 A 
ATOM     32  C   UNL     1       9.018   4.054  24.302  0.00  0.00    +0.008 A 
ENDBRANCH  25  26
ENDBRANCH  22  25
ENDBRANCH  18  19
ENDBRANCH  17  18
ENDBRANCH  15  17
TORSDOF 5
ENDMDL
MODEL 5
REMARK VINA RESULT:      -7.9      1.432      1.989
REMARK  Name = 
REMARK  5 active torsions:
REMARK  status: ('A' for Active; 'I' for Inactive)
REMARK    1  A    between atoms: C_8  and  O_9
REMARK    2  A    between atoms: O_9  and  C_10
REMARK    3  A    between atoms: C_10  and  C_11
REMARK    4  A    between atoms: N_14  and  C_15
REMARK    5  A    between atoms: C_15  and  C_16
REMARK                            x       y       z     vdW  Elec       q    Type
REMARK                         _______ _______ _______ _____ _____    ______ ____
ROOT
ATOM      1  N   UNL     1       5.069  -6.986  26.705  0.00  0.00    -0.327 N 
ATOM      2  H   UNL     1       5.392  -6.982  27.658  0.00  0.00    +0.145 HD
ATOM      3  H   UNL     1       4.077  -6.883  26.544  0.00  0.00    +0.145 HD
ATOM      4  C   UNL     1       5.742  -6.018  25.989  0.00  0.00    +0.215 A 
ATOM      5  N   UNL     1       6.942  -5.649  26.429  0.00  0.00    -0.199 NA
ATOM      6  C   UNL     1       7.591  -4.740  25.687  0.00  0.00    +0.133 A 
ATOM      7  N   UNL     1       8.750  -4.222  26.271  0.00  0.00    -0.342 N 
ATOM      8  H   UNL     1       9.028  -4.797  27.055  0.00  0.00    +0.144 HD
ATOM      9  H   UNL     1       9.476  -4.043  25.582  0.00  0.00    +0.144 HD
ATOM     10  C   UNL     1       7.069  -4.204  24.502  0.00  0.00    +0.082 A 
ATOM     11  C   UNL     1       5.750  -4.585  24.224  0.00  0.00    +0.081 A 
ATOM     12  C   UNL     1       5.077  -3.998  23.160  0.00  0.00    +0.029 A 
ATOM     13  C   UNL     1       5.682  -3.046  22.345  0.00  0.00    +0.006 A 
ATOM     14  C   UNL     1       7.008  -2.729  22.571  0.00  0.00    +0.046 A 
ATOM     15  C   UNL     1       7.739  -3.338  23.610  0.00  0.00    +0.133 A 
ATOM     16  N   UNL     1       5.097  -5.492  24.949  0.00  0.00    -0.214 NA
ENDROOT
BRANCH  15  17
ATOM     17  O   UNL     1       9.127  -3.194  23.775  0.00  0.00    -0.491 OA
BRANCH  17  18
ATOM     18  C   UNL     1       9.483  -1.835  23.652  0.00  0.00    +0.232 C 
BRANCH  18  19
ATOM     19  C   UNL     1       9.726  -0.945  24.874  0.00  0.00    +0.029 C 
ATOM     20  C   UNL     1       8.491  -0.221  25.415  0.00  0.00    +0.022 C 
ATOM     21  C   UNL     1       7.877   0.730  24.380  0.00  0.00    +0.085 C 
ATOM     22  N   UNL     1       8.825   1.632  23.704  0.00  0.00    -0.298 NA
ATOM     23  C   UNL     1      10.060   0.968  23.262  0.00  0.00    +0.085 C 
ATOM     24  C   UNL     1      10.715   0.127  24.369  0.00  0.00    +0.022 C 
BRANCH  22  25
ATOM     25  C   UNL     1       9.128   2.846  24.477  0.00  0.00    +0.122 C 
BRANCH  25  26
ATOM     26  C   UNL     1       8.499   4.054  23.813  0.00  0.00    +0.002 A 
ATOM     27  C   UNL     1       9.155   5.289  23.813  0.00  0.00    +0.128 A 
ATOM     28  F   UNL     1      10.298   5.441  24.500  0.00  0.00    -0.205 F 
ATOM     29  C   UNL     1       8.701   6.345  23.030  0.00  0.00    +0.038 A 
ATOM     30  C   UNL     1       7.567   6.179  22.237  0.00  0.00    +0.003 A 
ATOM     31  C   UNL     1       6.889   4.959  22.234  0.00  0.00    +0.000 A 
ATOM     32  C   UNL     1       7.352   3.901  23.018  0.00  0.00    +0.008 A 
ENDBRANCH  25  26
ENDBRANCH  22  25
ENDBRANCH  18  19
ENDBRANCH  17  18
ENDBRANCH  15  17
TORSDOF 5
ENDMDL
MODEL 6
REMARK VINA RESULT:      -7.8      2.758      4.001
REMARK  Name = 
REMARK  5 active torsions:
REMARK  status: ('A' for Active; 'I' for Inactive)
REMARK    1  A    between atoms: C_8  and  O_9
REMARK    2  A    between atoms: O_9  and  C_10
REMARK    3  A    between atoms: C_10  and  C_11
REMARK    4  A    between atoms: N_14  and  C_15
REMARK    5  A    between atoms: C_15  and  C_16
REMARK                            x       y       z     vdW  Elec       q    Type
REMARK                         _______ _______ _______ _____ _____    ______ ____
ROOT
ATOM      1  N   UNL     1      10.068  -5.956  25.600  0.00  0.00    -0.327 N 
ATOM      2  H   UNL     1      10.126  -5.978  26.606  0.00  0.00    +0.145 HD
ATOM      3  H   UNL     1       9.819  -6.811  25.126  0.00  0.00    +0.145 HD
ATOM      4  C   UNL     1       9.198  -4.957  25.214  0.00  0.00    +0.215 A 
ATOM      5  N   UNL     1       9.016  -3.940  26.052  0.00  0.00    -0.199 NA
ATOM      6  C   UNL     1       8.200  -2.964  25.628  0.00  0.00    +0.133 A 
ATOM      7  N   UNL     1       7.867  -2.013  26.597  0.00  0.00    -0.342 N 
ATOM      8  H   UNL     1       8.488  -2.097  27.391  0.00  0.00    +0.144 HD
ATOM      9  H   UNL     1       7.785  -1.080  26.202  0.00  0.00    +0.144 HD
ATOM     10  C   UNL     1       7.575  -2.977  24.374  0.00  0.00    +0.082 A 
ATOM     11  C   UNL     1       7.755  -4.162  23.648  0.00  0.00    +0.081 A 
ATOM     12  C   UNL     1       7.058  -4.349  22.461  0.00  0.00    +0.029 A 
ATOM     13  C   UNL     1       6.193  -3.384  21.957  0.00  0.00    +0.006 A 
ATOM     14  C   UNL     1       6.077  -2.183  22.631  0.00  0.00    +0.046 A 
ATOM     15  C   UNL     1       6.803  -1.936  23.814  0.00  0.00    +0.133 A 
ATOM     16  N   UNL     1       8.567  -5.135  24.054  0.00  0.00    -0.214 NA
ENDROOT
BRANCH  15  17
ATOM     17  O   UNL     1       6.867  -0.679  24.441  0.00  0.00    -0.491 OA
BRANCH  17  18
ATOM     18  C   UNL     1       7.769   0.154  23.747  0.00  0.00    +0.232 C 
BRANCH  18  19
ATOM     19  C   UNL     1       7.294   1.338  22.902  0.00  0.00    +0.029 C 
ATOM     20  C   UNL     1       8.352   1.954  21.982  0.00  0.00    +0.022 C 
ATOM     21  C   UNL     1       9.548   2.511  22.764  0.00  0.00    +0.085 C 
ATOM     22  N   UNL     1       9.211   3.370  23.912  0.00  0.00    -0.298 NA
ATOM     23  C   UNL     1       8.130   2.837  24.753  0.00  0.00    +0.085 C 
ATOM     24  C   UNL     1       6.897   2.409  23.941  0.00  0.00    +0.022 C 
BRANCH  22  25
ATOM     25  C   UNL     1       8.946   4.768  23.537  0.00  0.00    +0.122 C 
BRANCH  25  26
ATOM     26  C   UNL     1       9.987   5.677  24.156  0.00  0.00    +0.002 A 
ATOM     27  C   UNL     1       9.712   6.375  25.336  0.00  0.00    +0.128 A 
ATOM     28  F   UNL     1       8.482   6.331  25.870  0.00  0.00    -0.205 F 
ATOM     29  C   UNL     1      10.718   7.038  26.032  0.00  0.00    +0.038 A 
ATOM     30  C   UNL     1      12.024   7.019  25.543  0.00  0.00    +0.003 A 
ATOM     31  C   UNL     1      12.316   6.341  24.359  0.00  0.00    +0.000 A 
ATOM     32  C   UNL     1      11.304   5.673  23.668  0.00  0.00    +0.008 A 
ENDBRANCH  25  26
ENDBRANCH  22  25
ENDBRANCH  18  19
ENDBRANCH  17  18
ENDBRANCH  15  17
TORSDOF 5
ENDMDL
MODEL 7
REMARK VINA RESULT:      -7.6      3.369      9.200
REMARK  Name = 
REMARK  5 active torsions:
REMARK  status: ('A' for Active; 'I' for Inactive)
REMARK    1  A    between atoms: C_8  and  O_9
REMARK    2  A    between atoms: O_9  and  C_10
REMARK    3  A    between atoms: C_10  and  C_11
REMARK    4  A    between atoms: N_14  and  C_15
REMARK    5  A    between atoms: C_15  and  C_16
REMARK                            x       y       z     vdW  Elec       q    Type
REMARK                         _______ _______ _______ _____ _____    ______ ____
ROOT
ATOM      1  N   UNL     1      12.814   6.360  24.067  0.00  0.00    -0.327 N 
ATOM      2  H   UNL     1      13.390   6.159  23.266  0.00  0.00    +0.145 HD
ATOM      3  H   UNL     1      12.551   7.322  24.227  0.00  0.00    +0.145 HD
ATOM      4  C   UNL     1      11.674   5.585  24.019  0.00  0.00    +0.215 A 
ATOM      5  N   UNL     1      11.734   4.443  23.340  0.00  0.00    -0.199 NA
ATOM      6  C   UNL     1      10.624   3.690  23.350  0.00  0.00    +0.133 A 
ATOM      7  N   UNL     1      10.642   2.603  22.471  0.00  0.00    -0.342 N 
ATOM      8  H   UNL     1      11.586   2.436  22.148  0.00  0.00    +0.144 HD
ATOM      9  H   UNL     1      10.163   1.794  22.857  0.00  0.00    +0.144 HD
ATOM     10  C   UNL     1       9.460   4.050  24.040  0.00  0.00    +0.082 A 
ATOM     11  C   UNL     1       9.493   5.331  24.607  0.00  0.00    +0.081 A 
ATOM     12  C   UNL     1       8.343   5.855  25.184  0.00  0.00    +0.029 A 
ATOM     13  C   UNL     1       7.153   5.136  25.232  0.00  0.00    +0.006 A 
ATOM     14  C   UNL     1       7.142   3.843  24.744  0.00  0.00    +0.046 A 
ATOM     15  C   UNL     1       8.301   3.258  24.195  0.00  0.00    +0.133 A 
ATOM     16  N   UNL     1      10.590   6.086  24.610  0.00  0.00    -0.214 NA
ENDROOT
BRANCH  15  17
ATOM     17  O   UNL     1       8.401   1.899  23.852  0.00  0.00    -0.491 OA
BRANCH  17  18
ATOM     18  C   UNL     1       8.471   1.117  25.023  0.00  0.00    +0.232 C 
BRANCH  18  19
ATOM     19  C   UNL     1       9.498  -0.005  25.191  0.00  0.00    +0.029 C 
ATOM     20  C   UNL     1      10.003  -0.632  23.889  0.00  0.00    +0.022 C 
ATOM     21  C   UNL     1       8.873  -1.282  23.080  0.00  0.00    +0.085 C 
ATOM     22  N   UNL     1       7.979  -2.171  23.840  0.00  0.00    -0.298 NA
ATOM     23  C   UNL     1       7.560  -1.622  25.138  0.00  0.00    +0.085 C 
ATOM     24  C   UNL     1       8.740  -1.099  25.973  0.00  0.00    +0.022 C 
BRANCH  22  25
ATOM     25  C   UNL     1       8.506  -3.537  23.992  0.00  0.00    +0.122 C 
BRANCH  25  26
ATOM     26  C   UNL     1       7.475  -4.544  23.526  0.00  0.00    +0.002 A 
ATOM     27  C   UNL     1       6.569  -5.106  24.432  0.00  0.00    +0.128 A 
ATOM     28  F   UNL     1       6.679  -4.841  25.742  0.00  0.00    -0.205 F 
ATOM     29  C   UNL     1       5.486  -5.860  23.992  0.00  0.00    +0.038 A 
ATOM     30  C   UNL     1       5.300  -6.072  22.626  0.00  0.00    +0.003 A 
ATOM     31  C   UNL     1       6.202  -5.533  21.708  0.00  0.00    +0.000 A 
ATOM     32  C   UNL     1       7.284  -4.773  22.154  0.00  0.00    +0.008 A 
ENDBRANCH  25  26
ENDBRANCH  22  25
ENDBRANCH  18  19
ENDBRANCH  17  18
ENDBRANCH  15  17
TORSDOF 5
ENDMDL
MODEL 8
REMARK VINA RESULT:      -7.5      3.549      8.215
REMARK  Name = 
REMARK  5 active torsions:
REMARK  status: ('A' for Active; 'I' for Inactive)
REMARK    1  A    between atoms: C_8  and  O_9
REMARK    2  A    between atoms: O_9  and  C_10
REMARK    3  A    between atoms: C_10  and  C_11
REMARK    4  A    between atoms: N_14  and  C_15
REMARK    5  A    between atoms: C_15  and  C_16
REMARK                            x       y       z     vdW  Elec       q    Type
REMARK                         _______ _______ _______ _____ _____    ______ ____
ROOT
ATOM      1  N   UNL     1       5.963   5.625  22.236  0.00  0.00    -0.327 N 
ATOM      2  H   UNL     1       5.971   5.596  21.229  0.00  0.00    +0.145 HD
ATOM      3  H   UNL     1       5.068   5.708  22.696  0.00  0.00    +0.145 HD
ATOM      4  C   UNL     1       6.621   4.518  22.731  0.00  0.00    +0.215 A 
ATOM      5  N   UNL     1       7.534   3.944  21.951  0.00  0.00    -0.199 NA
ATOM      6  C   UNL     1       8.188   2.899  22.478  0.00  0.00    +0.133 A 
ATOM      7  N   UNL     1       8.990   2.192  21.577  0.00  0.00    -0.342 N 
ATOM      8  H   UNL     1       9.120   2.733  20.732  0.00  0.00    +0.144 HD
ATOM      9  H   UNL     1       9.842   1.850  22.013  0.00  0.00    +0.144 HD
ATOM     10  C   UNL     1       7.961   2.427  23.777  0.00  0.00    +0.082 A 
ATOM     11  C   UNL     1       6.890   3.043  24.439  0.00  0.00    +0.081 A 
ATOM     12  C   UNL     1       6.475   2.554  25.671  0.00  0.00    +0.029 A 
ATOM     13  C   UNL     1       7.103   1.473  26.281  0.00  0.00    +0.006 A 
ATOM     14  C   UNL     1       8.208   0.916  25.666  0.00  0.00    +0.046 A 
ATOM     15  C   UNL     1       8.690   1.415  24.438  0.00  0.00    +0.133 A 
ATOM     16  N   UNL     1       6.237   4.086  23.930  0.00  0.00    -0.214 NA
ENDROOT
BRANCH  15  17
ATOM     17  O   UNL     1       9.905   1.014  23.858  0.00  0.00    -0.491 OA
BRANCH  17  18
ATOM     18  C   UNL     1      10.165  -0.335  24.180  0.00  0.00    +0.232 C 
BRANCH  18  19
ATOM     19  C   UNL     1      10.306  -1.414  23.104  0.00  0.00    +0.029 C 
ATOM     20  C   UNL     1       9.353  -1.283  21.914  0.00  0.00    +0.022 C 
ATOM     21  C   UNL     1       7.881  -1.369  22.335  0.00  0.00    +0.085 C 
ATOM     22  N   UNL     1       7.540  -2.492  23.225  0.00  0.00    -0.298 NA
ATOM     23  C   UNL     1       8.499  -2.690  24.321  0.00  0.00    +0.085 C 
ATOM     24  C   UNL     1       9.958  -2.727  23.839  0.00  0.00    +0.022 C 
BRANCH  22  25
ATOM     25  C   UNL     1       7.294  -3.752  22.507  0.00  0.00    +0.122 C 
BRANCH  25  26
ATOM     26  C   UNL     1       5.962  -4.337  22.928  0.00  0.00    +0.002 A 
ATOM     27  C   UNL     1       5.739  -5.716  22.871  0.00  0.00    +0.128 A 
ATOM     28  F   UNL     1       6.668  -6.524  22.336  0.00  0.00    -0.205 F 
ATOM     29  C   UNL     1       4.612  -6.289  23.452  0.00  0.00    +0.038 A 
ATOM     30  C   UNL     1       3.679  -5.477  24.095  0.00  0.00    +0.003 A 
ATOM     31  C   UNL     1       3.875  -4.096  24.150  0.00  0.00    +0.000 A 
ATOM     32  C   UNL     1       5.010  -3.528  23.570  0.00  0.00    +0.008 A 
ENDBRANCH  25  26
ENDBRANCH  22  25
ENDBRANCH  18  19
ENDBRANCH  17  18
ENDBRANCH  15  17
TORSDOF 5
ENDMDL
MODEL 9
REMARK VINA RESULT:      -7.5      1.803      2.871
REMARK  Name = 
REMARK  5 active torsions:
REMARK  status: ('A' for Active; 'I' for Inactive)
REMARK    1  A    between atoms: C_8  and  O_9
REMARK    2  A    between atoms: O_9  and  C_10
REMARK    3  A    between atoms: C_10  and  C_11
REMARK    4  A    between atoms: N_14  and  C_15
REMARK    5  A    between atoms: C_15  and  C_16
REMARK                            x       y       z     vdW  Elec       q    Type
REMARK                         _______ _______ _______ _____ _____    ______ ____
ROOT
ATOM      1  N   UNL     1       2.163  -8.198  25.820  0.00  0.00    -0.327 N 
ATOM      2  H   UNL     1       1.993  -8.831  25.056  0.00  0.00    +0.145 HD
ATOM      3  H   UNL     1       2.184  -8.582  26.753  0.00  0.00    +0.145 HD
ATOM      4  C   UNL     1       3.336  -7.509  25.592  0.00  0.00    +0.215 A 
ATOM      5  N   UNL     1       3.734  -7.371  24.330  0.00  0.00    -0.199 NA
ATOM      6  C   UNL     1       4.853  -6.658  24.137  0.00  0.00    +0.133 A 
ATOM      7  N   UNL     1       5.359  -6.696  22.835  0.00  0.00    -0.342 N 
ATOM      8  H   UNL     1       4.660  -7.067  22.204  0.00  0.00    +0.144 HD
ATOM      9  H   UNL     1       5.768  -5.808  22.559  0.00  0.00    +0.144 HD
ATOM     10  C   UNL     1       5.574  -6.065  25.182  0.00  0.00    +0.082 A 
ATOM     11  C   UNL     1       5.115  -6.394  26.464  0.00  0.00    +0.081 A 
ATOM     12  C   UNL     1       5.842  -5.990  27.577  0.00  0.00    +0.029 A 
ATOM     13  C   UNL     1       7.013  -5.249  27.458  0.00  0.00    +0.006 A 
ATOM     14  C   UNL     1       7.423  -4.857  26.198  0.00  0.00    +0.046 A 
ATOM     15  C   UNL     1       6.687  -5.206  25.048  0.00  0.00    +0.133 A 
ATOM     16  N   UNL     1       4.001  -7.095  26.669  0.00  0.00    -0.214 NA
ENDROOT
BRANCH  15  17
ATOM     17  O   UNL     1       6.950  -4.690  23.768  0.00  0.00    -0.491 OA
BRANCH  17  18
ATOM     18  C   UNL     1       7.456  -3.378  23.879  0.00  0.00    +0.232 C 
BRANCH  18  19
ATOM     19  C   UNL     1       8.728  -2.934  23.152  0.00  0.00    +0.029 C 
ATOM     20  C   UNL     1       9.814  -2.325  24.042  0.00  0.00    +0.022 C 
ATOM     21  C   UNL     1       9.334  -1.056  24.758  0.00  0.00    +0.085 C 
ATOM     22  N   UNL     1       8.662  -0.062  23.905  0.00  0.00    -0.298 NA
ATOM     23  C   UNL     1       7.681  -0.643  22.977  0.00  0.00    +0.085 C 
ATOM     24  C   UNL     1       8.244  -1.833  22.183  0.00  0.00    +0.022 C 
BRANCH  22  25
ATOM     25  C   UNL     1       9.597   0.826  23.195  0.00  0.00    +0.122 C 
BRANCH  25  26
ATOM     26  C   UNL     1       9.058   2.242  23.183  0.00  0.00    +0.002 A 
ATOM     27  C   UNL     1       8.203   2.669  22.163  0.00  0.00    +0.128 A 
ATOM     28  F   UNL     1       7.941   1.861  21.124  0.00  0.00    -0.205 F 
ATOM     29  C   UNL     1       7.531   3.885  22.248  0.00  0.00    +0.038 A 
ATOM     30  C   UNL     1       7.718   4.700  23.364  0.00  0.00    +0.003 A 
ATOM     31  C   UNL     1       8.579   4.298  24.386  0.00  0.00    +0.000 A 
ATOM     32  C   UNL     1       9.247   3.076  24.297  0.00  0.00    +0.008 A 
ENDBRANCH  25  26
ENDBRANCH  22  25
ENDBRANCH  18  19
ENDBRANCH  17  18
ENDBRANCH  15  17
TORSDOF 5
ENDMDL
