MODEL 1
REMARK VINA RESULT:      -7.5      0.000      0.000
REMARK  Name = 
REMARK  4 active torsions:
REMARK  status: ('A' for Active; 'I' for Inactive)
REMARK    1  A    between atoms: N_9  and  N_11
REMARK    2  A    between atoms: N_14  and  S_15
REMARK    3  A    between atoms: S_15  and  C_18
REMARK    4  A    between atoms: C_21  and  C_22
REMARK                            x       y       z     vdW  Elec       q    Type
REMARK                         _______ _______ _______ _____ _____    ______ ____
ROOT
ATOM      1  N   UNL     1       9.020  -1.491  25.904  0.00  0.00    -0.231 N 
ATOM      2  H   UNL     1       9.912  -1.792  26.274  0.00  0.00    +0.171 HD
ATOM      3  C   UNL     1       7.883  -2.253  26.106  0.00  0.00    +0.333 C 
ATOM      4  N   UNL     1       8.135  -3.493  26.689  0.00  0.00    -0.168 N 
ATOM      5  H   UNL     1       9.074  -3.851  26.796  0.00  0.00    +0.178 HD
ATOM      6  O   UNL     1       6.758  -1.889  25.797  0.00  0.00    -0.250 OA
ENDROOT
BRANCH   1   9
ATOM      7  C   UNL     1      10.618   0.590  23.690  0.00  0.00    +0.009 C 
ATOM      8  C   UNL     1      10.199   0.453  25.149  0.00  0.00    +0.109 C 
ATOM      9  N   UNL     1       8.925  -0.292  25.160  0.00  0.00    -0.225 NA
ATOM     10  C   UNL     1       8.499  -0.499  23.770  0.00  0.00    +0.109 C 
ATOM     11  C   UNL     1       9.790  -0.462  22.966  0.00  0.00    +0.009 C 
ATOM     12  C   UNL     1       9.659   0.067  21.549  0.00  0.00    +0.005 C 
ATOM     13  C   UNL     1       9.558   1.580  21.703  0.00  0.00    +0.001 C 
ATOM     14  C   UNL     1      10.236   1.921  23.031  0.00  0.00    +0.005 C 
ENDBRANCH   1   9
BRANCH   4  15
ATOM     15  S   UNL     1       6.962  -4.678  26.841  0.00  0.00    +0.076 S 
ATOM     16  O   UNL     1       5.734  -4.066  27.292  0.00  0.00    -0.150 OA
ATOM     17  O   UNL     1       7.584  -5.745  27.598  0.00  0.00    -0.150 OA
BRANCH  15  18
ATOM     18  C   UNL     1       6.768  -5.258  25.173  0.00  0.00    +0.109 A 
ATOM     19  C   UNL     1       5.511  -5.654  24.715  0.00  0.00    +0.029 A 
ATOM     20  C   UNL     1       5.322  -5.876  23.350  0.00  0.00    +0.005 A 
ATOM     21  C   UNL     1       6.383  -5.718  22.452  0.00  0.00    -0.050 A 
ATOM     22  C   UNL     1       6.127  -5.815  20.976  0.00  0.00    +0.044 C 
ATOM     23  C   UNL     1       7.662  -5.419  22.941  0.00  0.00    +0.005 A 
ATOM     24  C   UNL     1       7.860  -5.192  24.303  0.00  0.00    +0.029 A 
ENDBRANCH  15  18
ENDBRANCH   4  15
TORSDOF 3
ENDMDL
MODEL 2
REMARK VINA RESULT:      -7.2      2.043      2.969
REMARK  Name = 
REMARK  4 active torsions:
REMARK  status: ('A' for Active; 'I' for Inactive)
REMARK    1  A    between atoms: N_9  and  N_11
REMARK    2  A    between atoms: N_14  and  S_15
REMARK    3  A    between atoms: S_15  and  C_18
REMARK    4  A    between atoms: C_21  and  C_22
REMARK                            x       y       z     vdW  Elec       q    Type
REMARK                         _______ _______ _______ _____ _____    ______ ____
ROOT
ATOM      1  N   UNL     1       8.665  -1.322  23.577  0.00  0.00    -0.231 N 
ATOM      2  H   UNL     1       7.691  -1.072  23.466  0.00  0.00    +0.171 HD
ATOM      3  C   UNL     1       9.023  -2.598  23.971  0.00  0.00    +0.333 C 
ATOM      4  N   UNL     1       7.942  -3.394  24.346  0.00  0.00    -0.168 N 
ATOM      5  H   UNL     1       7.015  -3.009  24.470  0.00  0.00    +0.178 HD
ATOM      6  O   UNL     1      10.176  -3.001  24.003  0.00  0.00    -0.250 OA
ENDROOT
BRANCH   1   9
ATOM      7  C   UNL     1       9.367   1.781  22.287  0.00  0.00    +0.009 C 
ATOM      8  C   UNL     1       9.528   0.288  22.026  0.00  0.00    +0.109 C 
ATOM      9  N   UNL     1       9.677  -0.362  23.343  0.00  0.00    -0.225 NA
ATOM     10  C   UNL     1       9.738   0.686  24.371  0.00  0.00    +0.109 C 
ATOM     11  C   UNL     1       8.994   1.863  23.760  0.00  0.00    +0.009 C 
ATOM     12  C   UNL     1       9.474   3.234  24.199  0.00  0.00    +0.005 C 
ATOM     13  C   UNL     1      10.759   3.469  23.412  0.00  0.00    +0.001 C 
ATOM     14  C   UNL     1      10.656   2.601  22.157  0.00  0.00    +0.005 C 
ENDBRANCH   1   9
BRANCH   4  15
ATOM     15  S   UNL     1       8.127  -4.896  25.060  0.00  0.00    +0.076 S 
ATOM     16  O   UNL     1       8.617  -4.718  26.408  0.00  0.00    -0.150 OA
ATOM     17  O   UNL     1       8.863  -5.693  24.100  0.00  0.00    -0.150 OA
BRANCH  15  18
ATOM     18  C   UNL     1       6.465  -5.523  25.101  0.00  0.00    +0.109 A 
ATOM     19  C   UNL     1       5.738  -5.647  23.917  0.00  0.00    +0.029 A 
ATOM     20  C   UNL     1       4.537  -6.358  23.927  0.00  0.00    +0.005 A 
ATOM     21  C   UNL     1       4.059  -6.929  25.112  0.00  0.00    -0.050 A 
ATOM     22  C   UNL     1       2.847  -7.813  25.074  0.00  0.00    +0.044 C 
ATOM     23  C   UNL     1       4.751  -6.708  26.311  0.00  0.00    +0.005 A 
ATOM     24  C   UNL     1       5.953  -6.002  26.311  0.00  0.00    +0.029 A 
ENDBRANCH  15  18
ENDBRANCH   4  15
TORSDOF 3
ENDMDL
MODEL 3
REMARK VINA RESULT:      -7.1      2.679      3.672
REMARK  Name = 
REMARK  4 active torsions:
REMARK  status: ('A' for Active; 'I' for Inactive)
REMARK    1  A    between atoms: N_9  and  N_11
REMARK    2  A    between atoms: N_14  and  S_15
REMARK    3  A    between atoms: S_15  and  C_18
REMARK    4  A    between atoms: C_21  and  C_22
REMARK                            x       y       z     vdW  Elec       q    Type
REMARK                         _______ _______ _______ _____ _____    ______ ____
ROOT
ATOM      1  N   UNL     1       8.293  -1.423  22.977  0.00  0.00    -0.231 N 
ATOM      2  H   UNL     1       9.242  -1.753  22.864  0.00  0.00    +0.171 HD
ATOM      3  C   UNL     1       7.227  -2.299  22.882  0.00  0.00    +0.333 C 
ATOM      4  N   UNL     1       7.589  -3.578  22.462  0.00  0.00    -0.168 N 
ATOM      5  H   UNL     1       8.513  -3.781  22.107  0.00  0.00    +0.178 HD
ATOM      6  O   UNL     1       6.071  -1.993  23.132  0.00  0.00    -0.250 OA
ENDROOT
BRANCH   1   9
ATOM      7  C   UNL     1       9.308   1.373  24.692  0.00  0.00    +0.009 C 
ATOM      8  C   UNL     1       8.227   0.300  24.641  0.00  0.00    +0.109 C 
ATOM      9  N   UNL     1       8.040  -0.052  23.220  0.00  0.00    -0.225 NA
ATOM     10  C   UNL     1       8.870   0.848  22.409  0.00  0.00    +0.109 C 
ATOM     11  C   UNL     1       9.997   1.270  23.339  0.00  0.00    +0.009 C 
ATOM     12  C   UNL     1      10.558   2.659  23.092  0.00  0.00    +0.005 C 
ATOM     13  C   UNL     1       9.530   3.610  23.692  0.00  0.00    +0.001 C 
ATOM     14  C   UNL     1       8.785   2.812  24.764  0.00  0.00    +0.005 C 
ENDBRANCH   1   9
BRANCH   4  15
ATOM     15  S   UNL     1       6.464  -4.752  22.066  0.00  0.00    +0.076 S 
ATOM     16  O   UNL     1       7.083  -5.717  21.186  0.00  0.00    -0.150 OA
ATOM     17  O   UNL     1       5.275  -4.031  21.661  0.00  0.00    -0.150 OA
BRANCH  15  18
ATOM     18  C   UNL     1       6.112  -5.509  23.635  0.00  0.00    +0.109 A 
ATOM     19  C   UNL     1       6.858  -5.157  24.760  0.00  0.00    +0.029 A 
ATOM     20  C   UNL     1       6.423  -5.569  26.022  0.00  0.00    +0.005 A 
ATOM     21  C   UNL     1       5.261  -6.337  26.156  0.00  0.00    -0.050 A 
ATOM     22  C   UNL     1       4.728  -6.644  27.525  0.00  0.00    +0.044 C 
ATOM     23  C   UNL     1       4.581  -6.766  25.007  0.00  0.00    +0.005 A 
ATOM     24  C   UNL     1       5.006  -6.357  23.743  0.00  0.00    +0.029 A 
ENDBRANCH  15  18
ENDBRANCH   4  15
TORSDOF 3
ENDMDL
MODEL 4
REMARK VINA RESULT:      -7.0      2.891      7.599
REMARK  Name = 
REMARK  4 active torsions:
REMARK  status: ('A' for Active; 'I' for Inactive)
REMARK    1  A    between atoms: N_9  and  N_11
REMARK    2  A    between atoms: N_14  and  S_15
REMARK    3  A    between atoms: S_15  and  C_18
REMARK    4  A    between atoms: C_21  and  C_22
REMARK                            x       y       z     vdW  Elec       q    Type
REMARK                         _______ _______ _______ _____ _____    ______ ____
ROOT
ATOM      1  N   UNL     1       7.158  -3.569  25.838  0.00  0.00    -0.231 N 
ATOM      2  H   UNL     1       7.078  -2.756  26.434  0.00  0.00    +0.171 HD
ATOM      3  C   UNL     1       7.965  -3.541  24.715  0.00  0.00    +0.333 C 
ATOM      4  N   UNL     1       8.479  -2.279  24.425  0.00  0.00    -0.168 N 
ATOM      5  H   UNL     1       8.153  -1.449  24.901  0.00  0.00    +0.178 HD
ATOM      6  O   UNL     1       8.205  -4.522  24.026  0.00  0.00    -0.250 OA
ENDROOT
BRANCH   1   9
ATOM      7  C   UNL     1       5.954  -5.580  28.347  0.00  0.00    +0.009 C 
ATOM      8  C   UNL     1       7.026  -5.487  27.268  0.00  0.00    +0.109 C 
ATOM      9  N   UNL     1       6.433  -4.747  26.138  0.00  0.00    -0.225 NA
ATOM     10  C   UNL     1       5.017  -4.501  26.440  0.00  0.00    +0.109 C 
ATOM     11  C   UNL     1       4.944  -4.510  27.959  0.00  0.00    +0.009 C 
ATOM     12  C   UNL     1       3.630  -4.997  28.544  0.00  0.00    +0.005 C 
ATOM     13  C   UNL     1       3.679  -6.514  28.406  0.00  0.00    +0.001 C 
ATOM     14  C   UNL     1       5.160  -6.892  28.357  0.00  0.00    +0.005 C 
ENDBRANCH   1   9
BRANCH   4  15
ATOM     15  S   UNL     1       9.304  -1.940  23.009  0.00  0.00    +0.076 S 
ATOM     16  O   UNL     1       8.433  -2.202  21.886  0.00  0.00    -0.150 OA
ATOM     17  O   UNL     1      10.581  -2.612  23.133  0.00  0.00    -0.150 OA
BRANCH  15  18
ATOM     18  C   UNL     1       9.611  -0.194  23.137  0.00  0.00    +0.109 A 
ATOM     19  C   UNL     1       9.938   0.366  24.372  0.00  0.00    +0.029 A 
ATOM     20  C   UNL     1      10.410   1.679  24.421  0.00  0.00    +0.005 A 
ATOM     21  C   UNL     1      10.541   2.430  23.247  0.00  0.00    -0.050 A 
ATOM     22  C   UNL     1      11.188   3.783  23.301  0.00  0.00    +0.044 C 
ATOM     23  C   UNL     1      10.113   1.886  22.029  0.00  0.00    +0.005 A 
ATOM     24  C   UNL     1       9.643   0.574  21.970  0.00  0.00    +0.029 A 
ENDBRANCH  15  18
ENDBRANCH   4  15
TORSDOF 3
ENDMDL
MODEL 5
REMARK VINA RESULT:      -7.0      1.680      2.278
REMARK  Name = 
REMARK  4 active torsions:
REMARK  status: ('A' for Active; 'I' for Inactive)
REMARK    1  A    between atoms: N_9  and  N_11
REMARK    2  A    between atoms: N_14  and  S_15
REMARK    3  A    between atoms: S_15  and  C_18
REMARK    4  A    between atoms: C_21  and  C_22
REMARK                            x       y       z     vdW  Elec       q    Type
REMARK                         _______ _______ _______ _____ _____    ______ ____
ROOT
ATOM      1  N   UNL     1       9.626  -1.223  24.120  0.00  0.00    -0.231 N 
ATOM      2  H   UNL     1      10.323  -1.428  23.418  0.00  0.00    +0.171 HD
ATOM      3  C   UNL     1       9.123  -2.228  24.927  0.00  0.00    +0.333 C 
ATOM      4  N   UNL     1       9.539  -3.506  24.556  0.00  0.00    -0.168 N 
ATOM      5  H   UNL     1      10.022  -3.677  23.685  0.00  0.00    +0.178 HD
ATOM      6  O   UNL     1       8.377  -2.030  25.874  0.00  0.00    -0.250 OA
ENDROOT
BRANCH   1   9
ATOM      7  C   UNL     1       9.793   2.003  22.958  0.00  0.00    +0.009 C 
ATOM      8  C   UNL     1      10.210   1.100  24.113  0.00  0.00    +0.109 C 
ATOM      9  N   UNL     1       9.141   0.097  24.279  0.00  0.00    -0.225 NA
ATOM     10  C   UNL     1       8.046   0.432  23.359  0.00  0.00    +0.109 C 
ATOM     11  C   UNL     1       8.716   1.206  22.234  0.00  0.00    +0.009 C 
ATOM     12  C   UNL     1       7.851   2.258  21.564  0.00  0.00    +0.005 C 
ATOM     13  C   UNL     1       7.834   3.430  22.538  0.00  0.00    +0.001 C 
ATOM     14  C   UNL     1       9.108   3.310  23.374  0.00  0.00    +0.005 C 
ENDBRANCH   1   9
BRANCH   4  15
ATOM     15  S   UNL     1       8.905  -4.897  25.236  0.00  0.00    +0.076 S 
ATOM     16  O   UNL     1       8.836  -4.729  26.670  0.00  0.00    -0.150 OA
ATOM     17  O   UNL     1       9.653  -5.991  24.651  0.00  0.00    -0.150 OA
BRANCH  15  18
ATOM     18  C   UNL     1       7.264  -4.958  24.558  0.00  0.00    +0.109 A 
ATOM     19  C   UNL     1       7.082  -5.206  23.197  0.00  0.00    +0.029 A 
ATOM     20  C   UNL     1       5.800  -5.490  22.722  0.00  0.00    +0.005 A 
ATOM     21  C   UNL     1       4.708  -5.513  23.597  0.00  0.00    -0.050 A 
ATOM     22  C   UNL     1       3.367  -5.965  23.097  0.00  0.00    +0.044 C 
ATOM     23  C   UNL     1       4.894  -5.163  24.941  0.00  0.00    +0.005 A 
ATOM     24  C   UNL     1       6.171  -4.881  25.426  0.00  0.00    +0.029 A 
ENDBRANCH  15  18
ENDBRANCH   4  15
TORSDOF 3
ENDMDL
MODEL 6
REMARK VINA RESULT:      -6.9      3.522      7.969
REMARK  Name = 
REMARK  4 active torsions:
REMARK  status: ('A' for Active; 'I' for Inactive)
REMARK    1  A    between atoms: N_9  and  N_11
REMARK    2  A    between atoms: N_14  and  S_15
REMARK    3  A    between atoms: S_15  and  C_18
REMARK    4  A    between atoms: C_21  and  C_22
REMARK                            x       y       z     vdW  Elec       q    Type
REMARK                         _______ _______ _______ _____ _____    ______ ____
ROOT
ATOM      1  N   UNL     1       7.393  -1.552  23.929  0.00  0.00    -0.231 N 
ATOM      2  H   UNL     1       6.508  -1.075  24.036  0.00  0.00    +0.171 HD
ATOM      3  C   UNL     1       8.568  -0.834  23.794  0.00  0.00    +0.333 C 
ATOM      4  N   UNL     1       8.372   0.539  23.652  0.00  0.00    -0.168 N 
ATOM      5  H   UNL     1       7.454   0.933  23.499  0.00  0.00    +0.178 HD
ATOM      6  O   UNL     1       9.679  -1.342  23.788  0.00  0.00    -0.250 OA
ENDROOT
BRANCH   1   9
ATOM      7  C   UNL     1       5.599  -4.427  23.379  0.00  0.00    +0.009 C 
ATOM      8  C   UNL     1       6.224  -3.571  24.475  0.00  0.00    +0.109 C 
ATOM      9  N   UNL     1       7.442  -2.966  23.902  0.00  0.00    -0.225 NA
ATOM     10  C   UNL     1       7.642  -3.518  22.556  0.00  0.00    +0.109 C 
ATOM     11  C   UNL     1       6.250  -3.924  22.099  0.00  0.00    +0.009 C 
ATOM     12  C   UNL     1       6.196  -5.111  21.154  0.00  0.00    +0.005 C 
ATOM     13  C   UNL     1       6.402  -6.331  22.045  0.00  0.00    +0.001 C 
ATOM     14  C   UNL     1       5.951  -5.918  23.446  0.00  0.00    +0.005 C 
ENDBRANCH   1   9
BRANCH   4  15
ATOM     15  S   UNL     1       9.611   1.595  23.262  0.00  0.00    +0.076 S 
ATOM     16  O   UNL     1      10.114   1.262  21.949  0.00  0.00    -0.150 OA
ATOM     17  O   UNL     1      10.489   1.606  24.415  0.00  0.00    -0.150 OA
BRANCH  15  18
ATOM     18  C   UNL     1       8.788   3.169  23.211  0.00  0.00    +0.109 A 
ATOM     19  C   UNL     1       9.382   4.284  23.802  0.00  0.00    +0.029 A 
ATOM     20  C   UNL     1       8.853   5.551  23.551  0.00  0.00    +0.005 A 
ATOM     21  C   UNL     1       7.732   5.702  22.726  0.00  0.00    -0.050 A 
ATOM     22  C   UNL     1       7.269   7.078  22.348  0.00  0.00    +0.044 C 
ATOM     23  C   UNL     1       7.089   4.563  22.223  0.00  0.00    +0.005 A 
ATOM     24  C   UNL     1       7.612   3.293  22.466  0.00  0.00    +0.029 A 
ENDBRANCH  15  18
ENDBRANCH   4  15
TORSDOF 3
ENDMDL
MODEL 7
REMARK VINA RESULT:      -6.8      3.422      4.970
REMARK  Name = 
REMARK  4 active torsions:
REMARK  status: ('A' for Active; 'I' for Inactive)
REMARK    1  A    between atoms: N_9  and  N_11
REMARK    2  A    between atoms: N_14  and  S_15
REMARK    3  A    between atoms: S_15  and  C_18
REMARK    4  A    between atoms: C_21  and  C_22
REMARK                            x       y       z     vdW  Elec       q    Type
REMARK                         _______ _______ _______ _____ _____    ______ ____
ROOT
ATOM      1  N   UNL     1       8.181   1.676  23.292  0.00  0.00    -0.231 N 
ATOM      2  H   UNL     1       7.574   1.580  24.095  0.00  0.00    +0.171 HD
ATOM      3  C   UNL     1       8.650   0.557  22.626  0.00  0.00    +0.333 C 
ATOM      4  N   UNL     1       8.347  -0.644  23.267  0.00  0.00    -0.168 N 
ATOM      5  H   UNL     1       7.969  -0.667  24.203  0.00  0.00    +0.178 HD
ATOM      6  O   UNL     1       9.280   0.602  21.581  0.00  0.00    -0.250 OA
ENDROOT
BRANCH   1   9
ATOM      7  C   UNL     1       7.645   5.053  23.590  0.00  0.00    +0.009 C 
ATOM      8  C   UNL     1       7.416   3.860  22.671  0.00  0.00    +0.109 C 
ATOM      9  N   UNL     1       8.573   2.959  22.844  0.00  0.00    -0.225 NA
ATOM     10  C   UNL     1       9.541   3.617  23.730  0.00  0.00    +0.109 C 
ATOM     11  C   UNL     1       8.705   4.570  24.570  0.00  0.00    +0.009 C 
ATOM     12  C   UNL     1       9.413   5.835  25.018  0.00  0.00    +0.005 C 
ATOM     13  C   UNL     1       9.433   6.731  23.785  0.00  0.00    +0.001 C 
ATOM     14  C   UNL     1       8.261   6.282  22.911  0.00  0.00    +0.005 C 
ENDBRANCH   1   9
BRANCH   4  15
ATOM     15  S   UNL     1       8.981  -2.114  22.780  0.00  0.00    +0.076 S 
ATOM     16  O   UNL     1      10.413  -1.983  22.635  0.00  0.00    -0.150 OA
ATOM     17  O   UNL     1       8.157  -2.543  21.668  0.00  0.00    -0.150 OA
BRANCH  15  18
ATOM     18  C   UNL     1       8.610  -3.180  24.153  0.00  0.00    +0.109 A 
ATOM     19  C   UNL     1       8.793  -2.723  25.458  0.00  0.00    +0.029 A 
ATOM     20  C   UNL     1       8.277  -3.468  26.519  0.00  0.00    +0.005 A 
ATOM     21  C   UNL     1       7.595  -4.667  26.279  0.00  0.00    -0.050 A 
ATOM     22  C   UNL     1       6.920  -5.377  27.416  0.00  0.00    +0.044 C 
ATOM     23  C   UNL     1       7.508  -5.161  24.971  0.00  0.00    +0.005 A 
ATOM     24  C   UNL     1       8.018  -4.422  23.904  0.00  0.00    +0.029 A 
ENDBRANCH  15  18
ENDBRANCH   4  15
TORSDOF 3
ENDMDL
MODEL 8
REMARK VINA RESULT:      -6.7      2.847      7.363
REMARK  Name = 
REMARK  4 active torsions:
REMARK  status: ('A' for Active; 'I' for Inactive)
REMARK    1  A    between atoms: N_9  and  N_11
REMARK    2  A    between atoms: N_14  and  S_15
REMARK    3  A    between atoms: S_15  and  C_18
REMARK    4  A    between atoms: C_21  and  C_22
REMARK                            x       y       z     vdW  Elec       q    Type
REMARK                         _______ _______ _______ _____ _____    ______ ____
ROOT
ATOM      1  N   UNL     1       5.321  -4.501  24.064  0.00  0.00    -0.231 N 
ATOM      2  H   UNL     1       5.076  -3.766  23.413  0.00  0.00    +0.171 HD
ATOM      3  C   UNL     1       6.516  -4.455  24.760  0.00  0.00    +0.333 C 
ATOM      4  N   UNL     1       7.365  -3.430  24.347  0.00  0.00    -0.168 N 
ATOM      5  H   UNL     1       7.183  -2.889  23.513  0.00  0.00    +0.178 HD
ATOM      6  O   UNL     1       6.815  -5.238  25.648  0.00  0.00    -0.250 OA
ENDROOT
BRANCH   1   9
ATOM      7  C   UNL     1       2.103  -5.451  24.787  0.00  0.00    +0.009 C 
ATOM      8  C   UNL     1       3.507  -5.359  25.372  0.00  0.00    +0.109 C 
ATOM      9  N   UNL     1       4.449  -5.597  24.261  0.00  0.00    -0.225 NA
ATOM     10  C   UNL     1       3.673  -5.950  23.065  0.00  0.00    +0.109 C 
ATOM     11  C   UNL     1       2.315  -5.303  23.287  0.00  0.00    +0.009 C 
ATOM     12  C   UNL     1       1.138  -6.031  22.663  0.00  0.00    +0.005 C 
ATOM     13  C   UNL     1       0.873  -7.213  23.588  0.00  0.00    +0.001 C 
ATOM     14  C   UNL     1       1.420  -6.813  24.959  0.00  0.00    +0.005 C 
ENDBRANCH   1   9
BRANCH   4  15
ATOM     15  S   UNL     1       8.946  -3.294  24.882  0.00  0.00    +0.076 S 
ATOM     16  O   UNL     1       9.690  -4.453  24.445  0.00  0.00    -0.150 OA
ATOM     17  O   UNL     1       8.852  -2.956  26.288  0.00  0.00    -0.150 OA
BRANCH  15  18
ATOM     18  C   UNL     1       9.529  -1.848  24.030  0.00  0.00    +0.109 A 
ATOM     19  C   UNL     1       9.575  -1.832  22.636  0.00  0.00    +0.029 A 
ATOM     20  C   UNL     1       9.801  -0.623  21.976  0.00  0.00    +0.005 A 
ATOM     21  C   UNL     1       9.995   0.557  22.702  0.00  0.00    -0.050 A 
ATOM     22  C   UNL     1      10.088   1.868  21.977  0.00  0.00    +0.044 C 
ATOM     23  C   UNL     1      10.046   0.505  24.102  0.00  0.00    +0.005 A 
ATOM     24  C   UNL     1       9.818  -0.698  24.771  0.00  0.00    +0.029 A 
ENDBRANCH  15  18
ENDBRANCH   4  15
TORSDOF 3
ENDMDL
MODEL 9
REMARK VINA RESULT:      -6.7      2.871      7.644
REMARK  Name = 
REMARK  4 active torsions:
REMARK  status: ('A' for Active; 'I' for Inactive)
REMARK    1  A    between atoms: N_9  and  N_11
REMARK    2  A    between atoms: N_14  and  S_15
REMARK    3  A    between atoms: S_15  and  C_18
REMARK    4  A    between atoms: C_21  and  C_22
REMARK                            x       y       z     vdW  Elec       q    Type
REMARK                         _______ _______ _______ _____ _____    ______ ____
ROOT
ATOM      1  N   UNL     1       6.243  -3.829  24.077  0.00  0.00    -0.231 N 
ATOM      2  H   UNL     1       5.735  -3.033  24.440  0.00  0.00    +0.171 HD
ATOM      3  C   UNL     1       7.551  -3.692  23.650  0.00  0.00    +0.333 C 
ATOM      4  N   UNL     1       7.995  -2.371  23.617  0.00  0.00    -0.168 N 
ATOM      5  H   UNL     1       7.361  -1.593  23.736  0.00  0.00    +0.178 HD
ATOM      6  O   UNL     1       8.261  -4.630  23.321  0.00  0.00    -0.250 OA
ENDROOT
BRANCH   1   9
ATOM      7  C   UNL     1       3.544  -5.716  25.046  0.00  0.00    +0.009 C 
ATOM      8  C   UNL     1       5.036  -5.515  25.278  0.00  0.00    +0.109 C 
ATOM      9  N   UNL     1       5.617  -5.094  23.987  0.00  0.00    -0.225 NA
ATOM     10  C   UNL     1       4.563  -5.154  22.966  0.00  0.00    +0.109 C 
ATOM     11  C   UNL     1       3.267  -4.978  23.744  0.00  0.00    +0.009 C 
ATOM     12  C   UNL     1       2.057  -5.681  23.158  0.00  0.00    +0.005 C 
ATOM     13  C   UNL     1       2.236  -7.148  23.532  0.00  0.00    +0.001 C 
ATOM     14  C   UNL     1       3.121  -7.165  24.779  0.00  0.00    +0.005 C 
ENDBRANCH   1   9
BRANCH   4  15
ATOM     15  S   UNL     1       9.458  -1.923  22.939  0.00  0.00    +0.076 S 
ATOM     16  O   UNL     1       9.363  -2.037  21.501  0.00  0.00    -0.150 OA
ATOM     17  O   UNL     1      10.468  -2.654  23.678  0.00  0.00    -0.150 OA
BRANCH  15  18
ATOM     18  C   UNL     1       9.602  -0.213  23.399  0.00  0.00    +0.109 A 
ATOM     19  C   UNL     1      10.094   0.716  22.481  0.00  0.00    +0.029 A 
ATOM     20  C   UNL     1       9.978   2.078  22.763  0.00  0.00    +0.005 A 
ATOM     21  C   UNL     1       9.388   2.508  23.957  0.00  0.00    -0.050 A 
ATOM     22  C   UNL     1       9.138   3.972  24.175  0.00  0.00    +0.044 C 
ATOM     23  C   UNL     1       8.992   1.561  24.911  0.00  0.00    +0.005 A 
ATOM     24  C   UNL     1       9.101   0.198  24.637  0.00  0.00    +0.029 A 
ENDBRANCH  15  18
ENDBRANCH   4  15
TORSDOF 3
ENDMDL
