MODEL 1
REMARK VINA RESULT:      -4.6      0.000      0.000
REMARK  Name = 
REMARK  11 active torsions:
REMARK  status: ('A' for Active; 'I' for Inactive)
REMARK    1  A    between atoms: C_1  and  C_2
REMARK    2  A    between atoms: C_2  and  O_4
REMARK    3  A    between atoms: O_4  and  C_5
REMARK    4  A    between atoms: C_5  and  C_7
REMARK    5  A    between atoms: C_5  and  C_11
REMARK    6  A    between atoms: C_7  and  C_8
REMARK    7  A    between atoms: C_8  and  O_9
REMARK    8  A    between atoms: C_11  and  N_12
REMARK    9  A    between atoms: N_12  and  C_13
REMARK   10  A    between atoms: N_12  and  C_14
REMARK   11  A    between atoms: N_12  and  C_15
REMARK                            x       y       z     vdW  Elec       q    Type
REMARK                         _______ _______ _______ _____ _____    ______ ____
ROOT
ATOM      1  C   UNL     1       8.232  -3.677  24.528  0.00  0.00    +0.232 C 
ENDROOT
BRANCH   1   2
ATOM      2  O   UNL     1       9.638  -3.361  24.452  0.00  0.00    -0.456 OA
BRANCH   2   4
ATOM      3  C   UNL     1       9.653  -1.003  24.487  0.00  0.00    +0.136 C 
ATOM      4  C   UNL     1       9.956  -2.250  23.719  0.00  0.00    +0.304 C 
ATOM      5  O   UNL     1      10.503  -2.285  22.628  0.00  0.00    -0.251 OA
ENDBRANCH   2   4
ENDBRANCH   1   2
BRANCH   1   6
ATOM      6  C   UNL     1       7.916  -4.978  23.737  0.00  0.00    +0.178 C 
BRANCH   6   7
ATOM      7  N   UNL     1       6.781  -4.875  22.669  0.00  0.00    +0.239 N 
ATOM      8  C   UNL     1       5.479  -5.322  23.353  0.00  0.00    +0.192 C 
ATOM      9  C   UNL     1       7.024  -5.835  21.505  0.00  0.00    +0.192 C 
ATOM     10  C   UNL     1       6.592  -3.462  22.149  0.00  0.00    +0.192 C 
ENDBRANCH   6   7
ENDBRANCH   1   6
BRANCH   1  11
ATOM     11  C   UNL     1       7.760  -3.728  25.998  0.00  0.00    +0.170 C 
BRANCH  11  12
ATOM     12  C   UNL     1       8.320  -4.886  26.782  0.00  0.00    +0.308 C 
ATOM     13  O   UNL     1       7.640  -5.668  27.427  0.00  0.00    -0.251 OA
BRANCH  12  14
ATOM     14  O   UNL     1       9.665  -4.954  26.769  0.00  0.00    -0.481 OA
ATOM     15  H   UNL     1      10.084  -5.125  25.899  0.00  0.00    +0.295 HD
ENDBRANCH  12  14
ENDBRANCH  11  12
ENDBRANCH   1  11
TORSDOF 7
ENDMDL
MODEL 2
REMARK VINA RESULT:      -4.6      2.677      4.444
REMARK  Name = 
REMARK  11 active torsions:
REMARK  status: ('A' for Active; 'I' for Inactive)
REMARK    1  A    between atoms: C_1  and  C_2
REMARK    2  A    between atoms: C_2  and  O_4
REMARK    3  A    between atoms: O_4  and  C_5
REMARK    4  A    between atoms: C_5  and  C_7
REMARK    5  A    between atoms: C_5  and  C_11
REMARK    6  A    between atoms: C_7  and  C_8
REMARK    7  A    between atoms: C_8  and  O_9
REMARK    8  A    between atoms: C_11  and  N_12
REMARK    9  A    between atoms: N_12  and  C_13
REMARK   10  A    between atoms: N_12  and  C_14
REMARK   11  A    between atoms: N_12  and  C_15
REMARK                            x       y       z     vdW  Elec       q    Type
REMARK                         _______ _______ _______ _____ _____    ______ ____
ROOT
ATOM      1  C   UNL     1       7.316  -4.069  23.449  0.00  0.00    +0.232 C 
ENDROOT
BRANCH   1   2
ATOM      2  O   UNL     1       8.275  -5.130  23.648  0.00  0.00    -0.456 OA
BRANCH   2   4
ATOM      3  C   UNL     1       8.013  -5.353  25.981  0.00  0.00    +0.136 C 
ATOM      4  C   UNL     1       8.947  -5.104  24.840  0.00  0.00    +0.304 C 
ATOM      5  O   UNL     1      10.158  -4.991  24.939  0.00  0.00    -0.251 OA
ENDBRANCH   2   4
ENDBRANCH   1   2
BRANCH   1   6
ATOM      6  C   UNL     1       7.910  -2.951  22.546  0.00  0.00    +0.178 C 
BRANCH   6   7
ATOM      7  N   UNL     1       8.591  -1.757  23.287  0.00  0.00    +0.239 N 
ATOM      8  C   UNL     1       8.229  -0.481  22.511  0.00  0.00    +0.192 C 
ATOM      9  C   UNL     1      10.114  -1.880  23.256  0.00  0.00    +0.192 C 
ATOM     10  C   UNL     1       8.110  -1.605  24.718  0.00  0.00    +0.192 C 
ENDBRANCH   6   7
ENDBRANCH   1   6
BRANCH   1  11
ATOM     11  C   UNL     1       5.978  -4.632  22.923  0.00  0.00    +0.170 C 
BRANCH  11  12
ATOM     12  C   UNL     1       6.123  -5.551  21.738  0.00  0.00    +0.308 C 
ATOM     13  O   UNL     1       5.965  -5.203  20.579  0.00  0.00    -0.251 OA
BRANCH  12  14
ATOM     14  O   UNL     1       6.380  -6.831  22.069  0.00  0.00    -0.481 OA
ATOM     15  H   UNL     1       5.963  -7.159  22.893  0.00  0.00    +0.295 HD
ENDBRANCH  12  14
ENDBRANCH  11  12
ENDBRANCH   1  11
TORSDOF 7
ENDMDL
MODEL 3
REMARK VINA RESULT:      -4.5      1.442      1.573
REMARK  Name = 
REMARK  11 active torsions:
REMARK  status: ('A' for Active; 'I' for Inactive)
REMARK    1  A    between atoms: C_1  and  C_2
REMARK    2  A    between atoms: C_2  and  O_4
REMARK    3  A    between atoms: O_4  and  C_5
REMARK    4  A    between atoms: C_5  and  C_7
REMARK    5  A    between atoms: C_5  and  C_11
REMARK    6  A    between atoms: C_7  and  C_8
REMARK    7  A    between atoms: C_8  and  O_9
REMARK    8  A    between atoms: C_11  and  N_12
REMARK    9  A    between atoms: N_12  and  C_13
REMARK   10  A    between atoms: N_12  and  C_14
REMARK   11  A    between atoms: N_12  and  C_15
REMARK                            x       y       z     vdW  Elec       q    Type
REMARK                         _______ _______ _______ _____ _____    ______ ____
ROOT
ATOM      1  C   UNL     1       8.583  -3.037  24.660  0.00  0.00    +0.232 C 
ENDROOT
BRANCH   1   2
ATOM      2  O   UNL     1       9.872  -3.041  24.009  0.00  0.00    -0.456 OA
BRANCH   2   4
ATOM      3  C   UNL     1      10.083  -0.703  24.241  0.00  0.00    +0.136 C 
ATOM      4  C   UNL     1      10.201  -1.893  23.341  0.00  0.00    +0.304 C 
ATOM      5  O   UNL     1      10.626  -1.865  22.197  0.00  0.00    -0.251 OA
ENDBRANCH   2   4
ENDBRANCH   1   2
BRANCH   1   6
ATOM      6  C   UNL     1       7.508  -3.704  23.758  0.00  0.00    +0.178 C 
BRANCH   6   7
ATOM      7  N   UNL     1       6.240  -2.847  23.448  0.00  0.00    +0.239 N 
ATOM      8  C   UNL     1       5.166  -3.244  24.473  0.00  0.00    +0.192 C 
ATOM      9  C   UNL     1       5.676  -3.169  22.065  0.00  0.00    +0.192 C 
ATOM     10  C   UNL     1       6.497  -1.356  23.572  0.00  0.00    +0.192 C 
ENDBRANCH   6   7
ENDBRANCH   1   6
BRANCH   1  11
ATOM     11  C   UNL     1       8.678  -3.668  26.066  0.00  0.00    +0.170 C 
BRANCH  11  12
ATOM     12  C   UNL     1       8.688  -5.174  26.062  0.00  0.00    +0.308 C 
ATOM     13  O   UNL     1       7.786  -5.865  26.507  0.00  0.00    -0.251 OA
BRANCH  12  14
ATOM     14  O   UNL     1       9.826  -5.711  25.580  0.00  0.00    -0.481 OA
ATOM     15  H   UNL     1      10.085  -5.438  24.674  0.00  0.00    +0.295 HD
ENDBRANCH  12  14
ENDBRANCH  11  12
ENDBRANCH   1  11
TORSDOF 7
ENDMDL
MODEL 4
REMARK VINA RESULT:      -4.4      2.041      3.671
REMARK  Name = 
REMARK  11 active torsions:
REMARK  status: ('A' for Active; 'I' for Inactive)
REMARK    1  A    between atoms: C_1  and  C_2
REMARK    2  A    between atoms: C_2  and  O_4
REMARK    3  A    between atoms: O_4  and  C_5
REMARK    4  A    between atoms: C_5  and  C_7
REMARK    5  A    between atoms: C_5  and  C_11
REMARK    6  A    between atoms: C_7  and  C_8
REMARK    7  A    between atoms: C_8  and  O_9
REMARK    8  A    between atoms: C_11  and  N_12
REMARK    9  A    between atoms: N_12  and  C_13
REMARK   10  A    between atoms: N_12  and  C_14
REMARK   11  A    between atoms: N_12  and  C_15
REMARK                            x       y       z     vdW  Elec       q    Type
REMARK                         _______ _______ _______ _____ _____    ______ ____
ROOT
ATOM      1  C   UNL     1       8.056  -3.386  25.119  0.00  0.00    +0.232 C 
ENDROOT
BRANCH   1   2
ATOM      2  O   UNL     1       7.016  -4.132  24.451  0.00  0.00    -0.456 OA
BRANCH   2   4
ATOM      3  C   UNL     1       6.761  -3.955  22.113  0.00  0.00    +0.136 C 
ATOM      4  C   UNL     1       7.370  -4.701  23.258  0.00  0.00    +0.304 C 
ATOM      5  O   UNL     1       8.155  -5.629  23.149  0.00  0.00    -0.251 OA
ENDBRANCH   2   4
ENDBRANCH   1   2
BRANCH   1   6
ATOM      6  C   UNL     1       7.868  -1.859  24.899  0.00  0.00    +0.178 C 
BRANCH   6   7
ATOM      7  N   UNL     1       8.955  -1.149  24.031  0.00  0.00    +0.239 N 
ATOM      8  C   UNL     1       9.972  -2.223  23.615  0.00  0.00    +0.192 C 
ATOM      9  C   UNL     1       9.718  -0.103  24.843  0.00  0.00    +0.192 C 
ATOM     10  C   UNL     1       8.381  -0.516  22.776  0.00  0.00    +0.192 C 
ENDBRANCH   6   7
ENDBRANCH   1   6
BRANCH   1  11
ATOM     11  C   UNL     1       8.143  -3.782  26.609  0.00  0.00    +0.170 C 
BRANCH  11  12
ATOM     12  C   UNL     1       8.060  -5.265  26.855  0.00  0.00    +0.308 C 
ATOM     13  O   UNL     1       7.387  -5.776  27.737  0.00  0.00    -0.251 OA
BRANCH  12  14
ATOM     14  O   UNL     1       8.856  -5.997  26.052  0.00  0.00    -0.481 OA
ATOM     15  H   UNL     1       9.723  -6.264  26.425  0.00  0.00    +0.295 HD
ENDBRANCH  12  14
ENDBRANCH  11  12
ENDBRANCH   1  11
TORSDOF 7
ENDMDL
MODEL 5
REMARK VINA RESULT:      -4.4      2.804      4.326
REMARK  Name = 
REMARK  11 active torsions:
REMARK  status: ('A' for Active; 'I' for Inactive)
REMARK    1  A    between atoms: C_1  and  C_2
REMARK    2  A    between atoms: C_2  and  O_4
REMARK    3  A    between atoms: O_4  and  C_5
REMARK    4  A    between atoms: C_5  and  C_7
REMARK    5  A    between atoms: C_5  and  C_11
REMARK    6  A    between atoms: C_7  and  C_8
REMARK    7  A    between atoms: C_8  and  O_9
REMARK    8  A    between atoms: C_11  and  N_12
REMARK    9  A    between atoms: N_12  and  C_13
REMARK   10  A    between atoms: N_12  and  C_14
REMARK   11  A    between atoms: N_12  and  C_15
REMARK                            x       y       z     vdW  Elec       q    Type
REMARK                         _______ _______ _______ _____ _____    ______ ____
ROOT
ATOM      1  C   UNL     1       7.654  -4.515  23.106  0.00  0.00    +0.232 C 
ENDROOT
BRANCH   1   2
ATOM      2  O   UNL     1       7.303  -3.304  22.402  0.00  0.00    -0.456 OA
BRANCH   2   4
ATOM      3  C   UNL     1       7.224  -1.024  22.997  0.00  0.00    +0.136 C 
ATOM      4  C   UNL     1       8.077  -2.212  22.683  0.00  0.00    +0.304 C 
ATOM      5  O   UNL     1       9.295  -2.238  22.760  0.00  0.00    -0.251 OA
ENDBRANCH   2   4
ENDBRANCH   1   2
BRANCH   1   6
ATOM      6  C   UNL     1       7.137  -4.470  24.571  0.00  0.00    +0.178 C 
BRANCH   6   7
ATOM      7  N   UNL     1       8.230  -4.388  25.684  0.00  0.00    +0.239 N 
ATOM      8  C   UNL     1       7.766  -5.291  26.838  0.00  0.00    +0.192 C 
ATOM      9  C   UNL     1       8.344  -2.971  26.246  0.00  0.00    +0.192 C 
ATOM     10  C   UNL     1       9.588  -4.871  25.209  0.00  0.00    +0.192 C 
ENDBRANCH   6   7
ENDBRANCH   1   6
BRANCH   1  11
ATOM     11  C   UNL     1       7.174  -5.760  22.327  0.00  0.00    +0.170 C 
BRANCH  11  12
ATOM     12  C   UNL     1       6.001  -5.500  21.419  0.00  0.00    +0.308 C 
ATOM     13  O   UNL     1       6.035  -5.624  20.205  0.00  0.00    -0.251 OA
BRANCH  12  14
ATOM     14  O   UNL     1       4.906  -5.045  22.059  0.00  0.00    -0.481 OA
ATOM     15  H   UNL     1       4.761  -4.076  22.035  0.00  0.00    +0.295 HD
ENDBRANCH  12  14
ENDBRANCH  11  12
ENDBRANCH   1  11
TORSDOF 7
ENDMDL
MODEL 6
REMARK VINA RESULT:      -4.4      2.379      4.013
REMARK  Name = 
REMARK  11 active torsions:
REMARK  status: ('A' for Active; 'I' for Inactive)
REMARK    1  A    between atoms: C_1  and  C_2
REMARK    2  A    between atoms: C_2  and  O_4
REMARK    3  A    between atoms: O_4  and  C_5
REMARK    4  A    between atoms: C_5  and  C_7
REMARK    5  A    between atoms: C_5  and  C_11
REMARK    6  A    between atoms: C_7  and  C_8
REMARK    7  A    between atoms: C_8  and  O_9
REMARK    8  A    between atoms: C_11  and  N_12
REMARK    9  A    between atoms: N_12  and  C_13
REMARK   10  A    between atoms: N_12  and  C_14
REMARK   11  A    between atoms: N_12  and  C_15
REMARK                            x       y       z     vdW  Elec       q    Type
REMARK                         _______ _______ _______ _____ _____    ______ ____
ROOT
ATOM      1  C   UNL     1       7.365  -4.081  23.810  0.00  0.00    +0.232 C 
ENDROOT
BRANCH   1   2
ATOM      2  O   UNL     1       6.105  -4.509  23.249  0.00  0.00    -0.456 OA
BRANCH   2   4
ATOM      3  C   UNL     1       6.406  -5.713  21.243  0.00  0.00    +0.136 C 
ATOM      4  C   UNL     1       6.005  -4.424  21.887  0.00  0.00    +0.304 C 
ATOM      5  O   UNL     1       5.555  -3.456  21.294  0.00  0.00    -0.251 OA
ENDBRANCH   2   4
ENDBRANCH   1   2
BRANCH   1   6
ATOM      6  C   UNL     1       7.249  -2.645  24.393  0.00  0.00    +0.178 C 
BRANCH   6   7
ATOM      7  N   UNL     1       7.982  -1.518  23.599  0.00  0.00    +0.239 N 
ATOM      8  C   UNL     1       8.941  -0.826  24.580  0.00  0.00    +0.192 C 
ATOM      9  C   UNL     1       6.999  -0.454  23.111  0.00  0.00    +0.192 C 
ATOM     10  C   UNL     1       8.790  -2.055  22.432  0.00  0.00    +0.192 C 
ENDBRANCH   6   7
ENDBRANCH   1   6
BRANCH   1  11
ATOM     11  C   UNL     1       7.889  -5.115  24.831  0.00  0.00    +0.170 C 
BRANCH  11  12
ATOM     12  C   UNL     1       9.278  -4.827  25.336  0.00  0.00    +0.308 C 
ATOM     13  O   UNL     1      10.212  -4.503  24.621  0.00  0.00    -0.251 OA
BRANCH  12  14
ATOM     14  O   UNL     1       9.429  -5.026  26.660  0.00  0.00    -0.481 OA
ATOM     15  H   UNL     1       8.613  -4.981  27.202  0.00  0.00    +0.295 HD
ENDBRANCH  12  14
ENDBRANCH  11  12
ENDBRANCH   1  11
TORSDOF 7
ENDMDL
MODEL 7
REMARK VINA RESULT:      -4.3      3.624      6.033
REMARK  Name = 
REMARK  11 active torsions:
REMARK  status: ('A' for Active; 'I' for Inactive)
REMARK    1  A    between atoms: C_1  and  C_2
REMARK    2  A    between atoms: C_2  and  O_4
REMARK    3  A    between atoms: O_4  and  C_5
REMARK    4  A    between atoms: C_5  and  C_7
REMARK    5  A    between atoms: C_5  and  C_11
REMARK    6  A    between atoms: C_7  and  C_8
REMARK    7  A    between atoms: C_8  and  O_9
REMARK    8  A    between atoms: C_11  and  N_12
REMARK    9  A    between atoms: N_12  and  C_13
REMARK   10  A    between atoms: N_12  and  C_14
REMARK   11  A    between atoms: N_12  and  C_15
REMARK                            x       y       z     vdW  Elec       q    Type
REMARK                         _______ _______ _______ _____ _____    ______ ____
ROOT
ATOM      1  C   UNL     1       9.539   0.347  23.988  0.00  0.00    +0.232 C 
ENDROOT
BRANCH   1   2
ATOM      2  O   UNL     1      10.127  -0.897  24.426  0.00  0.00    -0.456 OA
BRANCH   2   4
ATOM      3  C   UNL     1       9.898  -1.466  22.149  0.00  0.00    +0.136 C 
ATOM      4  C   UNL     1       9.996  -1.949  23.561  0.00  0.00    +0.304 C 
ATOM      5  O   UNL     1      10.052  -3.121  23.897  0.00  0.00    -0.251 OA
ENDBRANCH   2   4
ENDBRANCH   1   2
BRANCH   1   6
ATOM      6  C   UNL     1       8.240   0.653  24.785  0.00  0.00    +0.178 C 
BRANCH   6   7
ATOM      7  N   UNL     1       6.896   0.436  24.021  0.00  0.00    +0.239 N 
ATOM      8  C   UNL     1       7.102   0.957  22.590  0.00  0.00    +0.192 C 
ATOM      9  C   UNL     1       5.767   1.261  24.637  0.00  0.00    +0.192 C 
ATOM     10  C   UNL     1       6.493  -1.025  23.948  0.00  0.00    +0.192 C 
ENDBRANCH   6   7
ENDBRANCH   1   6
BRANCH   1  11
ATOM     11  C   UNL     1      10.574   1.492  24.045  0.00  0.00    +0.170 C 
BRANCH  11  12
ATOM     12  C   UNL     1      10.267   2.642  23.123  0.00  0.00    +0.308 C 
ATOM     13  O   UNL     1       9.941   3.755  23.504  0.00  0.00    -0.251 OA
BRANCH  12  14
ATOM     14  O   UNL     1      10.315   2.322  21.816  0.00  0.00    -0.481 OA
ATOM     15  H   UNL     1       9.951   1.445  21.570  0.00  0.00    +0.295 HD
ENDBRANCH  12  14
ENDBRANCH  11  12
ENDBRANCH   1  11
TORSDOF 7
ENDMDL
MODEL 8
REMARK VINA RESULT:      -4.2      2.215      3.624
REMARK  Name = 
REMARK  11 active torsions:
REMARK  status: ('A' for Active; 'I' for Inactive)
REMARK    1  A    between atoms: C_1  and  C_2
REMARK    2  A    between atoms: C_2  and  O_4
REMARK    3  A    between atoms: O_4  and  C_5
REMARK    4  A    between atoms: C_5  and  C_7
REMARK    5  A    between atoms: C_5  and  C_11
REMARK    6  A    between atoms: C_7  and  C_8
REMARK    7  A    between atoms: C_8  and  O_9
REMARK    8  A    between atoms: C_11  and  N_12
REMARK    9  A    between atoms: N_12  and  C_13
REMARK   10  A    between atoms: N_12  and  C_14
REMARK   11  A    between atoms: N_12  and  C_15
REMARK                            x       y       z     vdW  Elec       q    Type
REMARK                         _______ _______ _______ _____ _____    ______ ____
ROOT
ATOM      1  C   UNL     1       6.867  -4.851  24.600  0.00  0.00    +0.232 C 
ENDROOT
BRANCH   1   2
ATOM      2  O   UNL     1       7.384  -5.473  23.404  0.00  0.00    -0.456 OA
BRANCH   2   4
ATOM      3  C   UNL     1       6.521  -5.733  21.224  0.00  0.00    +0.136 C 
ATOM      4  C   UNL     1       7.127  -4.811  22.234  0.00  0.00    +0.304 C 
ATOM      5  O   UNL     1       7.283  -3.610  22.080  0.00  0.00    -0.251 OA
ENDBRANCH   2   4
ENDBRANCH   1   2
BRANCH   1   6
ATOM      6  C   UNL     1       5.684  -5.673  25.183  0.00  0.00    +0.178 C 
BRANCH   6   7
ATOM      7  N   UNL     1       4.251  -5.157  24.839  0.00  0.00    +0.239 N 
ATOM      8  C   UNL     1       3.734  -6.008  23.668  0.00  0.00    +0.192 C 
ATOM      9  C   UNL     1       4.284  -3.707  24.356  0.00  0.00    +0.192 C 
ATOM     10  C   UNL     1       3.284  -5.297  26.001  0.00  0.00    +0.192 C 
ENDBRANCH   6   7
ENDBRANCH   1   6
BRANCH   1  11
ATOM     11  C   UNL     1       7.999  -4.602  25.620  0.00  0.00    +0.170 C 
BRANCH  11  12
ATOM     12  C   UNL     1       9.384  -4.757  25.049  0.00  0.00    +0.308 C 
ATOM     13  O   UNL     1       9.992  -3.867  24.476  0.00  0.00    -0.251 OA
BRANCH  12  14
ATOM     14  O   UNL     1       9.885  -6.003  25.163  0.00  0.00    -0.481 OA
ATOM     15  H   UNL     1      10.147  -6.444  24.327  0.00  0.00    +0.295 HD
ENDBRANCH  12  14
ENDBRANCH  11  12
ENDBRANCH   1  11
TORSDOF 7
ENDMDL
MODEL 9
REMARK VINA RESULT:      -4.2      2.539      4.472
REMARK  Name = 
REMARK  11 active torsions:
REMARK  status: ('A' for Active; 'I' for Inactive)
REMARK    1  A    between atoms: C_1  and  C_2
REMARK    2  A    between atoms: C_2  and  O_4
REMARK    3  A    between atoms: O_4  and  C_5
REMARK    4  A    between atoms: C_5  and  C_7
REMARK    5  A    between atoms: C_5  and  C_11
REMARK    6  A    between atoms: C_7  and  C_8
REMARK    7  A    between atoms: C_8  and  O_9
REMARK    8  A    between atoms: C_11  and  N_12
REMARK    9  A    between atoms: N_12  and  C_13
REMARK   10  A    between atoms: N_12  and  C_14
REMARK   11  A    between atoms: N_12  and  C_15
REMARK                            x       y       z     vdW  Elec       q    Type
REMARK                         _______ _______ _______ _____ _____    ______ ____
ROOT
ATOM      1  C   UNL     1       7.717  -3.579  23.635  0.00  0.00    +0.232 C 
ENDROOT
BRANCH   1   2
ATOM      2  O   UNL     1       7.580  -3.923  22.239  0.00  0.00    -0.456 OA
BRANCH   2   4
ATOM      3  C   UNL     1       6.314  -5.615  21.193  0.00  0.00    +0.136 C 
ATOM      4  C   UNL     1       6.318  -4.264  21.835  0.00  0.00    +0.304 C 
ATOM      5  O   UNL     1       5.323  -3.594  22.061  0.00  0.00    -0.251 OA
ENDBRANCH   2   4
ENDBRANCH   1   2
BRANCH   1   6
ATOM      6  C   UNL     1       7.661  -4.853  24.524  0.00  0.00    +0.178 C 
BRANCH   6   7
ATOM      7  N   UNL     1       6.527  -4.893  25.597  0.00  0.00    +0.239 N 
ATOM      8  C   UNL     1       7.182  -5.290  26.929  0.00  0.00    +0.192 C 
ATOM      9  C   UNL     1       5.492  -5.970  25.271  0.00  0.00    +0.192 C 
ATOM     10  C   UNL     1       5.842  -3.551  25.777  0.00  0.00    +0.192 C 
ENDBRANCH   6   7
ENDBRANCH   1   6
BRANCH   1  11
ATOM     11  C   UNL     1       8.985  -2.728  23.867  0.00  0.00    +0.170 C 
BRANCH  11  12
ATOM     12  C   UNL     1       9.379  -1.880  22.686  0.00  0.00    +0.308 C 
ATOM     13  O   UNL     1      10.513  -1.814  22.240  0.00  0.00    -0.251 OA
BRANCH  12  14
ATOM     14  O   UNL     1       8.374  -1.133  22.191  0.00  0.00    -0.481 OA
ATOM     15  H   UNL     1       7.483  -1.297  22.568  0.00  0.00    +0.295 HD
ENDBRANCH  12  14
ENDBRANCH  11  12
ENDBRANCH   1  11
TORSDOF 7
ENDMDL
