MODEL 1
REMARK VINA RESULT:      -7.3      0.000      0.000
REMARK  Name = 
REMARK  13 active torsions:
REMARK  status: ('A' for Active; 'I' for Inactive)
REMARK    1  A    between atoms: C_2  and  C_3
REMARK    2  A    between atoms: C_2  and  N_8
REMARK    3  A    between atoms: C_2  and  C_33
REMARK    4  A    between atoms: C_3  and  C_4
REMARK    5  A    between atoms: C_4  and  C_5
REMARK    6  A    between atoms: C_5  and  O_6
REMARK    7  A    between atoms: N_8  and  S_9
REMARK    8  A    between atoms: S_9  and  C_12
REMARK    9  A    between atoms: C_19  and  O_20
REMARK   10  A    between atoms: O_20  and  C_21
REMARK   11  A    between atoms: C_21  and  C_22
REMARK   12  A    between atoms: C_26  and  C_29
REMARK   13  A    between atoms: C_33  and  O_34
REMARK                            x       y       z     vdW  Elec       q    Type
REMARK                         _______ _______ _______ _____ _____    ______ ____
ROOT
ATOM      1  C   UNL     1       6.398  -3.193  22.921  0.00  0.00    +0.106 A 
ATOM      2  C   UNL     1       5.702  -2.325  23.760  0.00  0.00    +0.029 A 
ATOM      3  C   UNL     1       6.341  -1.186  24.234  0.00  0.00    +0.010 A 
ATOM      4  C   UNL     1       7.663  -0.903  23.865  0.00  0.00    -0.014 A 
ATOM      5  C   UNL     1       8.291   0.241  24.356  0.00  0.00    +0.054 A 
ATOM      6  C   UNL     1       9.615   0.533  24.024  0.00  0.00    +0.122 A 
ATOM      7  C   UNL     1      10.306  -0.301  23.148  0.00  0.00    +0.046 A 
ATOM      8  C   UNL     1       9.696  -1.460  22.655  0.00  0.00    +0.012 A 
ATOM      9  C   UNL     1       8.373  -1.777  23.012  0.00  0.00    -0.016 A 
ATOM     10  C   UNL     1       7.729  -2.937  22.558  0.00  0.00    +0.037 A 
ENDROOT
BRANCH   1  11
ATOM     11  S   UNL     1       5.638  -4.712  22.417  0.00  0.00    +0.059 S 
ATOM     12  O   UNL     1       4.215  -4.541  22.549  0.00  0.00    -0.153 OA
ATOM     13  O   UNL     1       6.267  -5.139  21.187  0.00  0.00    -0.153 OA
BRANCH  11  14
ATOM     14  N   UNL     1       6.167  -5.787  23.610  0.00  0.00    -0.176 NA
ATOM     15  H   UNL     1       6.152  -6.738  23.222  0.00  0.00    +0.149 HD
BRANCH  14  16
ATOM     16  C   UNL     1       5.537  -5.667  24.948  0.00  0.00    +0.185 C 
BRANCH  16  17
ATOM     17  C   UNL     1       4.586  -6.845  25.182  0.00  0.00    +0.324 C 
ATOM     18  O   UNL     1       4.172  -7.159  26.292  0.00  0.00    -0.249 OA
BRANCH  17  19
ATOM     19  O   UNL     1       4.233  -7.516  24.064  0.00  0.00    -0.479 OA
ATOM     20  H   UNL     1       3.874  -8.409  24.221  0.00  0.00    +0.295 HD
ENDBRANCH  17  19
ENDBRANCH  16  17
BRANCH  16  21
ATOM     21  C   UNL     1       6.625  -5.700  26.033  0.00  0.00    +0.043 C 
BRANCH  21  22
ATOM     22  C   UNL     1       7.514  -4.454  26.025  0.00  0.00    +0.122 C 
BRANCH  22  23
ATOM     23  C   UNL     1       8.971  -4.813  25.845  0.00  0.00    +0.305 C 
ATOM     24  O   UNL     1       9.501  -5.043  24.771  0.00  0.00    -0.251 OA
BRANCH  23  25
ATOM     25  O   UNL     1       9.639  -4.909  27.016  0.00  0.00    -0.481 OA
ATOM     26  H   UNL     1       9.302  -4.334  27.728  0.00  0.00    +0.295 HD
ENDBRANCH  23  25
ENDBRANCH  22  23
ENDBRANCH  21  22
ENDBRANCH  16  21
ENDBRANCH  14  16
ENDBRANCH  11  14
ENDBRANCH   1  11
BRANCH   6  27
ATOM     27  O   UNL     1      10.308   1.609  24.515  0.00  0.00    -0.487 OA
BRANCH  27  28
ATOM     28  C   UNL     1      10.487   2.664  23.565  0.00  0.00    +0.267 C 
BRANCH  28  29
ATOM     29  C   UNL     1       9.217   3.451  23.438  0.00  0.00    +0.025 A 
ATOM     30  C   UNL     1       8.895   4.450  24.364  0.00  0.00    +0.011 A 
ATOM     31  C   UNL     1       7.728   5.196  24.207  0.00  0.00    +0.019 A 
ATOM     32  C   UNL     1       6.875   4.947  23.126  0.00  0.00    +0.055 A 
ATOM     33  C   UNL     1       7.189   3.951  22.201  0.00  0.00    +0.057 A 
ATOM     34  C   UNL     1       8.353   3.215  22.365  0.00  0.00    +0.131 A 
ATOM     35  F   UNL     1       8.649   2.273  21.458  0.00  0.00    -0.205 F 
BRANCH  32  36
ATOM     36  C   UNL     1       5.679   5.718  22.965  0.00  0.00    +0.099 C 
ATOM     37  N   UNL     1       4.710   6.341  22.838  0.00  0.00    -0.191 NA
ENDBRANCH  32  36
ENDBRANCH  28  29
ENDBRANCH  27  28
ENDBRANCH   6  27
TORSDOF 13
ENDMDL
MODEL 2
REMARK VINA RESULT:      -7.3      2.039      3.314
REMARK  Name = 
REMARK  13 active torsions:
REMARK  status: ('A' for Active; 'I' for Inactive)
REMARK    1  A    between atoms: C_2  and  C_3
REMARK    2  A    between atoms: C_2  and  N_8
REMARK    3  A    between atoms: C_2  and  C_33
REMARK    4  A    between atoms: C_3  and  C_4
REMARK    5  A    between atoms: C_4  and  C_5
REMARK    6  A    between atoms: C_5  and  O_6
REMARK    7  A    between atoms: N_8  and  S_9
REMARK    8  A    between atoms: S_9  and  C_12
REMARK    9  A    between atoms: C_19  and  O_20
REMARK   10  A    between atoms: O_20  and  C_21
REMARK   11  A    between atoms: C_21  and  C_22
REMARK   12  A    between atoms: C_26  and  C_29
REMARK   13  A    between atoms: C_33  and  O_34
REMARK                            x       y       z     vdW  Elec       q    Type
REMARK                         _______ _______ _______ _____ _____    ______ ____
ROOT
ATOM      1  C   UNL     1       8.646  -3.023  23.497  0.00  0.00    +0.106 A 
ATOM      2  C   UNL     1       8.270  -2.574  22.234  0.00  0.00    +0.029 A 
ATOM      3  C   UNL     1       8.564  -1.267  21.865  0.00  0.00    +0.010 A 
ATOM      4  C   UNL     1       9.242  -0.412  22.746  0.00  0.00    -0.014 A 
ATOM      5  C   UNL     1       9.523   0.898  22.362  0.00  0.00    +0.054 A 
ATOM      6  C   UNL     1      10.175   1.778  23.229  0.00  0.00    +0.122 A 
ATOM      7  C   UNL     1      10.599   1.326  24.477  0.00  0.00    +0.046 A 
ATOM      8  C   UNL     1      10.316   0.018  24.883  0.00  0.00    +0.012 A 
ATOM      9  C   UNL     1       9.630  -0.863  24.026  0.00  0.00    -0.016 A 
ATOM     10  C   UNL     1       9.308  -2.176  24.400  0.00  0.00    +0.037 A 
ENDROOT
BRANCH   1  11
ATOM     11  S   UNL     1       8.162  -4.643  24.025  0.00  0.00    +0.059 S 
ATOM     12  O   UNL     1       7.627  -5.324  22.874  0.00  0.00    -0.153 OA
ATOM     13  O   UNL     1       9.231  -5.188  24.832  0.00  0.00    -0.153 OA
BRANCH  11  14
ATOM     14  N   UNL     1       6.895  -4.306  25.093  0.00  0.00    -0.176 NA
ATOM     15  H   UNL     1       7.198  -3.563  25.734  0.00  0.00    +0.149 HD
BRANCH  14  16
ATOM     16  C   UNL     1       6.257  -5.465  25.764  0.00  0.00    +0.185 C 
BRANCH  16  17
ATOM     17  C   UNL     1       6.594  -5.450  27.259  0.00  0.00    +0.324 C 
ATOM     18  O   UNL     1       5.819  -5.036  28.113  0.00  0.00    -0.249 OA
BRANCH  17  19
ATOM     19  O   UNL     1       7.818  -5.931  27.566  0.00  0.00    -0.479 OA
ATOM     20  H   UNL     1       7.834  -6.875  27.814  0.00  0.00    +0.295 HD
ENDBRANCH  17  19
ENDBRANCH  16  17
BRANCH  16  21
ATOM     21  C   UNL     1       4.731  -5.373  25.610  0.00  0.00    +0.043 C 
BRANCH  21  22
ATOM     22  C   UNL     1       4.290  -4.201  24.730  0.00  0.00    +0.122 C 
BRANCH  22  23
ATOM     23  C   UNL     1       4.105  -4.625  23.291  0.00  0.00    +0.305 C 
ATOM     24  O   UNL     1       3.291  -5.449  22.910  0.00  0.00    -0.251 OA
BRANCH  23  25
ATOM     25  O   UNL     1       4.982  -4.032  22.450  0.00  0.00    -0.481 OA
ATOM     26  H   UNL     1       5.905  -4.015  22.766  0.00  0.00    +0.295 HD
ENDBRANCH  23  25
ENDBRANCH  22  23
ENDBRANCH  21  22
ENDBRANCH  16  21
ENDBRANCH  14  16
ENDBRANCH  11  14
ENDBRANCH   1  11
BRANCH   6  27
ATOM     27  O   UNL     1      10.431   3.091  22.936  0.00  0.00    -0.487 OA
BRANCH  27  28
ATOM     28  C   UNL     1       9.761   4.017  23.796  0.00  0.00    +0.267 C 
BRANCH  28  29
ATOM     29  C   UNL     1       8.277   3.830  23.683  0.00  0.00    +0.025 A 
ATOM     30  C   UNL     1       7.613   4.073  22.474  0.00  0.00    +0.011 A 
ATOM     31  C   UNL     1       6.239   3.857  22.378  0.00  0.00    +0.019 A 
ATOM     32  C   UNL     1       5.521   3.400  23.489  0.00  0.00    +0.055 A 
ATOM     33  C   UNL     1       6.176   3.159  24.696  0.00  0.00    +0.057 A 
ATOM     34  C   UNL     1       7.544   3.375  24.781  0.00  0.00    +0.131 A 
ATOM     35  F   UNL     1       8.162   3.122  25.944  0.00  0.00    -0.205 F 
BRANCH  32  36
ATOM     36  C   UNL     1       4.110   3.176  23.386  0.00  0.00    +0.099 C 
ATOM     37  N   UNL     1       2.969   2.992  23.304  0.00  0.00    -0.191 NA
ENDBRANCH  32  36
ENDBRANCH  28  29
ENDBRANCH  27  28
ENDBRANCH   6  27
TORSDOF 13
ENDMDL
MODEL 3
REMARK VINA RESULT:      -7.2      3.592      8.989
REMARK  Name = 
REMARK  13 active torsions:
REMARK  status: ('A' for Active; 'I' for Inactive)
REMARK    1  A    between atoms: C_2  and  C_3
REMARK    2  A    between atoms: C_2  and  N_8
REMARK    3  A    between atoms: C_2  and  C_33
REMARK    4  A    between atoms: C_3  and  C_4
REMARK    5  A    between atoms: C_4  and  C_5
REMARK    6  A    between atoms: C_5  and  O_6
REMARK    7  A    between atoms: N_8  and  S_9
REMARK    8  A    between atoms: S_9  and  C_12
REMARK    9  A    between atoms: C_19  and  O_20
REMARK   10  A    between atoms: O_20  and  C_21
REMARK   11  A    between atoms: C_21  and  C_22
REMARK   12  A    between atoms: C_26  and  C_29
REMARK   13  A    between atoms: C_33  and  O_34
REMARK                            x       y       z     vdW  Elec       q    Type
REMARK                         _______ _______ _______ _____ _____    ______ ____
ROOT
ATOM      1  C   UNL     1       9.589   2.786  23.678  0.00  0.00    +0.106 A 
ATOM      2  C   UNL     1      10.027   2.303  22.448  0.00  0.00    +0.029 A 
ATOM      3  C   UNL     1      10.147   0.931  22.264  0.00  0.00    +0.010 A 
ATOM      4  C   UNL     1       9.819   0.041  23.296  0.00  0.00    -0.014 A 
ATOM      5  C   UNL     1       9.952  -1.332  23.096  0.00  0.00    +0.054 A 
ATOM      6  C   UNL     1       9.657  -2.239  24.116  0.00  0.00    +0.122 A 
ATOM      7  C   UNL     1       9.172  -1.771  25.335  0.00  0.00    +0.046 A 
ATOM      8  C   UNL     1       9.043  -0.396  25.557  0.00  0.00    +0.012 A 
ATOM      9  C   UNL     1       9.370   0.524  24.545  0.00  0.00    -0.016 A 
ATOM     10  C   UNL     1       9.276   1.911  24.730  0.00  0.00    +0.037 A 
ENDROOT
BRANCH   1  11
ATOM     11  S   UNL     1       9.557   4.534  23.966  0.00  0.00    +0.059 S 
ATOM     12  O   UNL     1       8.895   4.746  25.227  0.00  0.00    -0.153 OA
ATOM     13  O   UNL     1      10.872   5.059  23.672  0.00  0.00    -0.153 OA
BRANCH  11  14
ATOM     14  N   UNL     1       8.547   5.081  22.725  0.00  0.00    -0.176 NA
ATOM     15  H   UNL     1       8.953   5.935  22.326  0.00  0.00    +0.149 HD
BRANCH  14  16
ATOM     16  C   UNL     1       7.099   5.183  23.034  0.00  0.00    +0.185 C 
BRANCH  16  17
ATOM     17  C   UNL     1       6.503   6.408  22.333  0.00  0.00    +0.324 C 
ATOM     18  O   UNL     1       5.557   7.041  22.785  0.00  0.00    -0.249 OA
BRANCH  17  19
ATOM     19  O   UNL     1       7.106   6.740  21.170  0.00  0.00    -0.479 OA
ATOM     20  H   UNL     1       8.081   6.756  21.207  0.00  0.00    +0.295 HD
ENDBRANCH  17  19
ENDBRANCH  16  17
BRANCH  16  21
ATOM     21  C   UNL     1       6.374   3.929  22.519  0.00  0.00    +0.043 C 
BRANCH  21  22
ATOM     22  C   UNL     1       5.803   3.065  23.645  0.00  0.00    +0.122 C 
BRANCH  22  23
ATOM     23  C   UNL     1       5.997   1.592  23.369  0.00  0.00    +0.305 C 
ATOM     24  O   UNL     1       6.589   1.140  22.402  0.00  0.00    -0.251 OA
BRANCH  23  25
ATOM     25  O   UNL     1       5.394   0.800  24.283  0.00  0.00    -0.481 OA
ATOM     26  H   UNL     1       4.976   1.275  25.024  0.00  0.00    +0.295 HD
ENDBRANCH  23  25
ENDBRANCH  22  23
ENDBRANCH  21  22
ENDBRANCH  16  21
ENDBRANCH  14  16
ENDBRANCH  11  14
ENDBRANCH   1  11
BRANCH   6  27
ATOM     27  O   UNL     1       9.818  -3.595  24.004  0.00  0.00    -0.487 OA
BRANCH  27  28
ATOM     28  C   UNL     1       9.109  -4.346  24.994  0.00  0.00    +0.267 C 
BRANCH  28  29
ATOM     29  C   UNL     1       7.745  -4.698  24.480  0.00  0.00    +0.025 A 
ATOM     30  C   UNL     1       7.577  -5.235  23.198  0.00  0.00    +0.011 A 
ATOM     31  C   UNL     1       6.305  -5.591  22.752  0.00  0.00    +0.019 A 
ATOM     32  C   UNL     1       5.193  -5.411  23.584  0.00  0.00    +0.055 A 
ATOM     33  C   UNL     1       5.354  -4.875  24.861  0.00  0.00    +0.057 A 
ATOM     34  C   UNL     1       6.625  -4.525  25.296  0.00  0.00    +0.131 A 
ATOM     35  F   UNL     1       6.764  -4.027  26.533  0.00  0.00    -0.205 F 
BRANCH  32  36
ATOM     36  C   UNL     1       3.889  -5.781  23.125  0.00  0.00    +0.099 C 
ATOM     37  N   UNL     1       2.833  -6.080  22.751  0.00  0.00    -0.191 NA
ENDBRANCH  32  36
ENDBRANCH  28  29
ENDBRANCH  27  28
ENDBRANCH   6  27
TORSDOF 13
ENDMDL
MODEL 4
REMARK VINA RESULT:      -7.2      2.447      3.383
REMARK  Name = 
REMARK  13 active torsions:
REMARK  status: ('A' for Active; 'I' for Inactive)
REMARK    1  A    between atoms: C_2  and  C_3
REMARK    2  A    between atoms: C_2  and  N_8
REMARK    3  A    between atoms: C_2  and  C_33
REMARK    4  A    between atoms: C_3  and  C_4
REMARK    5  A    between atoms: C_4  and  C_5
REMARK    6  A    between atoms: C_5  and  O_6
REMARK    7  A    between atoms: N_8  and  S_9
REMARK    8  A    between atoms: S_9  and  C_12
REMARK    9  A    between atoms: C_19  and  O_20
REMARK   10  A    between atoms: O_20  and  C_21
REMARK   11  A    between atoms: C_21  and  C_22
REMARK   12  A    between atoms: C_26  and  C_29
REMARK   13  A    between atoms: C_33  and  O_34
REMARK                            x       y       z     vdW  Elec       q    Type
REMARK                         _______ _______ _______ _____ _____    ______ ____
ROOT
ATOM      1  C   UNL     1       5.774  -4.878  24.055  0.00  0.00    +0.106 A 
ATOM      2  C   UNL     1       5.193  -4.140  23.027  0.00  0.00    +0.029 A 
ATOM      3  C   UNL     1       5.942  -3.156  22.394  0.00  0.00    +0.010 A 
ATOM      4  C   UNL     1       7.270  -2.916  22.773  0.00  0.00    -0.014 A 
ATOM      5  C   UNL     1       8.005  -1.920  22.131  0.00  0.00    +0.054 A 
ATOM      6  C   UNL     1       9.321  -1.642  22.506  0.00  0.00    +0.122 A 
ATOM      7  C   UNL     1       9.929  -2.406  23.500  0.00  0.00    +0.046 A 
ATOM      8  C   UNL     1       9.203  -3.402  24.162  0.00  0.00    +0.012 A 
ATOM      9  C   UNL     1       7.866  -3.663  23.811  0.00  0.00    -0.016 A 
ATOM     10  C   UNL     1       7.095  -4.637  24.462  0.00  0.00    +0.037 A 
ENDROOT
BRANCH   1  11
ATOM     11  S   UNL     1       4.788  -6.043  24.954  0.00  0.00    +0.059 S 
ATOM     12  O   UNL     1       3.572  -5.371  25.332  0.00  0.00    -0.153 OA
ATOM     13  O   UNL     1       4.800  -7.294  24.228  0.00  0.00    -0.153 OA
BRANCH  11  14
ATOM     14  N   UNL     1       5.719  -6.300  26.343  0.00  0.00    -0.176 NA
ATOM     15  H   UNL     1       5.858  -7.311  26.460  0.00  0.00    +0.149 HD
BRANCH  14  16
ATOM     16  C   UNL     1       5.289  -5.598  27.577  0.00  0.00    +0.185 C 
BRANCH  16  17
ATOM     17  C   UNL     1       5.762  -6.377  28.809  0.00  0.00    +0.324 C 
ATOM     18  O   UNL     1       5.798  -7.601  28.851  0.00  0.00    -0.249 OA
BRANCH  17  19
ATOM     19  O   UNL     1       6.140  -5.607  29.853  0.00  0.00    -0.479 OA
ATOM     20  H   UNL     1       5.770  -5.878  30.714  0.00  0.00    +0.295 HD
ENDBRANCH  17  19
ENDBRANCH  16  17
BRANCH  16  21
ATOM     21  C   UNL     1       5.920  -4.197  27.618  0.00  0.00    +0.043 C 
BRANCH  21  22
ATOM     22  C   UNL     1       4.880  -3.075  27.650  0.00  0.00    +0.122 C 
BRANCH  22  23
ATOM     23  C   UNL     1       4.862  -2.297  26.355  0.00  0.00    +0.305 C 
ATOM     24  O   UNL     1       5.783  -1.610  25.946  0.00  0.00    -0.251 OA
BRANCH  23  25
ATOM     25  O   UNL     1       3.684  -2.390  25.700  0.00  0.00    -0.481 OA
ATOM     26  H   UNL     1       3.306  -1.538  25.413  0.00  0.00    +0.295 HD
ENDBRANCH  23  25
ENDBRANCH  22  23
ENDBRANCH  21  22
ENDBRANCH  16  21
ENDBRANCH  14  16
ENDBRANCH  11  14
ENDBRANCH   1  11
BRANCH   6  27
ATOM     27  O   UNL     1      10.079  -0.643  21.956  0.00  0.00    -0.487 OA
BRANCH  27  28
ATOM     28  C   UNL     1       9.311   0.380  21.315  0.00  0.00    +0.267 C 
BRANCH  28  29
ATOM     29  C   UNL     1       9.307   1.617  22.164  0.00  0.00    +0.025 A 
ATOM     30  C   UNL     1      10.453   2.007  22.868  0.00  0.00    +0.011 A 
ATOM     31  C   UNL     1      10.441   3.180  23.622  0.00  0.00    +0.019 A 
ATOM     32  C   UNL     1       9.285   3.968  23.678  0.00  0.00    +0.055 A 
ATOM     33  C   UNL     1       8.140   3.582  22.981  0.00  0.00    +0.057 A 
ATOM     34  C   UNL     1       8.163   2.414  22.232  0.00  0.00    +0.131 A 
ATOM     35  F   UNL     1       7.060   2.067  21.553  0.00  0.00    -0.205 F 
BRANCH  32  36
ATOM     36  C   UNL     1       9.277   5.173  24.450  0.00  0.00    +0.099 C 
ATOM     37  N   UNL     1       9.268   6.149  25.076  0.00  0.00    -0.191 NA
ENDBRANCH  32  36
ENDBRANCH  28  29
ENDBRANCH  27  28
ENDBRANCH   6  27
TORSDOF 13
ENDMDL
MODEL 5
REMARK VINA RESULT:      -7.2      2.963      4.494
REMARK  Name = 
REMARK  13 active torsions:
REMARK  status: ('A' for Active; 'I' for Inactive)
REMARK    1  A    between atoms: C_2  and  C_3
REMARK    2  A    between atoms: C_2  and  N_8
REMARK    3  A    between atoms: C_2  and  C_33
REMARK    4  A    between atoms: C_3  and  C_4
REMARK    5  A    between atoms: C_4  and  C_5
REMARK    6  A    between atoms: C_5  and  O_6
REMARK    7  A    between atoms: N_8  and  S_9
REMARK    8  A    between atoms: S_9  and  C_12
REMARK    9  A    between atoms: C_19  and  O_20
REMARK   10  A    between atoms: O_20  and  C_21
REMARK   11  A    between atoms: C_21  and  C_22
REMARK   12  A    between atoms: C_26  and  C_29
REMARK   13  A    between atoms: C_33  and  O_34
REMARK                            x       y       z     vdW  Elec       q    Type
REMARK                         _______ _______ _______ _____ _____    ______ ____
ROOT
ATOM      1  C   UNL     1       4.643  -6.185  24.517  0.00  0.00    +0.106 A 
ATOM      2  C   UNL     1       4.821  -5.917  23.162  0.00  0.00    +0.029 A 
ATOM      3  C   UNL     1       5.939  -5.199  22.755  0.00  0.00    +0.010 A 
ATOM      4  C   UNL     1       6.885  -4.760  23.692  0.00  0.00    -0.014 A 
ATOM      5  C   UNL     1       7.997  -4.036  23.266  0.00  0.00    +0.054 A 
ATOM      6  C   UNL     1       8.941  -3.565  24.181  0.00  0.00    +0.122 A 
ATOM      7  C   UNL     1       8.800  -3.867  25.534  0.00  0.00    +0.046 A 
ATOM      8  C   UNL     1       7.685  -4.583  25.980  0.00  0.00    +0.012 A 
ATOM      9  C   UNL     1       6.713  -5.032  25.067  0.00  0.00    -0.016 A 
ATOM     10  C   UNL     1       5.569  -5.735  25.472  0.00  0.00    +0.037 A 
ENDROOT
BRANCH   1  11
ATOM     11  S   UNL     1       3.158  -6.984  25.059  0.00  0.00    +0.059 S 
ATOM     12  O   UNL     1       2.086  -6.034  24.914  0.00  0.00    -0.153 OA
ATOM     13  O   UNL     1       3.121  -8.305  24.473  0.00  0.00    -0.153 OA
BRANCH  11  14
ATOM     14  N   UNL     1       3.458  -7.212  26.708  0.00  0.00    -0.176 NA
ATOM     15  H   UNL     1       3.440  -8.220  26.906  0.00  0.00    +0.149 HD
BRANCH  14  16
ATOM     16  C   UNL     1       2.663  -6.392  27.655  0.00  0.00    +0.185 C 
BRANCH  16  17
ATOM     17  C   UNL     1       1.633  -7.274  28.368  0.00  0.00    +0.324 C 
ATOM     18  O   UNL     1       0.932  -6.871  29.288  0.00  0.00    -0.249 OA
BRANCH  17  19
ATOM     19  O   UNL     1       1.555  -8.539  27.901  0.00  0.00    -0.479 OA
ATOM     20  H   UNL     1       1.195  -8.618  26.998  0.00  0.00    +0.295 HD
ENDBRANCH  17  19
ENDBRANCH  16  17
BRANCH  16  21
ATOM     21  C   UNL     1       3.595  -5.781  28.713  0.00  0.00    +0.043 C 
BRANCH  21  22
ATOM     22  C   UNL     1       4.487  -6.821  29.394  0.00  0.00    +0.122 C 
BRANCH  22  23
ATOM     23  C   UNL     1       5.952  -6.475  29.252  0.00  0.00    +0.305 C 
ATOM     24  O   UNL     1       6.381  -5.355  29.029  0.00  0.00    -0.251 OA
BRANCH  23  25
ATOM     25  O   UNL     1       6.760  -7.554  29.343  0.00  0.00    -0.481 OA
ATOM     26  H   UNL     1       7.706  -7.348  29.460  0.00  0.00    +0.295 HD
ENDBRANCH  23  25
ENDBRANCH  22  23
ENDBRANCH  21  22
ENDBRANCH  16  21
ENDBRANCH  14  16
ENDBRANCH  11  14
ENDBRANCH   1  11
BRANCH   6  27
ATOM     27  O   UNL     1      10.026  -2.801  23.837  0.00  0.00    -0.487 OA
BRANCH  27  28
ATOM     28  C   UNL     1       9.855  -2.069  22.620  0.00  0.00    +0.267 C 
BRANCH  28  29
ATOM     29  C   UNL     1      10.035  -0.603  22.882  0.00  0.00    +0.025 A 
ATOM     30  C   UNL     1      10.509  -0.148  24.119  0.00  0.00    +0.011 A 
ATOM     31  C   UNL     1      10.704   1.216  24.330  0.00  0.00    +0.019 A 
ATOM     32  C   UNL     1      10.426   2.133  23.309  0.00  0.00    +0.055 A 
ATOM     33  C   UNL     1       9.952   1.685  22.076  0.00  0.00    +0.057 A 
ATOM     34  C   UNL     1       9.762   0.325  21.875  0.00  0.00    +0.131 A 
ATOM     35  F   UNL     1       9.322  -0.090  20.678  0.00  0.00    -0.205 F 
BRANCH  32  36
ATOM     36  C   UNL     1      10.632   3.532  23.528  0.00  0.00    +0.099 C 
ATOM     37  N   UNL     1      10.802   4.665  23.707  0.00  0.00    -0.191 NA
ENDBRANCH  32  36
ENDBRANCH  28  29
ENDBRANCH  27  28
ENDBRANCH   6  27
TORSDOF 13
ENDMDL
MODEL 6
REMARK VINA RESULT:      -7.0      3.200      5.126
REMARK  Name = 
REMARK  13 active torsions:
REMARK  status: ('A' for Active; 'I' for Inactive)
REMARK    1  A    between atoms: C_2  and  C_3
REMARK    2  A    between atoms: C_2  and  N_8
REMARK    3  A    between atoms: C_2  and  C_33
REMARK    4  A    between atoms: C_3  and  C_4
REMARK    5  A    between atoms: C_4  and  C_5
REMARK    6  A    between atoms: C_5  and  O_6
REMARK    7  A    between atoms: N_8  and  S_9
REMARK    8  A    between atoms: S_9  and  C_12
REMARK    9  A    between atoms: C_19  and  O_20
REMARK   10  A    between atoms: O_20  and  C_21
REMARK   11  A    between atoms: C_21  and  C_22
REMARK   12  A    between atoms: C_26  and  C_29
REMARK   13  A    between atoms: C_33  and  O_34
REMARK                            x       y       z     vdW  Elec       q    Type
REMARK                         _______ _______ _______ _____ _____    ______ ____
ROOT
ATOM      1  C   UNL     1       6.102  -5.091  27.870  0.00  0.00    +0.106 A 
ATOM      2  C   UNL     1       5.690  -3.800  27.550  0.00  0.00    +0.029 A 
ATOM      3  C   UNL     1       6.426  -3.062  26.632  0.00  0.00    +0.010 A 
ATOM      4  C   UNL     1       7.563  -3.611  26.023  0.00  0.00    -0.014 A 
ATOM      5  C   UNL     1       8.294  -2.853  25.109  0.00  0.00    +0.054 A 
ATOM      6  C   UNL     1       9.445  -3.367  24.507  0.00  0.00    +0.122 A 
ATOM      7  C   UNL     1       9.841  -4.674  24.782  0.00  0.00    +0.046 A 
ATOM      8  C   UNL     1       9.126  -5.444  25.705  0.00  0.00    +0.012 A 
ATOM      9  C   UNL     1       7.985  -4.921  26.340  0.00  0.00    -0.016 A 
ATOM     10  C   UNL     1       7.250  -5.649  27.286  0.00  0.00    +0.037 A 
ENDROOT
BRANCH   1  11
ATOM     11  S   UNL     1       5.248  -5.990  29.134  0.00  0.00    +0.059 S 
ATOM     12  O   UNL     1       5.607  -7.376  28.988  0.00  0.00    -0.153 OA
ATOM     13  O   UNL     1       5.399  -5.267  30.377  0.00  0.00    -0.153 OA
BRANCH  11  14
ATOM     14  N   UNL     1       3.631  -5.798  28.676  0.00  0.00    -0.176 NA
ATOM     15  H   UNL     1       3.050  -5.792  29.523  0.00  0.00    +0.149 HD
BRANCH  14  16
ATOM     16  C   UNL     1       3.129  -6.689  27.600  0.00  0.00    +0.185 C 
BRANCH  16  17
ATOM     17  C   UNL     1       1.808  -7.335  28.035  0.00  0.00    +0.324 C 
ATOM     18  O   UNL     1       1.071  -6.841  28.880  0.00  0.00    -0.249 OA
BRANCH  17  19
ATOM     19  O   UNL     1       1.517  -8.496  27.411  0.00  0.00    -0.479 OA
ATOM     20  H   UNL     1       0.599  -8.565  27.086  0.00  0.00    +0.295 HD
ENDBRANCH  17  19
ENDBRANCH  16  17
BRANCH  16  21
ATOM     21  C   UNL     1       2.870  -5.865  26.330  0.00  0.00    +0.043 C 
BRANCH  21  22
ATOM     22  C   UNL     1       3.815  -6.226  25.182  0.00  0.00    +0.122 C 
BRANCH  22  23
ATOM     23  C   UNL     1       3.228  -7.300  24.296  0.00  0.00    +0.305 C 
ATOM     24  O   UNL     1       2.861  -8.396  24.685  0.00  0.00    -0.251 OA
BRANCH  23  25
ATOM     25  O   UNL     1       3.195  -6.949  22.991  0.00  0.00    -0.481 OA
ATOM     26  H   UNL     1       3.891  -7.353  22.440  0.00  0.00    +0.295 HD
ENDBRANCH  23  25
ENDBRANCH  22  23
ENDBRANCH  21  22
ENDBRANCH  16  21
ENDBRANCH  14  16
ENDBRANCH  11  14
ENDBRANCH   1  11
BRANCH   6  27
ATOM     27  O   UNL     1      10.239  -2.658  23.644  0.00  0.00    -0.487 OA
BRANCH  27  28
ATOM     28  C   UNL     1       9.509  -1.838  22.727  0.00  0.00    +0.267 C 
BRANCH  28  29
ATOM     29  C   UNL     1       9.880  -0.399  22.929  0.00  0.00    +0.025 A 
ATOM     30  C   UNL     1      10.436   0.036  24.138  0.00  0.00    +0.011 A 
ATOM     31  C   UNL     1      10.809   1.371  24.293  0.00  0.00    +0.019 A 
ATOM     32  C   UNL     1      10.627   2.278  23.242  0.00  0.00    +0.055 A 
ATOM     33  C   UNL     1      10.070   1.850  22.037  0.00  0.00    +0.057 A 
ATOM     34  C   UNL     1       9.704   0.520  21.892  0.00  0.00    +0.131 A 
ATOM     35  F   UNL     1       9.187   0.121  20.721  0.00  0.00    -0.205 F 
BRANCH  32  36
ATOM     36  C   UNL     1      11.014   3.646  23.403  0.00  0.00    +0.099 C 
ATOM     37  N   UNL     1      11.330   4.754  23.536  0.00  0.00    -0.191 NA
ENDBRANCH  32  36
ENDBRANCH  28  29
ENDBRANCH  27  28
ENDBRANCH   6  27
TORSDOF 13
ENDMDL
MODEL 7
REMARK VINA RESULT:      -7.0      2.030      3.467
REMARK  Name = 
REMARK  13 active torsions:
REMARK  status: ('A' for Active; 'I' for Inactive)
REMARK    1  A    between atoms: C_2  and  C_3
REMARK    2  A    between atoms: C_2  and  N_8
REMARK    3  A    between atoms: C_2  and  C_33
REMARK    4  A    between atoms: C_3  and  C_4
REMARK    5  A    between atoms: C_4  and  C_5
REMARK    6  A    between atoms: C_5  and  O_6
REMARK    7  A    between atoms: N_8  and  S_9
REMARK    8  A    between atoms: S_9  and  C_12
REMARK    9  A    between atoms: C_19  and  O_20
REMARK   10  A    between atoms: O_20  and  C_21
REMARK   11  A    between atoms: C_21  and  C_22
REMARK   12  A    between atoms: C_26  and  C_29
REMARK   13  A    between atoms: C_33  and  O_34
REMARK                            x       y       z     vdW  Elec       q    Type
REMARK                         _______ _______ _______ _____ _____    ______ ____
ROOT
ATOM      1  C   UNL     1       6.733  -4.477  26.240  0.00  0.00    +0.106 A 
ATOM      2  C   UNL     1       7.709  -5.113  25.477  0.00  0.00    +0.029 A 
ATOM      3  C   UNL     1       8.682  -4.347  24.849  0.00  0.00    +0.010 A 
ATOM      4  C   UNL     1       8.694  -2.953  24.988  0.00  0.00    -0.014 A 
ATOM      5  C   UNL     1       9.674  -2.199  24.344  0.00  0.00    +0.054 A 
ATOM      6  C   UNL     1       9.693  -0.807  24.446  0.00  0.00    +0.122 A 
ATOM      7  C   UNL     1       8.751  -0.162  25.245  0.00  0.00    +0.046 A 
ATOM      8  C   UNL     1       7.754  -0.901  25.889  0.00  0.00    +0.012 A 
ATOM      9  C   UNL     1       7.709  -2.301  25.763  0.00  0.00    -0.016 A 
ATOM     10  C   UNL     1       6.716  -3.080  26.374  0.00  0.00    +0.037 A 
ENDROOT
BRANCH   1  11
ATOM     11  S   UNL     1       5.413  -5.431  26.937  0.00  0.00    +0.059 S 
ATOM     12  O   UNL     1       5.859  -6.799  26.991  0.00  0.00    -0.153 OA
ATOM     13  O   UNL     1       4.913  -4.723  28.094  0.00  0.00    -0.153 OA
BRANCH  11  14
ATOM     14  N   UNL     1       4.213  -5.298  25.753  0.00  0.00    -0.176 NA
ATOM     15  H   UNL     1       3.322  -5.612  26.155  0.00  0.00    +0.149 HD
BRANCH  14  16
ATOM     16  C   UNL     1       4.518  -5.879  24.422  0.00  0.00    +0.185 C 
BRANCH  16  17
ATOM     17  C   UNL     1       3.593  -7.070  24.151  0.00  0.00    +0.324 C 
ATOM     18  O   UNL     1       3.440  -7.991  24.944  0.00  0.00    -0.249 OA
BRANCH  17  19
ATOM     19  O   UNL     1       2.952  -7.027  22.962  0.00  0.00    -0.479 OA
ATOM     20  H   UNL     1       2.898  -7.883  22.497  0.00  0.00    +0.295 HD
ENDBRANCH  17  19
ENDBRANCH  16  17
BRANCH  16  21
ATOM     21  C   UNL     1       4.279  -4.821  23.333  0.00  0.00    +0.043 C 
BRANCH  21  22
ATOM     22  C   UNL     1       5.564  -4.400  22.617  0.00  0.00    +0.122 C 
BRANCH  22  23
ATOM     23  C   UNL     1       6.197  -5.559  21.883  0.00  0.00    +0.305 C 
ATOM     24  O   UNL     1       7.389  -5.815  21.887  0.00  0.00    -0.251 OA
BRANCH  23  25
ATOM     25  O   UNL     1       5.307  -6.274  21.159  0.00  0.00    -0.481 OA
ATOM     26  H   UNL     1       4.621  -6.727  21.685  0.00  0.00    +0.295 HD
ENDBRANCH  23  25
ENDBRANCH  22  23
ENDBRANCH  21  22
ENDBRANCH  16  21
ENDBRANCH  14  16
ENDBRANCH  11  14
ENDBRANCH   1  11
BRANCH   6  27
ATOM     27  O   UNL     1      10.594  -0.004  23.796  0.00  0.00    -0.487 OA
BRANCH  27  28
ATOM     28  C   UNL     1      10.208   0.334  22.460  0.00  0.00    +0.267 C 
BRANCH  28  29
ATOM     29  C   UNL     1       9.323   1.544  22.481  0.00  0.00    +0.025 A 
ATOM     30  C   UNL     1       8.067   1.525  21.860  0.00  0.00    +0.011 A 
ATOM     31  C   UNL     1       7.243   2.648  21.922  0.00  0.00    +0.019 A 
ATOM     32  C   UNL     1       7.668   3.796  22.602  0.00  0.00    +0.055 A 
ATOM     33  C   UNL     1       8.919   3.821  23.219  0.00  0.00    +0.057 A 
ATOM     34  C   UNL     1       9.731   2.698  23.154  0.00  0.00    +0.131 A 
ATOM     35  F   UNL     1      10.922   2.732  23.767  0.00  0.00    -0.205 F 
BRANCH  32  36
ATOM     36  C   UNL     1       6.817   4.945  22.667  0.00  0.00    +0.099 C 
ATOM     37  N   UNL     1       6.131   5.877  22.721  0.00  0.00    -0.191 NA
ENDBRANCH  32  36
ENDBRANCH  28  29
ENDBRANCH  27  28
ENDBRANCH   6  27
TORSDOF 13
ENDMDL
MODEL 8
REMARK VINA RESULT:      -7.0      2.872      4.871
REMARK  Name = 
REMARK  13 active torsions:
REMARK  status: ('A' for Active; 'I' for Inactive)
REMARK    1  A    between atoms: C_2  and  C_3
REMARK    2  A    between atoms: C_2  and  N_8
REMARK    3  A    between atoms: C_2  and  C_33
REMARK    4  A    between atoms: C_3  and  C_4
REMARK    5  A    between atoms: C_4  and  C_5
REMARK    6  A    between atoms: C_5  and  O_6
REMARK    7  A    between atoms: N_8  and  S_9
REMARK    8  A    between atoms: S_9  and  C_12
REMARK    9  A    between atoms: C_19  and  O_20
REMARK   10  A    between atoms: O_20  and  C_21
REMARK   11  A    between atoms: C_21  and  C_22
REMARK   12  A    between atoms: C_26  and  C_29
REMARK   13  A    between atoms: C_33  and  O_34
REMARK                            x       y       z     vdW  Elec       q    Type
REMARK                         _______ _______ _______ _____ _____    ______ ____
ROOT
ATOM      1  C   UNL     1       6.474  -5.102  27.181  0.00  0.00    +0.106 A 
ATOM      2  C   UNL     1       7.813  -5.449  27.014  0.00  0.00    +0.029 A 
ATOM      3  C   UNL     1       8.524  -4.906  25.951  0.00  0.00    +0.010 A 
ATOM      4  C   UNL     1       7.910  -4.011  25.063  0.00  0.00    -0.014 A 
ATOM      5  C   UNL     1       8.638  -3.482  23.998  0.00  0.00    +0.054 A 
ATOM      6  C   UNL     1       8.043  -2.608  23.085  0.00  0.00    +0.122 A 
ATOM      7  C   UNL     1       6.719  -2.216  23.270  0.00  0.00    +0.046 A 
ATOM      8  C   UNL     1       5.971  -2.745  24.326  0.00  0.00    +0.012 A 
ATOM      9  C   UNL     1       6.555  -3.652  25.230  0.00  0.00    -0.016 A 
ATOM     10  C   UNL     1       5.837  -4.223  26.291  0.00  0.00    +0.037 A 
ENDROOT
BRANCH   1  11
ATOM     11  S   UNL     1       5.524  -5.887  28.453  0.00  0.00    +0.059 S 
ATOM     12  O   UNL     1       5.695  -7.308  28.297  0.00  0.00    -0.153 OA
ATOM     13  O   UNL     1       5.786  -5.197  29.697  0.00  0.00    -0.153 OA
BRANCH  11  14
ATOM     14  N   UNL     1       3.941  -5.480  28.018  0.00  0.00    -0.176 NA
ATOM     15  H   UNL     1       3.446  -5.155  28.856  0.00  0.00    +0.149 HD
BRANCH  14  16
ATOM     16  C   UNL     1       3.190  -6.477  27.215  0.00  0.00    +0.185 C 
BRANCH  16  17
ATOM     17  C   UNL     1       2.229  -7.255  28.120  0.00  0.00    +0.324 C 
ATOM     18  O   UNL     1       2.013  -6.946  29.286  0.00  0.00    -0.249 OA
BRANCH  17  19
ATOM     19  O   UNL     1       1.633  -8.314  27.531  0.00  0.00    -0.479 OA
ATOM     20  H   UNL     1       1.103  -8.096  26.742  0.00  0.00    +0.295 HD
ENDBRANCH  17  19
ENDBRANCH  16  17
BRANCH  16  21
ATOM     21  C   UNL     1       2.364  -5.753  26.140  0.00  0.00    +0.043 C 
BRANCH  21  22
ATOM     22  C   UNL     1       2.925  -5.941  24.729  0.00  0.00    +0.122 C 
BRANCH  22  23
ATOM     23  C   UNL     1       3.344  -7.372  24.484  0.00  0.00    +0.305 C 
ATOM     24  O   UNL     1       2.625  -8.344  24.652  0.00  0.00    -0.251 OA
BRANCH  23  25
ATOM     25  O   UNL     1       4.636  -7.486  24.103  0.00  0.00    -0.481 OA
ATOM     26  H   UNL     1       4.879  -8.355  23.735  0.00  0.00    +0.295 HD
ENDBRANCH  23  25
ENDBRANCH  22  23
ENDBRANCH  21  22
ENDBRANCH  16  21
ENDBRANCH  14  16
ENDBRANCH  11  14
ENDBRANCH   1  11
BRANCH   6  27
ATOM     27  O   UNL     1       8.684  -2.096  21.988  0.00  0.00    -0.487 OA
BRANCH  27  28
ATOM     28  C   UNL     1      10.006  -1.622  22.258  0.00  0.00    +0.267 C 
BRANCH  28  29
ATOM     29  C   UNL     1       9.953  -0.176  22.654  0.00  0.00    +0.025 A 
ATOM     30  C   UNL     1       9.703   0.820  21.702  0.00  0.00    +0.011 A 
ATOM     31  C   UNL     1       9.621   2.155  22.096  0.00  0.00    +0.019 A 
ATOM     32  C   UNL     1       9.789   2.503  23.442  0.00  0.00    +0.055 A 
ATOM     33  C   UNL     1      10.041   1.515  24.393  0.00  0.00    +0.057 A 
ATOM     34  C   UNL     1      10.119   0.189  23.992  0.00  0.00    +0.131 A 
ATOM     35  F   UNL     1      10.344  -0.750  24.922  0.00  0.00    -0.205 F 
BRANCH  32  36
ATOM     36  C   UNL     1       9.700   3.874  23.843  0.00  0.00    +0.099 C 
ATOM     37  N   UNL     1       9.625   4.984  24.169  0.00  0.00    -0.191 NA
ENDBRANCH  32  36
ENDBRANCH  28  29
ENDBRANCH  27  28
ENDBRANCH   6  27
TORSDOF 13
ENDMDL
MODEL 9
REMARK VINA RESULT:      -7.0      1.835      3.449
REMARK  Name = 
REMARK  13 active torsions:
REMARK  status: ('A' for Active; 'I' for Inactive)
REMARK    1  A    between atoms: C_2  and  C_3
REMARK    2  A    between atoms: C_2  and  N_8
REMARK    3  A    between atoms: C_2  and  C_33
REMARK    4  A    between atoms: C_3  and  C_4
REMARK    5  A    between atoms: C_4  and  C_5
REMARK    6  A    between atoms: C_5  and  O_6
REMARK    7  A    between atoms: N_8  and  S_9
REMARK    8  A    between atoms: S_9  and  C_12
REMARK    9  A    between atoms: C_19  and  O_20
REMARK   10  A    between atoms: O_20  and  C_21
REMARK   11  A    between atoms: C_21  and  C_22
REMARK   12  A    between atoms: C_26  and  C_29
REMARK   13  A    between atoms: C_33  and  O_34
REMARK                            x       y       z     vdW  Elec       q    Type
REMARK                         _______ _______ _______ _____ _____    ______ ____
ROOT
ATOM      1  C   UNL     1       8.457  -3.494  25.141  0.00  0.00    +0.106 A 
ATOM      2  C   UNL     1       7.948  -2.735  26.191  0.00  0.00    +0.029 A 
ATOM      3  C   UNL     1       8.208  -1.370  26.228  0.00  0.00    +0.010 A 
ATOM      4  C   UNL     1       8.962  -0.760  25.217  0.00  0.00    -0.014 A 
ATOM      5  C   UNL     1       9.219   0.609  25.274  0.00  0.00    +0.054 A 
ATOM      6  C   UNL     1       9.989   1.238  24.293  0.00  0.00    +0.122 A 
ATOM      7  C   UNL     1      10.464   0.499  23.212  0.00  0.00    +0.046 A 
ATOM      8  C   UNL     1      10.225  -0.878  23.144  0.00  0.00    +0.012 A 
ATOM      9  C   UNL     1       9.478  -1.523  24.147  0.00  0.00    -0.016 A 
ATOM     10  C   UNL     1       9.232  -2.903  24.130  0.00  0.00    +0.037 A 
ENDROOT
BRANCH   1  11
ATOM     11  S   UNL     1       8.242  -5.252  25.153  0.00  0.00    +0.059 S 
ATOM     12  O   UNL     1       9.265  -5.812  24.309  0.00  0.00    -0.153 OA
ATOM     13  O   UNL     1       8.039  -5.668  26.522  0.00  0.00    -0.153 OA
BRANCH  11  14
ATOM     14  N   UNL     1       6.747  -5.433  24.383  0.00  0.00    -0.176 NA
ATOM     15  H   UNL     1       6.636  -6.417  24.111  0.00  0.00    +0.149 HD
BRANCH  14  16
ATOM     16  C   UNL     1       6.426  -4.465  23.305  0.00  0.00    +0.185 C 
BRANCH  16  17
ATOM     17  C   UNL     1       6.552  -5.149  21.939  0.00  0.00    +0.324 C 
ATOM     18  O   UNL     1       5.841  -4.865  20.983  0.00  0.00    -0.249 OA
BRANCH  17  19
ATOM     19  O   UNL     1       7.514  -6.095  21.869  0.00  0.00    -0.479 OA
ATOM     20  H   UNL     1       7.185  -6.998  21.699  0.00  0.00    +0.295 HD
ENDBRANCH  17  19
ENDBRANCH  16  17
BRANCH  16  21
ATOM     21  C   UNL     1       4.980  -3.973  23.469  0.00  0.00    +0.043 C 
BRANCH  21  22
ATOM     22  C   UNL     1       4.120  -4.918  24.310  0.00  0.00    +0.122 C 
BRANCH  22  23
ATOM     23  C   UNL     1       3.517  -6.019  23.468  0.00  0.00    +0.305 C 
ATOM     24  O   UNL     1       2.556  -5.880  22.730  0.00  0.00    -0.251 OA
BRANCH  23  25
ATOM     25  O   UNL     1       4.121  -7.214  23.652  0.00  0.00    -0.481 OA
ATOM     26  H   UNL     1       3.833  -7.701  24.446  0.00  0.00    +0.295 HD
ENDBRANCH  23  25
ENDBRANCH  22  23
ENDBRANCH  21  22
ENDBRANCH  16  21
ENDBRANCH  14  16
ENDBRANCH  11  14
ENDBRANCH   1  11
BRANCH   6  27
ATOM     27  O   UNL     1      10.325   2.566  24.318  0.00  0.00    -0.487 OA
BRANCH  27  28
ATOM     28  C   UNL     1       9.740   3.331  23.260  0.00  0.00    +0.267 C 
BRANCH  28  29
ATOM     29  C   UNL     1       8.245   3.253  23.347  0.00  0.00    +0.025 A 
ATOM     30  C   UNL     1       7.556   3.842  24.414  0.00  0.00    +0.011 A 
ATOM     31  C   UNL     1       6.163   3.791  24.457  0.00  0.00    +0.019 A 
ATOM     32  C   UNL     1       5.452   3.151  23.435  0.00  0.00    +0.055 A 
ATOM     33  C   UNL     1       6.133   2.560  22.371  0.00  0.00    +0.057 A 
ATOM     34  C   UNL     1       7.519   2.618  22.337  0.00  0.00    +0.131 A 
ATOM     35  F   UNL     1       8.158   2.061  21.298  0.00  0.00    -0.205 F 
BRANCH  32  36
ATOM     36  C   UNL     1       4.022   3.104  23.480  0.00  0.00    +0.099 C 
ATOM     37  N   UNL     1       2.864   3.069  23.518  0.00  0.00    -0.191 NA
ENDBRANCH  32  36
ENDBRANCH  28  29
ENDBRANCH  27  28
ENDBRANCH   6  27
TORSDOF 13
ENDMDL
