MODEL 1
REMARK VINA RESULT:      -8.3      0.000      0.000
REMARK  Name = 
REMARK  5 active torsions:
REMARK  status: ('A' for Active; 'I' for Inactive)
REMARK    1  A    between atoms: O_1  and  C_2
REMARK    2  A    between atoms: C_2  and  C_4
REMARK    3  A    between atoms: C_4  and  C_5
REMARK    4  A    between atoms: C_8  and  C_11
REMARK    5  A    between atoms: C_17  and  C_20
REMARK                            x       y       z     vdW  Elec       q    Type
REMARK                         _______ _______ _______ _____ _____    ______ ____
ROOT
ATOM      1  C   UNL     1       5.271  -6.051  25.839  0.00  0.00    +0.009 A 
ATOM      2  C   UNL     1       6.407  -5.178  25.776  0.00  0.00    +0.027 A 
ATOM      3  C   UNL     1       7.158  -5.381  26.925  0.00  0.00    +0.139 A 
ATOM      4  N   UNL     1       8.289  -4.749  27.286  0.00  0.00    -0.237 NA
ATOM      5  C   UNL     1       8.679  -3.803  26.384  0.00  0.00    +0.121 A 
ATOM      6  C   UNL     1       8.046  -3.472  25.181  0.00  0.00    +0.001 A 
ATOM      7  N   UNL     1       6.536  -6.349  27.662  0.00  0.00    -0.345 N 
ATOM      8  H   UNL     1       6.881  -6.680  28.551  0.00  0.00    +0.167 HD
ATOM      9  C   UNL     1       6.882  -4.201  24.884  0.00  0.00    +0.022 A 
ATOM     10  C   UNL     1       5.386  -6.754  27.027  0.00  0.00    +0.093 A 
ENDROOT
BRANCH   6  11
ATOM     11  C   UNL     1       8.538  -2.426  24.253  0.00  0.00    -0.016 A 
ATOM     12  C   UNL     1       9.095  -1.228  24.748  0.00  0.00    +0.017 A 
ATOM     13  C   UNL     1       9.483  -0.171  23.910  0.00  0.00    -0.017 A 
ATOM     14  C   UNL     1       9.365  -0.321  22.515  0.00  0.00    -0.018 A 
ATOM     15  C   UNL     1       9.744   0.740  21.677  0.00  0.00    +0.008 A 
ATOM     16  C   UNL     1      10.212   1.941  22.215  0.00  0.00    +0.001 A 
ATOM     17  C   UNL     1      10.321   2.092  23.594  0.00  0.00    +0.001 A 
ATOM     18  C   UNL     1       8.857  -1.524  22.004  0.00  0.00    +0.009 A 
ATOM     19  C   UNL     1       9.968   1.038  24.437  0.00  0.00    +0.008 A 
ATOM     20  C   UNL     1       8.436  -2.552  22.860  0.00  0.00    +0.009 A 
ENDBRANCH   6  11
BRANCH   1  24
ATOM     21  C   UNL     1       1.980  -6.656  23.159  0.00  0.00    -0.037 A 
ATOM     22  C   UNL     1       1.769  -6.576  24.539  0.00  0.00    +0.005 A 
ATOM     23  C   UNL     1       2.839  -6.319  25.400  0.00  0.00    +0.009 A 
ATOM     24  C   UNL     1       4.146  -6.175  24.914  0.00  0.00    -0.016 A 
ATOM     25  C   UNL     1       4.344  -6.222  23.527  0.00  0.00    +0.009 A 
ATOM     26  C   UNL     1       3.272  -6.454  22.657  0.00  0.00    +0.005 A 
BRANCH  21  27
ATOM     27  C   UNL     1       0.842  -7.032  22.237  0.00  0.00    +0.155 C 
BRANCH  27  28
ATOM     28  C   UNL     1       0.857  -8.446  21.699  0.00  0.00    +0.309 C 
ATOM     29  O   UNL     1       0.443  -9.397  22.352  0.00  0.00    -0.251 OA
BRANCH  28  30
ATOM     30  O   UNL     1       1.353  -8.626  20.453  0.00  0.00    -0.480 OA
ATOM     31  H   UNL     1       1.270  -9.531  20.100  0.00  0.00    +0.295 HD
ENDBRANCH  28  30
ENDBRANCH  27  28
ENDBRANCH  21  27
ENDBRANCH   1  24
TORSDOF 5
ENDMDL
MODEL 2
REMARK VINA RESULT:      -7.4      2.737      4.079
REMARK  Name = 
REMARK  5 active torsions:
REMARK  status: ('A' for Active; 'I' for Inactive)
REMARK    1  A    between atoms: O_1  and  C_2
REMARK    2  A    between atoms: C_2  and  C_4
REMARK    3  A    between atoms: C_4  and  C_5
REMARK    4  A    between atoms: C_8  and  C_11
REMARK    5  A    between atoms: C_17  and  C_20
REMARK                            x       y       z     vdW  Elec       q    Type
REMARK                         _______ _______ _______ _____ _____    ______ ____
ROOT
ATOM      1  C   UNL     1       7.652  -3.566  23.891  0.00  0.00    +0.009 A 
ATOM      2  C   UNL     1       8.234  -2.262  23.760  0.00  0.00    +0.027 A 
ATOM      3  C   UNL     1       9.564  -2.353  24.148  0.00  0.00    +0.139 A 
ATOM      4  N   UNL     1      10.469  -1.360  24.206  0.00  0.00    -0.237 NA
ATOM      5  C   UNL     1       9.955  -0.151  23.844  0.00  0.00    +0.121 A 
ATOM      6  C   UNL     1       8.647   0.120  23.426  0.00  0.00    +0.001 A 
ATOM      7  N   UNL     1       9.809  -3.654  24.486  0.00  0.00    -0.345 N 
ATOM      8  H   UNL     1      10.706  -3.986  24.808  0.00  0.00    +0.167 HD
ATOM      9  C   UNL     1       7.781  -0.986  23.381  0.00  0.00    +0.022 A 
ATOM     10  C   UNL     1       8.661  -4.398  24.350  0.00  0.00    +0.093 A 
ENDROOT
BRANCH   6  11
ATOM     11  C   UNL     1       8.165   1.470  23.049  0.00  0.00    -0.016 A 
ATOM     12  C   UNL     1       8.901   2.621  23.400  0.00  0.00    +0.017 A 
ATOM     13  C   UNL     1       8.437   3.922  23.149  0.00  0.00    -0.017 A 
ATOM     14  C   UNL     1       7.213   4.096  22.476  0.00  0.00    -0.018 A 
ATOM     15  C   UNL     1       6.744   5.398  22.234  0.00  0.00    +0.008 A 
ATOM     16  C   UNL     1       7.466   6.509  22.674  0.00  0.00    +0.001 A 
ATOM     17  C   UNL     1       8.672   6.335  23.347  0.00  0.00    +0.001 A 
ATOM     18  C   UNL     1       6.491   2.962  22.079  0.00  0.00    +0.009 A 
ATOM     19  C   UNL     1       9.159   5.049  23.574  0.00  0.00    +0.008 A 
ATOM     20  C   UNL     1       6.952   1.671  22.374  0.00  0.00    +0.009 A 
ENDBRANCH   6  11
BRANCH   1  24
ATOM     21  C   UNL     1       3.625  -4.965  23.442  0.00  0.00    -0.037 A 
ATOM     22  C   UNL     1       3.934  -3.972  24.376  0.00  0.00    +0.005 A 
ATOM     23  C   UNL     1       5.238  -3.479  24.474  0.00  0.00    +0.009 A 
ATOM     24  C   UNL     1       6.269  -3.989  23.675  0.00  0.00    -0.016 A 
ATOM     25  C   UNL     1       5.946  -4.960  22.718  0.00  0.00    +0.009 A 
ATOM     26  C   UNL     1       4.636  -5.440  22.597  0.00  0.00    +0.005 A 
BRANCH  21  27
ATOM     27  C   UNL     1       2.239  -5.568  23.404  0.00  0.00    +0.155 C 
BRANCH  27  28
ATOM     28  C   UNL     1       2.157  -7.033  23.031  0.00  0.00    +0.309 C 
ATOM     29  O   UNL     1       1.425  -7.436  22.134  0.00  0.00    -0.251 OA
BRANCH  28  30
ATOM     30  O   UNL     1       2.929  -7.892  23.735  0.00  0.00    -0.480 OA
ATOM     31  H   UNL     1       2.580  -8.140  24.611  0.00  0.00    +0.295 HD
ENDBRANCH  28  30
ENDBRANCH  27  28
ENDBRANCH  21  27
ENDBRANCH   1  24
TORSDOF 5
ENDMDL
MODEL 3
REMARK VINA RESULT:      -7.4      4.980      9.552
REMARK  Name = 
REMARK  5 active torsions:
REMARK  status: ('A' for Active; 'I' for Inactive)
REMARK    1  A    between atoms: O_1  and  C_2
REMARK    2  A    between atoms: C_2  and  C_4
REMARK    3  A    between atoms: C_4  and  C_5
REMARK    4  A    between atoms: C_8  and  C_11
REMARK    5  A    between atoms: C_17  and  C_20
REMARK                            x       y       z     vdW  Elec       q    Type
REMARK                         _______ _______ _______ _____ _____    ______ ____
ROOT
ATOM      1  C   UNL     1       9.128  -0.354  23.313  0.00  0.00    +0.009 A 
ATOM      2  C   UNL     1       8.410  -1.550  23.645  0.00  0.00    +0.027 A 
ATOM      3  C   UNL     1       9.321  -2.597  23.656  0.00  0.00    +0.139 A 
ATOM      4  N   UNL     1       9.069  -3.897  23.892  0.00  0.00    -0.237 NA
ATOM      5  C   UNL     1       7.750  -4.149  24.124  0.00  0.00    +0.121 A 
ATOM      6  C   UNL     1       6.705  -3.219  24.153  0.00  0.00    +0.001 A 
ATOM      7  N   UNL     1      10.551  -2.080  23.366  0.00  0.00    -0.345 N 
ATOM      8  H   UNL     1      11.391  -2.638  23.308  0.00  0.00    +0.167 HD
ATOM      9  C   UNL     1       7.071  -1.884  23.913  0.00  0.00    +0.022 A 
ATOM     10  C   UNL     1      10.451  -0.728  23.141  0.00  0.00    +0.093 A 
ENDROOT
BRANCH   6  11
ATOM     11  C   UNL     1       5.291  -3.577  24.414  0.00  0.00    -0.016 A 
ATOM     12  C   UNL     1       4.651  -4.582  23.658  0.00  0.00    +0.017 A 
ATOM     13  C   UNL     1       3.288  -4.887  23.804  0.00  0.00    -0.017 A 
ATOM     14  C   UNL     1       2.532  -4.205  24.776  0.00  0.00    -0.018 A 
ATOM     15  C   UNL     1       1.167  -4.503  24.915  0.00  0.00    +0.008 A 
ATOM     16  C   UNL     1       0.556  -5.448  24.086  0.00  0.00    +0.001 A 
ATOM     17  C   UNL     1       1.302  -6.115  23.121  0.00  0.00    +0.001 A 
ATOM     18  C   UNL     1       3.164  -3.235  25.568  0.00  0.00    +0.009 A 
ATOM     19  C   UNL     1       2.664  -5.844  22.987  0.00  0.00    +0.008 A 
ATOM     20  C   UNL     1       4.516  -2.917  25.379  0.00  0.00    +0.009 A 
ENDBRANCH   6  11
BRANCH   1  24
ATOM     21  C   UNL     1       7.427   3.548  22.792  0.00  0.00    -0.037 A 
ATOM     22  C   UNL     1       7.946   3.156  24.030  0.00  0.00    +0.005 A 
ATOM     23  C   UNL     1       8.552   1.905  24.176  0.00  0.00    +0.009 A 
ATOM     24  C   UNL     1       8.622   1.003  23.106  0.00  0.00    -0.016 A 
ATOM     25  C   UNL     1       8.131   1.415  21.860  0.00  0.00    +0.009 A 
ATOM     26  C   UNL     1       7.545   2.677  21.702  0.00  0.00    +0.005 A 
BRANCH  21  27
ATOM     27  C   UNL     1       6.685   4.857  22.660  0.00  0.00    +0.155 C 
BRANCH  27  28
ATOM     28  C   UNL     1       7.489   6.035  22.151  0.00  0.00    +0.309 C 
ATOM     29  O   UNL     1       8.559   6.357  22.653  0.00  0.00    -0.251 OA
BRANCH  28  30
ATOM     30  O   UNL     1       6.975   6.728  21.110  0.00  0.00    -0.480 OA
ATOM     31  H   UNL     1       6.630   7.614  21.331  0.00  0.00    +0.295 HD
ENDBRANCH  28  30
ENDBRANCH  27  28
ENDBRANCH  21  27
ENDBRANCH   1  24
TORSDOF 5
ENDMDL
MODEL 4
REMARK VINA RESULT:      -7.2      6.204     10.239
REMARK  Name = 
REMARK  5 active torsions:
REMARK  status: ('A' for Active; 'I' for Inactive)
REMARK    1  A    between atoms: O_1  and  C_2
REMARK    2  A    between atoms: C_2  and  C_4
REMARK    3  A    between atoms: C_4  and  C_5
REMARK    4  A    between atoms: C_8  and  C_11
REMARK    5  A    between atoms: C_17  and  C_20
REMARK                            x       y       z     vdW  Elec       q    Type
REMARK                         _______ _______ _______ _____ _____    ______ ____
ROOT
ATOM      1  C   UNL     1       7.453   2.742  26.169  0.00  0.00    +0.009 A 
ATOM      2  C   UNL     1       7.046   1.367  26.195  0.00  0.00    +0.027 A 
ATOM      3  C   UNL     1       6.209   1.197  27.289  0.00  0.00    +0.139 A 
ATOM      4  N   UNL     1       5.624   0.059  27.703  0.00  0.00    -0.237 NA
ATOM      5  C   UNL     1       5.943  -1.015  26.926  0.00  0.00    +0.121 A 
ATOM      6  C   UNL     1       6.764  -1.023  25.793  0.00  0.00    +0.001 A 
ATOM      7  N   UNL     1       6.081   2.410  27.906  0.00  0.00    -0.345 N 
ATOM      8  H   UNL     1       5.524   2.557  28.735  0.00  0.00    +0.167 HD
ATOM      9  C   UNL     1       7.313   0.218  25.429  0.00  0.00    +0.022 A 
ATOM     10  C   UNL     1       6.838   3.351  27.250  0.00  0.00    +0.093 A 
ENDROOT
BRANCH   6  11
ATOM     11  C   UNL     1       7.062  -2.239  25.001  0.00  0.00    -0.016 A 
ATOM     12  C   UNL     1       6.451  -2.451  23.747  0.00  0.00    +0.017 A 
ATOM     13  C   UNL     1       6.628  -3.631  23.008  0.00  0.00    -0.017 A 
ATOM     14  C   UNL     1       7.488  -4.629  23.503  0.00  0.00    -0.018 A 
ATOM     15  C   UNL     1       7.658  -5.814  22.768  0.00  0.00    +0.008 A 
ATOM     16  C   UNL     1       6.966  -6.015  21.571  0.00  0.00    +0.001 A 
ATOM     17  C   UNL     1       6.109  -5.031  21.087  0.00  0.00    +0.001 A 
ATOM     18  C   UNL     1       8.141  -4.415  24.725  0.00  0.00    +0.009 A 
ATOM     19  C   UNL     1       5.949  -3.841  21.796  0.00  0.00    +0.008 A 
ATOM     20  C   UNL     1       7.919  -3.247  25.468  0.00  0.00    +0.009 A 
ENDBRANCH   6  11
BRANCH   1  24
ATOM     21  C   UNL     1      10.352   4.690  23.682  0.00  0.00    -0.037 A 
ATOM     22  C   UNL     1      10.255   3.295  23.704  0.00  0.00    +0.005 A 
ATOM     23  C   UNL     1       9.268   2.671  24.471  0.00  0.00    +0.009 A 
ATOM     24  C   UNL     1       8.383   3.415  25.262  0.00  0.00    -0.016 A 
ATOM     25  C   UNL     1       8.464   4.813  25.209  0.00  0.00    +0.009 A 
ATOM     26  C   UNL     1       9.434   5.445  24.423  0.00  0.00    +0.005 A 
BRANCH  21  27
ATOM     27  C   UNL     1      11.480   5.361  22.932  0.00  0.00    +0.155 C 
BRANCH  27  28
ATOM     28  C   UNL     1      12.757   5.592  23.712  0.00  0.00    +0.309 C 
ATOM     29  O   UNL     1      12.777   6.241  24.751  0.00  0.00    -0.251 OA
BRANCH  28  30
ATOM     30  O   UNL     1      13.891   5.048  23.212  0.00  0.00    -0.480 OA
ATOM     31  H   UNL     1      14.184   4.227  23.648  0.00  0.00    +0.295 HD
ENDBRANCH  28  30
ENDBRANCH  27  28
ENDBRANCH  21  27
ENDBRANCH   1  24
TORSDOF 5
ENDMDL
MODEL 5
REMARK VINA RESULT:      -7.2      4.597      7.129
REMARK  Name = 
REMARK  5 active torsions:
REMARK  status: ('A' for Active; 'I' for Inactive)
REMARK    1  A    between atoms: O_1  and  C_2
REMARK    2  A    between atoms: C_2  and  C_4
REMARK    3  A    between atoms: C_4  and  C_5
REMARK    4  A    between atoms: C_8  and  C_11
REMARK    5  A    between atoms: C_17  and  C_20
REMARK                            x       y       z     vdW  Elec       q    Type
REMARK                         _______ _______ _______ _____ _____    ______ ____
ROOT
ATOM      1  C   UNL     1       8.495  -1.427  23.081  0.00  0.00    +0.009 A 
ATOM      2  C   UNL     1       8.742  -0.019  23.194  0.00  0.00    +0.027 A 
ATOM      3  C   UNL     1       9.570   0.349  22.143  0.00  0.00    +0.139 A 
ATOM      4  N   UNL     1      10.072   1.570  21.885  0.00  0.00    -0.237 NA
ATOM      5  C   UNL     1       9.697   2.503  22.806  0.00  0.00    +0.121 A 
ATOM      6  C   UNL     1       8.870   2.307  23.918  0.00  0.00    +0.001 A 
ATOM      7  N   UNL     1       9.814  -0.769  21.396  0.00  0.00    -0.345 N 
ATOM      8  H   UNL     1      10.397  -0.771  20.571  0.00  0.00    +0.167 HD
ATOM      9  C   UNL     1       8.382   1.001  24.092  0.00  0.00    +0.022 A 
ATOM     10  C   UNL     1       9.184  -1.854  21.957  0.00  0.00    +0.093 A 
ENDROOT
BRANCH   6  11
ATOM     11  C   UNL     1       8.510   3.380  24.876  0.00  0.00    -0.016 A 
ATOM     12  C   UNL     1       7.627   3.124  25.945  0.00  0.00    +0.017 A 
ATOM     13  C   UNL     1       7.183   4.131  26.817  0.00  0.00    -0.017 A 
ATOM     14  C   UNL     1       7.672   5.441  26.659  0.00  0.00    -0.018 A 
ATOM     15  C   UNL     1       7.221   6.450  27.526  0.00  0.00    +0.008 A 
ATOM     16  C   UNL     1       6.280   6.168  28.519  0.00  0.00    +0.001 A 
ATOM     17  C   UNL     1       5.791   4.874  28.669  0.00  0.00    +0.001 A 
ATOM     18  C   UNL     1       8.587   5.703  25.630  0.00  0.00    +0.009 A 
ATOM     19  C   UNL     1       6.247   3.859  27.829  0.00  0.00    +0.008 A 
ATOM     20  C   UNL     1       8.987   4.693  24.744  0.00  0.00    +0.009 A 
ENDBRANCH   6  11
BRANCH   1  24
ATOM     21  C   UNL     1       6.461  -4.190  25.652  0.00  0.00    -0.037 A 
ATOM     22  C   UNL     1       7.516  -3.411  26.136  0.00  0.00    +0.005 A 
ATOM     23  C   UNL     1       8.134  -2.470  25.308  0.00  0.00    +0.009 A 
ATOM     24  C   UNL     1       7.744  -2.310  23.972  0.00  0.00    -0.016 A 
ATOM     25  C   UNL     1       6.664  -3.070  23.503  0.00  0.00    +0.009 A 
ATOM     26  C   UNL     1       6.024  -3.996  24.335  0.00  0.00    +0.005 A 
BRANCH  21  27
ATOM     27  C   UNL     1       5.860  -5.275  26.515  0.00  0.00    +0.155 C 
BRANCH  27  28
ATOM     28  C   UNL     1       6.532  -5.519  27.849  0.00  0.00    +0.309 C 
ATOM     29  O   UNL     1       6.072  -5.085  28.899  0.00  0.00    -0.251 OA
BRANCH  28  30
ATOM     30  O   UNL     1       7.676  -6.241  27.840  0.00  0.00    -0.480 OA
ATOM     31  H   UNL     1       7.819  -6.801  28.625  0.00  0.00    +0.295 HD
ENDBRANCH  28  30
ENDBRANCH  27  28
ENDBRANCH  21  27
ENDBRANCH   1  24
TORSDOF 5
ENDMDL
MODEL 6
REMARK VINA RESULT:      -7.1      4.674      6.511
REMARK  Name = 
REMARK  5 active torsions:
REMARK  status: ('A' for Active; 'I' for Inactive)
REMARK    1  A    between atoms: O_1  and  C_2
REMARK    2  A    between atoms: C_2  and  C_4
REMARK    3  A    between atoms: C_4  and  C_5
REMARK    4  A    between atoms: C_8  and  C_11
REMARK    5  A    between atoms: C_17  and  C_20
REMARK                            x       y       z     vdW  Elec       q    Type
REMARK                         _______ _______ _______ _____ _____    ______ ____
ROOT
ATOM      1  C   UNL     1       8.055  -1.749  22.727  0.00  0.00    +0.009 A 
ATOM      2  C   UNL     1       8.133  -0.336  22.493  0.00  0.00    +0.027 A 
ATOM      3  C   UNL     1       9.420  -0.053  22.057  0.00  0.00    +0.139 A 
ATOM      4  N   UNL     1       9.933   1.152  21.751  0.00  0.00    -0.237 NA
ATOM      5  C   UNL     1       9.041   2.168  21.924  0.00  0.00    +0.121 A 
ATOM      6  C   UNL     1       7.713   2.063  22.351  0.00  0.00    +0.001 A 
ATOM      7  N   UNL     1      10.108  -1.232  22.000  0.00  0.00    -0.345 N 
ATOM      8  H   UNL     1      11.073  -1.300  21.714  0.00  0.00    +0.167 HD
ATOM      9  C   UNL     1       7.264   0.761  22.629  0.00  0.00    +0.022 A 
ATOM     10  C   UNL     1       9.302  -2.265  22.416  0.00  0.00    +0.093 A 
ENDROOT
BRANCH   6  11
ATOM     11  C   UNL     1       6.806   3.223  22.515  0.00  0.00    -0.016 A 
ATOM     12  C   UNL     1       5.413   3.038  22.641  0.00  0.00    +0.017 A 
ATOM     13  C   UNL     1       4.508   4.109  22.701  0.00  0.00    -0.017 A 
ATOM     14  C   UNL     1       5.004   5.427  22.687  0.00  0.00    -0.018 A 
ATOM     15  C   UNL     1       4.098   6.500  22.737  0.00  0.00    +0.008 A 
ATOM     16  C   UNL     1       2.721   6.268  22.776  0.00  0.00    +0.001 A 
ATOM     17  C   UNL     1       2.232   4.965  22.782  0.00  0.00    +0.001 A 
ATOM     18  C   UNL     1       6.389   5.630  22.609  0.00  0.00    +0.009 A 
ATOM     19  C   UNL     1       3.122   3.891  22.754  0.00  0.00    +0.008 A 
ATOM     20  C   UNL     1       7.273   4.546  22.509  0.00  0.00    +0.009 A 
ENDBRANCH   6  11
BRANCH   1  24
ATOM     21  C   UNL     1       4.932  -4.269  24.237  0.00  0.00    -0.037 A 
ATOM     22  C   UNL     1       5.980  -3.858  25.067  0.00  0.00    +0.005 A 
ATOM     23  C   UNL     1       6.961  -2.988  24.583  0.00  0.00    +0.009 A 
ATOM     24  C   UNL     1       6.944  -2.540  23.256  0.00  0.00    -0.016 A 
ATOM     25  C   UNL     1       5.873  -2.929  22.440  0.00  0.00    +0.009 A 
ATOM     26  C   UNL     1       4.874  -3.779  22.927  0.00  0.00    +0.005 A 
BRANCH  21  27
ATOM     27  C   UNL     1       3.928  -5.286  24.729  0.00  0.00    +0.155 C 
BRANCH  27  28
ATOM     28  C   UNL     1       4.458  -6.682  24.980  0.00  0.00    +0.309 C 
ATOM     29  O   UNL     1       4.817  -7.052  26.092  0.00  0.00    -0.251 OA
BRANCH  28  30
ATOM     30  O   UNL     1       4.522  -7.517  23.917  0.00  0.00    -0.480 OA
ATOM     31  H   UNL     1       3.752  -7.487  23.320  0.00  0.00    +0.295 HD
ENDBRANCH  28  30
ENDBRANCH  27  28
ENDBRANCH  21  27
ENDBRANCH   1  24
TORSDOF 5
ENDMDL
MODEL 7
REMARK VINA RESULT:      -7.0      5.758      9.204
REMARK  Name = 
REMARK  5 active torsions:
REMARK  status: ('A' for Active; 'I' for Inactive)
REMARK    1  A    between atoms: O_1  and  C_2
REMARK    2  A    between atoms: C_2  and  C_4
REMARK    3  A    between atoms: C_4  and  C_5
REMARK    4  A    between atoms: C_8  and  C_11
REMARK    5  A    between atoms: C_17  and  C_20
REMARK                            x       y       z     vdW  Elec       q    Type
REMARK                         _______ _______ _______ _____ _____    ______ ____
ROOT
ATOM      1  C   UNL     1       7.625   4.211  23.267  0.00  0.00    +0.009 A 
ATOM      2  C   UNL     1       8.390   3.007  23.417  0.00  0.00    +0.027 A 
ATOM      3  C   UNL     1       9.719   3.371  23.584  0.00  0.00    +0.139 A 
ATOM      4  N   UNL     1      10.778   2.555  23.731  0.00  0.00    -0.237 NA
ATOM      5  C   UNL     1      10.441   1.235  23.687  0.00  0.00    +0.121 A 
ATOM      6  C   UNL     1       9.159   0.695  23.529  0.00  0.00    +0.001 A 
ATOM      7  N   UNL     1       9.782   4.735  23.561  0.00  0.00    -0.345 N 
ATOM      8  H   UNL     1      10.642   5.255  23.658  0.00  0.00    +0.167 HD
ATOM      9  C   UNL     1       8.117   1.628  23.402  0.00  0.00    +0.022 A 
ATOM     10  C   UNL     1       8.528   5.259  23.355  0.00  0.00    +0.093 A 
ENDROOT
BRANCH   6  11
ATOM     11  C   UNL     1       8.877  -0.760  23.491  0.00  0.00    -0.016 A 
ATOM     12  C   UNL     1       7.729  -1.254  22.838  0.00  0.00    +0.017 A 
ATOM     13  C   UNL     1       7.371  -2.612  22.859  0.00  0.00    -0.017 A 
ATOM     14  C   UNL     1       8.212  -3.533  23.512  0.00  0.00    -0.018 A 
ATOM     15  C   UNL     1       7.849  -4.889  23.542  0.00  0.00    +0.008 A 
ATOM     16  C   UNL     1       6.659  -5.322  22.953  0.00  0.00    +0.001 A 
ATOM     17  C   UNL     1       5.825  -4.409  22.315  0.00  0.00    +0.001 A 
ATOM     18  C   UNL     1       9.382  -3.065  24.127  0.00  0.00    +0.009 A 
ATOM     19  C   UNL     1       6.184  -3.063  22.260  0.00  0.00    +0.008 A 
ATOM     20  C   UNL     1       9.701  -1.699  24.130  0.00  0.00    +0.009 A 
ENDBRANCH   6  11
BRANCH   1  24
ATOM     21  C   UNL     1       3.490   4.687  22.240  0.00  0.00    -0.037 A 
ATOM     22  C   UNL     1       4.072   3.416  22.283  0.00  0.00    +0.005 A 
ATOM     23  C   UNL     1       5.404   3.265  22.676  0.00  0.00    +0.009 A 
ATOM     24  C   UNL     1       6.197   4.374  22.998  0.00  0.00    -0.016 A 
ATOM     25  C   UNL     1       5.598   5.641  22.986  0.00  0.00    +0.009 A 
ATOM     26  C   UNL     1       4.257   5.796  22.617  0.00  0.00    +0.005 A 
BRANCH  21  27
ATOM     27  C   UNL     1       2.082   4.861  21.720  0.00  0.00    +0.155 C 
BRANCH  27  28
ATOM     28  C   UNL     1       1.835   4.411  20.295  0.00  0.00    +0.309 C 
ATOM     29  O   UNL     1       1.227   3.379  20.035  0.00  0.00    -0.251 OA
BRANCH  28  30
ATOM     30  O   UNL     1       2.317   5.200  19.308  0.00  0.00    -0.480 OA
ATOM     31  H   UNL     1       3.287   5.305  19.298  0.00  0.00    +0.295 HD
ENDBRANCH  28  30
ENDBRANCH  27  28
ENDBRANCH  21  27
ENDBRANCH   1  24
TORSDOF 5
ENDMDL
MODEL 8
REMARK VINA RESULT:      -7.0      4.355      8.622
REMARK  Name = 
REMARK  5 active torsions:
REMARK  status: ('A' for Active; 'I' for Inactive)
REMARK    1  A    between atoms: O_1  and  C_2
REMARK    2  A    between atoms: C_2  and  C_4
REMARK    3  A    between atoms: C_4  and  C_5
REMARK    4  A    between atoms: C_8  and  C_11
REMARK    5  A    between atoms: C_17  and  C_20
REMARK                            x       y       z     vdW  Elec       q    Type
REMARK                         _______ _______ _______ _____ _____    ______ ____
ROOT
ATOM      1  C   UNL     1       8.411  -0.170  23.583  0.00  0.00    +0.009 A 
ATOM      2  C   UNL     1       8.325  -1.566  23.899  0.00  0.00    +0.027 A 
ATOM      3  C   UNL     1       9.615  -2.079  23.893  0.00  0.00    +0.139 A 
ATOM      4  N   UNL     1       9.990  -3.352  24.110  0.00  0.00    -0.237 NA
ATOM      5  C   UNL     1       8.935  -4.184  24.341  0.00  0.00    +0.121 A 
ATOM      6  C   UNL     1       7.579  -3.838  24.385  0.00  0.00    +0.001 A 
ATOM      7  N   UNL     1      10.469  -1.051  23.609  0.00  0.00    -0.345 N 
ATOM      8  H   UNL     1      11.470  -1.161  23.541  0.00  0.00    +0.167 HD
ATOM      9  C   UNL     1       7.291  -2.481  24.164  0.00  0.00    +0.022 A 
ATOM     10  C   UNL     1       9.757   0.107  23.404  0.00  0.00    +0.093 A 
ENDROOT
BRANCH   6  11
ATOM     11  C   UNL     1       6.490  -4.808  24.642  0.00  0.00    -0.016 A 
ATOM     12  C   UNL     1       5.473  -5.021  23.687  0.00  0.00    +0.017 A 
ATOM     13  C   UNL     1       4.371  -5.856  23.928  0.00  0.00    -0.017 A 
ATOM     14  C   UNL     1       4.292  -6.555  25.147  0.00  0.00    -0.018 A 
ATOM     15  C   UNL     1       3.184  -7.383  25.392  0.00  0.00    +0.008 A 
ATOM     16  C   UNL     1       2.159  -7.498  24.450  0.00  0.00    +0.001 A 
ATOM     17  C   UNL     1       2.234  -6.800  23.249  0.00  0.00    +0.001 A 
ATOM     18  C   UNL     1       5.318  -6.392  26.089  0.00  0.00    +0.009 A 
ATOM     19  C   UNL     1       3.339  -5.991  22.985  0.00  0.00    +0.008 A 
ATOM     20  C   UNL     1       6.390  -5.521  25.847  0.00  0.00    +0.009 A 
ENDBRANCH   6  11
BRANCH   1  24
ATOM     21  C   UNL     1       5.412   2.861  23.131  0.00  0.00    -0.037 A 
ATOM     22  C   UNL     1       6.388   2.672  22.147  0.00  0.00    +0.005 A 
ATOM     23  C   UNL     1       7.325   1.643  22.274  0.00  0.00    +0.009 A 
ATOM     24  C   UNL     1       7.337   0.806  23.398  0.00  0.00    -0.016 A 
ATOM     25  C   UNL     1       6.336   0.979  24.363  0.00  0.00    +0.009 A 
ATOM     26  C   UNL     1       5.379   1.992  24.228  0.00  0.00    +0.005 A 
BRANCH  21  27
ATOM     27  C   UNL     1       4.463   4.034  23.043  0.00  0.00    +0.155 C 
BRANCH  27  28
ATOM     28  C   UNL     1       3.196   3.811  22.246  0.00  0.00    +0.309 C 
ATOM     29  O   UNL     1       2.727   4.674  21.512  0.00  0.00    -0.251 OA
BRANCH  28  30
ATOM     30  O   UNL     1       2.589   2.608  22.376  0.00  0.00    -0.480 OA
ATOM     31  H   UNL     1       1.715   2.629  22.809  0.00  0.00    +0.295 HD
ENDBRANCH  28  30
ENDBRANCH  27  28
ENDBRANCH  21  27
ENDBRANCH   1  24
TORSDOF 5
ENDMDL
MODEL 9
REMARK VINA RESULT:      -6.7      6.693     10.909
REMARK  Name = 
REMARK  5 active torsions:
REMARK  status: ('A' for Active; 'I' for Inactive)
REMARK    1  A    between atoms: O_1  and  C_2
REMARK    2  A    between atoms: C_2  and  C_4
REMARK    3  A    between atoms: C_4  and  C_5
REMARK    4  A    between atoms: C_8  and  C_11
REMARK    5  A    between atoms: C_17  and  C_20
REMARK                            x       y       z     vdW  Elec       q    Type
REMARK                         _______ _______ _______ _____ _____    ______ ____
ROOT
ATOM      1  C   UNL     1       7.207   4.185  24.752  0.00  0.00    +0.009 A 
ATOM      2  C   UNL     1       6.716   2.838  24.783  0.00  0.00    +0.027 A 
ATOM      3  C   UNL     1       5.352   2.892  25.038  0.00  0.00    +0.139 A 
ATOM      4  N   UNL     1       4.504   1.858  25.178  0.00  0.00    -0.237 NA
ATOM      5  C   UNL     1       5.120   0.648  25.060  0.00  0.00    +0.121 A 
ATOM      6  C   UNL     1       6.475   0.410  24.803  0.00  0.00    +0.001 A 
ATOM      7  N   UNL     1       5.002   4.209  25.140  0.00  0.00    -0.345 N 
ATOM      8  H   UNL     1       4.061   4.522  25.328  0.00  0.00    +0.167 HD
ATOM      9  C   UNL     1       7.276   1.555  24.654  0.00  0.00    +0.022 A 
ATOM     10  C   UNL     1       6.113   5.003  24.985  0.00  0.00    +0.093 A 
ENDROOT
BRANCH   6  11
ATOM     11  C   UNL     1       7.067  -0.944  24.690  0.00  0.00    -0.016 A 
ATOM     12  C   UNL     1       6.895  -1.894  25.719  0.00  0.00    +0.017 A 
ATOM     13  C   UNL     1       7.517  -3.152  25.699  0.00  0.00    -0.017 A 
ATOM     14  C   UNL     1       8.304  -3.512  24.589  0.00  0.00    -0.018 A 
ATOM     15  C   UNL     1       8.934  -4.767  24.574  0.00  0.00    +0.008 A 
ATOM     16  C   UNL     1       8.803  -5.643  25.654  0.00  0.00    +0.001 A 
ATOM     17  C   UNL     1       8.032  -5.283  26.754  0.00  0.00    +0.001 A 
ATOM     18  C   UNL     1       8.447  -2.597  23.536  0.00  0.00    +0.009 A 
ATOM     19  C   UNL     1       7.384  -4.048  26.772  0.00  0.00    +0.008 A 
ATOM     20  C   UNL     1       7.851  -1.329  23.593  0.00  0.00    +0.009 A 
ENDBRANCH   6  11
BRANCH   1  24
ATOM     21  C   UNL     1      11.150   5.727  24.078  0.00  0.00    -0.037 A 
ATOM     22  C   UNL     1      10.209   6.467  24.801  0.00  0.00    +0.005 A 
ATOM     23  C   UNL     1       8.946   5.932  25.067  0.00  0.00    +0.009 A 
ATOM     24  C   UNL     1       8.577   4.668  24.589  0.00  0.00    -0.016 A 
ATOM     25  C   UNL     1       9.536   3.918  23.894  0.00  0.00    +0.009 A 
ATOM     26  C   UNL     1      10.811   4.439  23.646  0.00  0.00    +0.005 A 
BRANCH  21  27
ATOM     27  C   UNL     1      12.478   6.344  23.704  0.00  0.00    +0.155 C 
BRANCH  27  28
ATOM     28  C   UNL     1      13.330   5.560  22.730  0.00  0.00    +0.309 C 
ATOM     29  O   UNL     1      13.127   5.584  21.521  0.00  0.00    -0.251 OA
BRANCH  28  30
ATOM     30  O   UNL     1      14.336   4.819  23.249  0.00  0.00    -0.480 OA
ATOM     31  H   UNL     1      15.198   4.922  22.804  0.00  0.00    +0.295 HD
ENDBRANCH  28  30
ENDBRANCH  27  28
ENDBRANCH  21  27
ENDBRANCH   1  24
TORSDOF 5
ENDMDL
