MODEL 1
REMARK VINA RESULT:      -6.5      0.000      0.000
REMARK  Name = 
REMARK  11 active torsions:
REMARK  status: ('A' for Active; 'I' for Inactive)
REMARK    1  A    between atoms: C_1  and  C_2
REMARK    2  A    between atoms: C_5  and  O_7
REMARK    3  A    between atoms: C_8  and  O_10
REMARK    4  A    between atoms: C_11  and  O_13
REMARK    5  A    between atoms: C_14  and  N_16
REMARK    6  A    between atoms: N_16  and  C_17
REMARK    7  A    between atoms: C_20  and  C_21
REMARK    8  A    between atoms: C_21  and  O_22
REMARK    9  A    between atoms: C_23  and  O_25
REMARK   10  A    between atoms: C_26  and  O_28
REMARK   11  A    between atoms: C_29  and  O_31
REMARK                            x       y       z     vdW  Elec       q    Type
REMARK                         _______ _______ _______ _____ _____    ______ ____
ROOT
ATOM      1  N   UNL     1       7.248  -1.609  23.842  0.00  0.00    -0.300 NA
ATOM      2  H   UNL     1       6.415  -1.254  24.327  0.00  0.00    +0.123 HD
ENDROOT
BRANCH   1   5
ATOM      3  C   UNL     1       6.968  -4.099  22.091  0.00  0.00    +0.039 C 
ATOM      4  C   UNL     1       7.910  -3.994  23.288  0.00  0.00    +0.138 C 
ATOM      5  C   UNL     1       7.391  -2.999  24.356  0.00  0.00    +0.114 C 
ATOM      6  C   UNL     1       8.082  -3.132  25.737  0.00  0.00    +0.167 C 
ATOM      7  C   UNL     1       8.437  -4.579  26.104  0.00  0.00    +0.200 C 
ATOM      8  C   UNL     1       9.069  -5.270  24.885  0.00  0.00    +0.279 C 
ATOM      9  O   UNL     1       8.121  -5.306  23.826  0.00  0.00    -0.344 OA
BRANCH   6  10
ATOM     10  O   UNL     1       7.231  -2.577  26.763  0.00  0.00    -0.387 OA
ATOM     11  H   UNL     1       6.532  -2.080  26.290  0.00  0.00    +0.210 HD
ENDBRANCH   6  10
BRANCH   7  12
ATOM     12  O   UNL     1       9.303  -4.528  27.256  0.00  0.00    -0.384 OA
ATOM     13  H   UNL     1      10.181  -4.851  26.983  0.00  0.00    +0.210 HD
ENDBRANCH   7  12
BRANCH   8  14
ATOM     14  O   UNL     1       9.439  -6.601  25.206  0.00  0.00    -0.365 OA
ATOM     15  H   UNL     1      10.408  -6.621  25.126  0.00  0.00    +0.213 HD
ENDBRANCH   8  14
ENDBRANCH   1   5
BRANCH   1  16
ATOM     16  C   UNL     1       8.312  -0.611  24.107  0.00  0.00    +0.109 C 
ATOM     17  C   UNL     1       9.749  -0.661  23.485  0.00  0.00    +0.166 C 
ATOM     18  C   UNL     1       9.900  -0.182  22.027  0.00  0.00    +0.177 C 
ATOM     19  C   UNL     1       9.004   1.009  21.630  0.00  0.00    +0.173 C 
ATOM     20  C   UNL     1       7.951   1.430  22.618  0.00  0.00    -0.016 C 
ATOM     21  C   UNL     1       7.670   0.712  23.725  0.00  0.00    -0.002 C 
BRANCH  17  22
ATOM     22  O   UNL     1      10.437  -1.907  23.654  0.00  0.00    -0.387 OA
ATOM     23  H   UNL     1      11.032  -1.961  22.870  0.00  0.00    +0.210 HD
ENDBRANCH  17  22
BRANCH  18  24
ATOM     24  O   UNL     1       9.740  -1.294  21.128  0.00  0.00    -0.386 OA
ATOM     25  H   UNL     1       9.611  -2.086  21.686  0.00  0.00    +0.210 HD
ENDBRANCH  18  24
BRANCH  19  26
ATOM     26  O   UNL     1       9.850   2.133  21.361  0.00  0.00    -0.385 OA
ATOM     27  H   UNL     1      10.537   1.846  20.733  0.00  0.00    +0.210 HD
ENDBRANCH  19  26
BRANCH  20  28
ATOM     28  C   UNL     1       7.185   2.670  22.210  0.00  0.00    +0.189 C 
BRANCH  28  29
ATOM     29  O   UNL     1       7.980   3.842  22.297  0.00  0.00    -0.391 OA
ATOM     30  H   UNL     1       8.615   3.688  23.018  0.00  0.00    +0.210 HD
ENDBRANCH  28  29
ENDBRANCH  20  28
ENDBRANCH   1  16
TORSDOF 10
ENDMDL
MODEL 2
REMARK VINA RESULT:      -6.5      2.314      3.114
REMARK  Name = 
REMARK  11 active torsions:
REMARK  status: ('A' for Active; 'I' for Inactive)
REMARK    1  A    between atoms: C_1  and  C_2
REMARK    2  A    between atoms: C_5  and  O_7
REMARK    3  A    between atoms: C_8  and  O_10
REMARK    4  A    between atoms: C_11  and  O_13
REMARK    5  A    between atoms: C_14  and  N_16
REMARK    6  A    between atoms: N_16  and  C_17
REMARK    7  A    between atoms: C_20  and  C_21
REMARK    8  A    between atoms: C_21  and  O_22
REMARK    9  A    between atoms: C_23  and  O_25
REMARK   10  A    between atoms: C_26  and  O_28
REMARK   11  A    between atoms: C_29  and  O_31
REMARK                            x       y       z     vdW  Elec       q    Type
REMARK                         _______ _______ _______ _____ _____    ______ ____
ROOT
ATOM      1  N   UNL     1       6.290  -1.306  22.970  0.00  0.00    -0.300 NA
ATOM      2  H   UNL     1       5.412  -0.904  23.321  0.00  0.00    +0.123 HD
ENDROOT
BRANCH   1   5
ATOM      3  C   UNL     1       4.790  -2.379  25.408  0.00  0.00    +0.039 C 
ATOM      4  C   UNL     1       4.870  -3.100  24.064  0.00  0.00    +0.138 C 
ATOM      5  C   UNL     1       6.167  -2.755  23.290  0.00  0.00    +0.114 C 
ATOM      6  C   UNL     1       6.488  -3.726  22.126  0.00  0.00    +0.167 C 
ATOM      7  C   UNL     1       6.102  -5.182  22.421  0.00  0.00    +0.200 C 
ATOM      8  C   UNL     1       4.701  -5.215  23.053  0.00  0.00    +0.279 C 
ATOM      9  O   UNL     1       4.729  -4.510  24.287  0.00  0.00    -0.344 OA
BRANCH   6  10
ATOM     10  O   UNL     1       7.897  -3.663  21.815  0.00  0.00    -0.387 OA
ATOM     11  H   UNL     1       8.292  -3.065  22.483  0.00  0.00    +0.210 HD
ENDBRANCH   6  10
BRANCH   7  12
ATOM     12  O   UNL     1       6.195  -5.909  21.179  0.00  0.00    -0.384 OA
ATOM     13  H   UNL     1       6.137  -5.265  20.451  0.00  0.00    +0.210 HD
ENDBRANCH   7  12
BRANCH   8  14
ATOM     14  O   UNL     1       4.303  -6.552  23.305  0.00  0.00    -0.365 OA
ATOM     15  H   UNL     1       3.429  -6.640  22.888  0.00  0.00    +0.213 HD
ENDBRANCH   8  14
ENDBRANCH   1   5
BRANCH   1  16
ATOM     16  C   UNL     1       7.367  -0.502  23.594  0.00  0.00    +0.109 C 
ATOM     17  C   UNL     1       8.898  -0.734  23.355  0.00  0.00    +0.166 C 
ATOM     18  C   UNL     1       9.493  -0.196  22.039  0.00  0.00    +0.177 C 
ATOM     19  C   UNL     1       8.900   1.140  21.546  0.00  0.00    +0.173 C 
ATOM     20  C   UNL     1       7.689   1.657  22.271  0.00  0.00    -0.016 C 
ATOM     21  C   UNL     1       7.031   0.925  23.194  0.00  0.00    -0.002 C 
BRANCH  17  22
ATOM     22  O   UNL     1       9.346  -2.079  23.570  0.00  0.00    -0.387 OA
ATOM     23  H   UNL     1       9.390  -2.163  24.551  0.00  0.00    +0.210 HD
ENDBRANCH  17  22
BRANCH  18  24
ATOM     24  O   UNL     1       9.432  -1.215  21.023  0.00  0.00    -0.386 OA
ATOM     25  H   UNL     1      10.010  -1.943  21.326  0.00  0.00    +0.210 HD
ENDBRANCH  18  24
BRANCH  19  26
ATOM     26  O   UNL     1       9.929   2.135  21.613  0.00  0.00    -0.385 OA
ATOM     27  H   UNL     1       9.540   2.941  21.995  0.00  0.00    +0.210 HD
ENDBRANCH  19  26
BRANCH  20  28
ATOM     28  C   UNL     1       7.230   3.022  21.806  0.00  0.00    +0.189 C 
BRANCH  28  29
ATOM     29  O   UNL     1       8.057   4.062  22.303  0.00  0.00    -0.391 OA
ATOM     30  H   UNL     1       7.460   4.711  22.715  0.00  0.00    +0.210 HD
ENDBRANCH  28  29
ENDBRANCH  20  28
ENDBRANCH   1  16
TORSDOF 10
ENDMDL
MODEL 3
REMARK VINA RESULT:      -6.4      1.866      6.481
REMARK  Name = 
REMARK  11 active torsions:
REMARK  status: ('A' for Active; 'I' for Inactive)
REMARK    1  A    between atoms: C_1  and  C_2
REMARK    2  A    between atoms: C_5  and  O_7
REMARK    3  A    between atoms: C_8  and  O_10
REMARK    4  A    between atoms: C_11  and  O_13
REMARK    5  A    between atoms: C_14  and  N_16
REMARK    6  A    between atoms: N_16  and  C_17
REMARK    7  A    between atoms: C_20  and  C_21
REMARK    8  A    between atoms: C_21  and  O_22
REMARK    9  A    between atoms: C_23  and  O_25
REMARK   10  A    between atoms: C_26  and  O_28
REMARK   11  A    between atoms: C_29  and  O_31
REMARK                            x       y       z     vdW  Elec       q    Type
REMARK                         _______ _______ _______ _____ _____    ______ ____
ROOT
ATOM      1  N   UNL     1       7.080  -2.132  22.742  0.00  0.00    -0.300 NA
ATOM      2  H   UNL     1       7.788  -2.869  22.624  0.00  0.00    +0.123 HD
ENDROOT
BRANCH   1   5
ATOM      3  C   UNL     1      10.115  -2.128  23.111  0.00  0.00    +0.039 C 
ATOM      4  C   UNL     1       9.338  -1.032  22.387  0.00  0.00    +0.138 C 
ATOM      5  C   UNL     1       7.888  -0.894  22.917  0.00  0.00    +0.114 C 
ATOM      6  C   UNL     1       7.186   0.425  22.505  0.00  0.00    +0.167 C 
ATOM      7  C   UNL     1       8.133   1.632  22.457  0.00  0.00    +0.200 C 
ATOM      8  C   UNL     1       9.433   1.226  21.743  0.00  0.00    +0.279 C 
ATOM      9  O   UNL     1      10.072   0.196  22.486  0.00  0.00    -0.344 OA
BRANCH   6  10
ATOM     10  O   UNL     1       6.105   0.707  23.422  0.00  0.00    -0.387 OA
ATOM     11  H   UNL     1       6.508   0.718  24.314  0.00  0.00    +0.210 HD
ENDBRANCH   6  10
BRANCH   7  12
ATOM     12  O   UNL     1       7.424   2.706  21.807  0.00  0.00    -0.384 OA
ATOM     13  H   UNL     1       8.017   3.093  21.139  0.00  0.00    +0.210 HD
ENDBRANCH   7  12
BRANCH   8  14
ATOM     14  O   UNL     1      10.314   2.333  21.653  0.00  0.00    -0.365 OA
ATOM     15  H   UNL     1      11.205   1.957  21.759  0.00  0.00    +0.213 HD
ENDBRANCH   8  14
ENDBRANCH   1   5
BRANCH   1  16
ATOM     16  C   UNL     1       6.204  -2.602  23.841  0.00  0.00    +0.109 C 
ATOM     17  C   UNL     1       5.333  -3.903  23.785  0.00  0.00    +0.166 C 
ATOM     18  C   UNL     1       6.056  -5.244  24.019  0.00  0.00    +0.177 C 
ATOM     19  C   UNL     1       7.193  -5.203  25.061  0.00  0.00    +0.173 C 
ATOM     20  C   UNL     1       7.605  -3.850  25.570  0.00  0.00    -0.016 C 
ATOM     21  C   UNL     1       7.140  -2.703  25.033  0.00  0.00    -0.002 C 
BRANCH  17  22
ATOM     22  O   UNL     1       4.482  -4.011  22.636  0.00  0.00    -0.387 OA
ATOM     23  H   UNL     1       3.711  -3.439  22.853  0.00  0.00    +0.210 HD
ENDBRANCH  17  22
BRANCH  18  24
ATOM     24  O   UNL     1       6.502  -5.785  22.762  0.00  0.00    -0.386 OA
ATOM     25  H   UNL     1       6.030  -6.631  22.641  0.00  0.00    +0.210 HD
ENDBRANCH  18  24
BRANCH  19  26
ATOM     26  O   UNL     1       6.801  -6.010  26.179  0.00  0.00    -0.385 OA
ATOM     27  H   UNL     1       6.957  -6.942  25.943  0.00  0.00    +0.210 HD
ENDBRANCH  19  26
BRANCH  20  28
ATOM     28  C   UNL     1       8.646  -3.896  26.667  0.00  0.00    +0.189 C 
BRANCH  28  29
ATOM     29  O   UNL     1       9.529  -4.997  26.520  0.00  0.00    -0.391 OA
ATOM     30  H   UNL     1       9.315  -5.617  27.239  0.00  0.00    +0.210 HD
ENDBRANCH  28  29
ENDBRANCH  20  28
ENDBRANCH   1  16
TORSDOF 10
ENDMDL
MODEL 4
REMARK VINA RESULT:      -6.4      1.914      6.252
REMARK  Name = 
REMARK  11 active torsions:
REMARK  status: ('A' for Active; 'I' for Inactive)
REMARK    1  A    between atoms: C_1  and  C_2
REMARK    2  A    between atoms: C_5  and  O_7
REMARK    3  A    between atoms: C_8  and  O_10
REMARK    4  A    between atoms: C_11  and  O_13
REMARK    5  A    between atoms: C_14  and  N_16
REMARK    6  A    between atoms: N_16  and  C_17
REMARK    7  A    between atoms: C_20  and  C_21
REMARK    8  A    between atoms: C_21  and  O_22
REMARK    9  A    between atoms: C_23  and  O_25
REMARK   10  A    between atoms: C_26  and  O_28
REMARK   11  A    between atoms: C_29  and  O_31
REMARK                            x       y       z     vdW  Elec       q    Type
REMARK                         _______ _______ _______ _____ _____    ______ ____
ROOT
ATOM      1  N   UNL     1       9.769  -2.444  24.222  0.00  0.00    -0.300 NA
ATOM      2  H   UNL     1       9.990  -2.521  25.222  0.00  0.00    +0.123 HD
ENDROOT
BRANCH   1   5
ATOM      3  C   UNL     1       8.824  -0.715  26.558  0.00  0.00    +0.039 C 
ATOM      4  C   UNL     1       9.557  -0.174  25.332  0.00  0.00    +0.138 C 
ATOM      5  C   UNL     1       9.304  -1.038  24.071  0.00  0.00    +0.114 C 
ATOM      6  C   UNL     1       9.692  -0.345  22.740  0.00  0.00    +0.167 C 
ATOM      7  C   UNL     1       9.421   1.166  22.736  0.00  0.00    +0.200 C 
ATOM      8  C   UNL     1       9.912   1.771  24.062  0.00  0.00    +0.279 C 
ATOM      9  O   UNL     1       9.180   1.196  25.137  0.00  0.00    -0.344 OA
BRANCH   6  10
ATOM     10  O   UNL     1       8.976  -0.958  21.646  0.00  0.00    -0.387 OA
ATOM     11  H   UNL     1       9.659  -1.356  21.069  0.00  0.00    +0.210 HD
ENDBRANCH   6  10
BRANCH   7  12
ATOM     12  O   UNL     1      10.071   1.714  21.572  0.00  0.00    -0.384 OA
ATOM     13  H   UNL     1      10.110   2.681  21.680  0.00  0.00    +0.210 HD
ENDBRANCH   7  12
BRANCH   8  14
ATOM     14  O   UNL     1       9.705   3.174  24.073  0.00  0.00    -0.365 OA
ATOM     15  H   UNL     1       9.748   3.429  25.010  0.00  0.00    +0.213 HD
ENDBRANCH   8  14
ENDBRANCH   1   5
BRANCH   1  16
ATOM     16  C   UNL     1       8.839  -3.563  23.938  0.00  0.00    +0.109 C 
ATOM     17  C   UNL     1       8.838  -4.930  24.703  0.00  0.00    +0.166 C 
ATOM     18  C   UNL     1       8.174  -4.956  26.094  0.00  0.00    +0.177 C 
ATOM     19  C   UNL     1       6.922  -4.068  26.241  0.00  0.00    +0.173 C 
ATOM     20  C   UNL     1       6.612  -3.131  25.106  0.00  0.00    -0.016 C 
ATOM     21  C   UNL     1       7.464  -2.934  24.078  0.00  0.00    -0.002 C 
BRANCH  17  22
ATOM     22  O   UNL     1      10.110  -5.587  24.766  0.00  0.00    -0.387 OA
ATOM     23  H   UNL     1      10.729  -4.953  24.337  0.00  0.00    +0.210 HD
ENDBRANCH  17  22
BRANCH  18  24
ATOM     24  O   UNL     1       9.154  -4.671  27.109  0.00  0.00    -0.386 OA
ATOM     25  H   UNL     1       9.672  -5.491  27.232  0.00  0.00    +0.210 HD
ENDBRANCH  18  24
BRANCH  19  26
ATOM     26  O   UNL     1       5.790  -4.923  26.447  0.00  0.00    -0.385 OA
ATOM     27  H   UNL     1       5.631  -4.982  27.405  0.00  0.00    +0.210 HD
ENDBRANCH  19  26
BRANCH  20  28
ATOM     28  C   UNL     1       5.312  -2.373  25.271  0.00  0.00    +0.189 C 
BRANCH  28  29
ATOM     29  O   UNL     1       4.197  -3.118  24.809  0.00  0.00    -0.391 OA
ATOM     30  H   UNL     1       4.024  -2.815  23.901  0.00  0.00    +0.210 HD
ENDBRANCH  28  29
ENDBRANCH  20  28
ENDBRANCH   1  16
TORSDOF 10
ENDMDL
MODEL 5
REMARK VINA RESULT:      -6.3      1.369      2.263
REMARK  Name = 
REMARK  11 active torsions:
REMARK  status: ('A' for Active; 'I' for Inactive)
REMARK    1  A    between atoms: C_1  and  C_2
REMARK    2  A    between atoms: C_5  and  O_7
REMARK    3  A    between atoms: C_8  and  O_10
REMARK    4  A    between atoms: C_11  and  O_13
REMARK    5  A    between atoms: C_14  and  N_16
REMARK    6  A    between atoms: N_16  and  C_17
REMARK    7  A    between atoms: C_20  and  C_21
REMARK    8  A    between atoms: C_21  and  O_22
REMARK    9  A    between atoms: C_23  and  O_25
REMARK   10  A    between atoms: C_26  and  O_28
REMARK   11  A    between atoms: C_29  and  O_31
REMARK                            x       y       z     vdW  Elec       q    Type
REMARK                         _______ _______ _______ _____ _____    ______ ____
ROOT
ATOM      1  N   UNL     1       7.842  -1.314  24.149  0.00  0.00    -0.300 NA
ATOM      2  H   UNL     1       6.847  -1.165  24.357  0.00  0.00    +0.123 HD
ENDROOT
BRANCH   1   5
ATOM      3  C   UNL     1       6.672  -1.596  26.959  0.00  0.00    +0.039 C 
ATOM      4  C   UNL     1       7.118  -2.773  26.093  0.00  0.00    +0.138 C 
ATOM      5  C   UNL     1       8.247  -2.379  25.107  0.00  0.00    +0.114 C 
ATOM      6  C   UNL     1       8.995  -3.586  24.487  0.00  0.00    +0.167 C 
ATOM      7  C   UNL     1       9.161  -4.765  25.456  0.00  0.00    +0.200 C 
ATOM      8  C   UNL     1       7.830  -5.010  26.186  0.00  0.00    +0.279 C 
ATOM      9  O   UNL     1       7.499  -3.857  26.950  0.00  0.00    -0.344 OA
BRANCH   6  10
ATOM     10  O   UNL     1      10.298  -3.165  24.026  0.00  0.00    -0.387 OA
ATOM     11  H   UNL     1      10.353  -3.446  23.089  0.00  0.00    +0.210 HD
ENDBRANCH   6  10
BRANCH   7  12
ATOM     12  O   UNL     1       9.614  -5.894  24.682  0.00  0.00    -0.384 OA
ATOM     13  H   UNL     1      10.587  -5.872  24.665  0.00  0.00    +0.210 HD
ENDBRANCH   7  12
BRANCH   8  14
ATOM     14  O   UNL     1       7.944  -6.117  27.064  0.00  0.00    -0.365 OA
ATOM     15  H   UNL     1       7.678  -6.889  26.535  0.00  0.00    +0.213 HD
ENDBRANCH   8  14
ENDBRANCH   1   5
BRANCH   1  16
ATOM     16  C   UNL     1       8.465   0.028  24.233  0.00  0.00    +0.109 C 
ATOM     17  C   UNL     1       9.659   0.508  23.340  0.00  0.00    +0.166 C 
ATOM     18  C   UNL     1       9.329   0.940  21.897  0.00  0.00    +0.177 C 
ATOM     19  C   UNL     1       7.982   1.671  21.722  0.00  0.00    +0.173 C 
ATOM     20  C   UNL     1       7.061   1.699  22.910  0.00  0.00    -0.016 C 
ATOM     21  C   UNL     1       7.300   0.981  24.027  0.00  0.00    -0.002 C 
BRANCH  17  22
ATOM     22  O   UNL     1      10.796  -0.366  23.330  0.00  0.00    -0.387 OA
ATOM     23  H   UNL     1      10.424  -1.245  23.574  0.00  0.00    +0.210 HD
ENDBRANCH  17  22
BRANCH  18  24
ATOM     24  O   UNL     1       9.443  -0.189  21.011  0.00  0.00    -0.386 OA
ATOM     25  H   UNL     1       9.398   0.166  20.102  0.00  0.00    +0.210 HD
ENDBRANCH  18  24
BRANCH  19  26
ATOM     26  O   UNL     1       8.257   3.022  21.328  0.00  0.00    -0.385 OA
ATOM     27  H   UNL     1       7.857   3.613  21.990  0.00  0.00    +0.210 HD
ENDBRANCH  19  26
BRANCH  20  28
ATOM     28  C   UNL     1       5.811   2.526  22.700  0.00  0.00    +0.189 C 
BRANCH  28  29
ATOM     29  O   UNL     1       6.062   3.917  22.828  0.00  0.00    -0.391 OA
ATOM     30  H   UNL     1       5.874   4.309  21.958  0.00  0.00    +0.210 HD
ENDBRANCH  28  29
ENDBRANCH  20  28
ENDBRANCH   1  16
TORSDOF 10
ENDMDL
MODEL 6
REMARK VINA RESULT:      -6.3      1.816      6.702
REMARK  Name = 
REMARK  11 active torsions:
REMARK  status: ('A' for Active; 'I' for Inactive)
REMARK    1  A    between atoms: C_1  and  C_2
REMARK    2  A    between atoms: C_5  and  O_7
REMARK    3  A    between atoms: C_8  and  O_10
REMARK    4  A    between atoms: C_11  and  O_13
REMARK    5  A    between atoms: C_14  and  N_16
REMARK    6  A    between atoms: N_16  and  C_17
REMARK    7  A    between atoms: C_20  and  C_21
REMARK    8  A    between atoms: C_21  and  O_22
REMARK    9  A    between atoms: C_23  and  O_25
REMARK   10  A    between atoms: C_26  and  O_28
REMARK   11  A    between atoms: C_29  and  O_31
REMARK                            x       y       z     vdW  Elec       q    Type
REMARK                         _______ _______ _______ _____ _____    ______ ____
ROOT
ATOM      1  N   UNL     1       8.532  -0.468  25.143  0.00  0.00    -0.300 NA
ATOM      2  H   UNL     1       8.655  -0.147  26.111  0.00  0.00    +0.123 HD
ENDROOT
BRANCH   1   5
ATOM      3  C   UNL     1       7.137   2.017  26.249  0.00  0.00    +0.039 C 
ATOM      4  C   UNL     1       8.311   2.055  25.273  0.00  0.00    +0.138 C 
ATOM      5  C   UNL     1       8.365   0.795  24.372  0.00  0.00    +0.114 C 
ATOM      6  C   UNL     1       9.277   0.943  23.128  0.00  0.00    +0.167 C 
ATOM      7  C   UNL     1       9.257   2.354  22.522  0.00  0.00    +0.200 C 
ATOM      8  C   UNL     1       9.363   3.391  23.652  0.00  0.00    +0.279 C 
ATOM      9  O   UNL     1       8.236   3.266  24.508  0.00  0.00    -0.344 OA
BRANCH   6  10
ATOM     10  O   UNL     1       8.882  -0.012  22.119  0.00  0.00    -0.387 OA
ATOM     11  H   UNL     1       8.385  -0.710  22.593  0.00  0.00    +0.210 HD
ENDBRANCH   6  10
BRANCH   7  12
ATOM     12  O   UNL     1      10.334   2.423  21.566  0.00  0.00    -0.384 OA
ATOM     13  H   UNL     1      11.123   2.757  22.030  0.00  0.00    +0.210 HD
ENDBRANCH   7  12
BRANCH   8  14
ATOM     14  O   UNL     1       9.382   4.705  23.117  0.00  0.00    -0.365 OA
ATOM     15  H   UNL     1       8.535   4.799  22.648  0.00  0.00    +0.213 HD
ENDBRANCH   8  14
ENDBRANCH   1   5
BRANCH   1  16
ATOM     16  C   UNL     1       7.426  -1.453  25.193  0.00  0.00    +0.109 C 
ATOM     17  C   UNL     1       6.731  -2.071  23.932  0.00  0.00    +0.166 C 
ATOM     18  C   UNL     1       7.480  -3.205  23.203  0.00  0.00    +0.177 C 
ATOM     19  C   UNL     1       8.263  -4.169  24.116  0.00  0.00    +0.173 C 
ATOM     20  C   UNL     1       8.385  -3.788  25.566  0.00  0.00    -0.016 C 
ATOM     21  C   UNL     1       7.988  -2.587  26.034  0.00  0.00    -0.002 C 
BRANCH  17  22
ATOM     22  O   UNL     1       6.258  -1.115  22.974  0.00  0.00    -0.387 OA
ATOM     23  H   UNL     1       6.934  -0.399  22.996  0.00  0.00    +0.210 HD
ENDBRANCH  17  22
BRANCH  18  24
ATOM     24  O   UNL     1       8.314  -2.653  22.168  0.00  0.00    -0.386 OA
ATOM     25  H   UNL     1       8.921  -2.025  22.606  0.00  0.00    +0.210 HD
ENDBRANCH  18  24
BRANCH  19  26
ATOM     26  O   UNL     1       7.646  -5.460  24.036  0.00  0.00    -0.385 OA
ATOM     27  H   UNL     1       6.727  -5.370  24.345  0.00  0.00    +0.210 HD
ENDBRANCH  19  26
BRANCH  20  28
ATOM     28  C   UNL     1       9.071  -4.833  26.420  0.00  0.00    +0.189 C 
BRANCH  28  29
ATOM     29  O   UNL     1      10.082  -5.527  25.707  0.00  0.00    -0.391 OA
ATOM     30  H   UNL     1      10.846  -5.588  26.307  0.00  0.00    +0.210 HD
ENDBRANCH  28  29
ENDBRANCH  20  28
ENDBRANCH   1  16
TORSDOF 10
ENDMDL
MODEL 7
REMARK VINA RESULT:      -6.2      2.258      3.348
REMARK  Name = 
REMARK  11 active torsions:
REMARK  status: ('A' for Active; 'I' for Inactive)
REMARK    1  A    between atoms: C_1  and  C_2
REMARK    2  A    between atoms: C_5  and  O_7
REMARK    3  A    between atoms: C_8  and  O_10
REMARK    4  A    between atoms: C_11  and  O_13
REMARK    5  A    between atoms: C_14  and  N_16
REMARK    6  A    between atoms: N_16  and  C_17
REMARK    7  A    between atoms: C_20  and  C_21
REMARK    8  A    between atoms: C_21  and  O_22
REMARK    9  A    between atoms: C_23  and  O_25
REMARK   10  A    between atoms: C_26  and  O_28
REMARK   11  A    between atoms: C_29  and  O_31
REMARK                            x       y       z     vdW  Elec       q    Type
REMARK                         _______ _______ _______ _____ _____    ______ ____
ROOT
ATOM      1  N   UNL     1       6.886  -2.570  24.742  0.00  0.00    -0.300 NA
ATOM      2  H   UNL     1       6.258  -2.356  25.527  0.00  0.00    +0.123 HD
ENDROOT
BRANCH   1   5
ATOM      3  C   UNL     1       6.478  -4.579  27.009  0.00  0.00    +0.039 C 
ATOM      4  C   UNL     1       5.837  -4.702  25.628  0.00  0.00    +0.138 C 
ATOM      5  C   UNL     1       6.692  -4.031  24.524  0.00  0.00    +0.114 C 
ATOM      6  C   UNL     1       6.304  -4.445  23.082  0.00  0.00    +0.167 C 
ATOM      7  C   UNL     1       5.865  -5.912  22.966  0.00  0.00    +0.200 C 
ATOM      8  C   UNL     1       4.906  -6.245  24.120  0.00  0.00    +0.279 C 
ATOM      9  O   UNL     1       5.590  -6.089  25.357  0.00  0.00    -0.344 OA
BRANCH   6  10
ATOM     10  O   UNL     1       7.418  -4.212  22.193  0.00  0.00    -0.387 OA
ATOM     11  H   UNL     1       7.453  -3.243  22.056  0.00  0.00    +0.210 HD
ENDBRANCH   6  10
BRANCH   7  12
ATOM     12  O   UNL     1       5.281  -6.081  21.659  0.00  0.00    -0.384 OA
ATOM     13  H   UNL     1       6.004  -6.253  21.029  0.00  0.00    +0.210 HD
ENDBRANCH   7  12
BRANCH   8  14
ATOM     14  O   UNL     1       4.456  -7.586  24.019  0.00  0.00    -0.365 OA
ATOM     15  H   UNL     1       4.074  -7.792  24.889  0.00  0.00    +0.213 HD
ENDBRANCH   8  14
ENDBRANCH   1   5
BRANCH   1  16
ATOM     16  C   UNL     1       8.215  -2.056  25.149  0.00  0.00    +0.109 C 
ATOM     17  C   UNL     1       9.533  -2.256  24.327  0.00  0.00    +0.166 C 
ATOM     18  C   UNL     1       9.744  -1.341  23.103  0.00  0.00    +0.177 C 
ATOM     19  C   UNL     1       9.230   0.104  23.267  0.00  0.00    +0.173 C 
ATOM     20  C   UNL     1       8.411   0.402  24.491  0.00  0.00    -0.016 C 
ATOM     21  C   UNL     1       7.985  -0.565  25.330  0.00  0.00    -0.002 C 
BRANCH  17  22
ATOM     22  O   UNL     1       9.819  -3.613  23.965  0.00  0.00    -0.387 OA
ATOM     23  H   UNL     1       9.953  -4.068  24.829  0.00  0.00    +0.210 HD
ENDBRANCH  17  22
BRANCH  18  24
ATOM     24  O   UNL     1       9.205  -1.970  21.925  0.00  0.00    -0.386 OA
ATOM     25  H   UNL     1       9.831  -1.779  21.199  0.00  0.00    +0.210 HD
ENDBRANCH  18  24
BRANCH  19  26
ATOM     26  O   UNL     1      10.363   0.983  23.252  0.00  0.00    -0.385 OA
ATOM     27  H   UNL     1      10.118   1.792  23.735  0.00  0.00    +0.210 HD
ENDBRANCH  19  26
BRANCH  20  28
ATOM     28  C   UNL     1       8.036   1.861  24.640  0.00  0.00    +0.189 C 
BRANCH  28  29
ATOM     29  O   UNL     1       9.141   2.659  25.032  0.00  0.00    -0.391 OA
ATOM     30  H   UNL     1       9.689   2.778  24.236  0.00  0.00    +0.210 HD
ENDBRANCH  28  29
ENDBRANCH  20  28
ENDBRANCH   1  16
TORSDOF 10
ENDMDL
MODEL 8
REMARK VINA RESULT:      -6.1      2.893      6.878
REMARK  Name = 
REMARK  11 active torsions:
REMARK  status: ('A' for Active; 'I' for Inactive)
REMARK    1  A    between atoms: C_1  and  C_2
REMARK    2  A    between atoms: C_5  and  O_7
REMARK    3  A    between atoms: C_8  and  O_10
REMARK    4  A    between atoms: C_11  and  O_13
REMARK    5  A    between atoms: C_14  and  N_16
REMARK    6  A    between atoms: N_16  and  C_17
REMARK    7  A    between atoms: C_20  and  C_21
REMARK    8  A    between atoms: C_21  and  O_22
REMARK    9  A    between atoms: C_23  and  O_25
REMARK   10  A    between atoms: C_26  and  O_28
REMARK   11  A    between atoms: C_29  and  O_31
REMARK                            x       y       z     vdW  Elec       q    Type
REMARK                         _______ _______ _______ _____ _____    ______ ____
ROOT
ATOM      1  N   UNL     1       7.029  -3.760  24.589  0.00  0.00    -0.300 NA
ATOM      2  H   UNL     1       7.181  -3.834  25.603  0.00  0.00    +0.123 HD
ENDROOT
BRANCH   1   5
ATOM      3  C   UNL     1       7.286  -1.395  26.508  0.00  0.00    +0.039 C 
ATOM      4  C   UNL     1       8.320  -1.751  25.443  0.00  0.00    +0.138 C 
ATOM      5  C   UNL     1       7.685  -2.473  24.228  0.00  0.00    +0.114 C 
ATOM      6  C   UNL     1       8.589  -2.514  22.971  0.00  0.00    +0.167 C 
ATOM      7  C   UNL     1       9.438  -1.249  22.788  0.00  0.00    +0.200 C 
ATOM      8  C   UNL     1      10.059  -0.857  24.139  0.00  0.00    +0.279 C 
ATOM      9  O   UNL     1       9.019  -0.558  25.061  0.00  0.00    -0.344 OA
BRANCH   6  10
ATOM     10  O   UNL     1       7.776  -2.713  21.793  0.00  0.00    -0.387 OA
ATOM     11  H   UNL     1       8.291  -2.342  21.048  0.00  0.00    +0.210 HD
ENDBRANCH   6  10
BRANCH   7  12
ATOM     12  O   UNL     1      10.412  -1.531  21.762  0.00  0.00    -0.384 OA
ATOM     13  H   UNL     1      10.258  -2.440  21.448  0.00  0.00    +0.210 HD
ENDBRANCH   7  12
BRANCH   8  14
ATOM     14  O   UNL     1      10.878   0.291  23.993  0.00  0.00    -0.365 OA
ATOM     15  H   UNL     1      11.747   0.029  24.344  0.00  0.00    +0.213 HD
ENDBRANCH   8  14
ENDBRANCH   1   5
BRANCH   1  16
ATOM     16  C   UNL     1       5.569  -3.924  24.398  0.00  0.00    +0.109 C 
ATOM     17  C   UNL     1       4.903  -4.491  23.098  0.00  0.00    +0.166 C 
ATOM     18  C   UNL     1       4.926  -6.021  22.907  0.00  0.00    +0.177 C 
ATOM     19  C   UNL     1       4.762  -6.847  24.199  0.00  0.00    +0.173 C 
ATOM     20  C   UNL     1       4.806  -6.095  25.500  0.00  0.00    -0.016 C 
ATOM     21  C   UNL     1       5.145  -4.791  25.571  0.00  0.00    -0.002 C 
BRANCH  17  22
ATOM     22  O   UNL     1       5.309  -3.849  21.883  0.00  0.00    -0.387 OA
ATOM     23  H   UNL     1       5.447  -4.594  21.253  0.00  0.00    +0.210 HD
ENDBRANCH  17  22
BRANCH  18  24
ATOM     24  O   UNL     1       6.105  -6.403  22.174  0.00  0.00    -0.386 OA
ATOM     25  H   UNL     1       6.465  -7.194  22.622  0.00  0.00    +0.210 HD
ENDBRANCH  18  24
BRANCH  19  26
ATOM     26  O   UNL     1       3.515  -7.549  24.122  0.00  0.00    -0.385 OA
ATOM     27  H   UNL     1       3.011  -7.353  24.932  0.00  0.00    +0.210 HD
ENDBRANCH  19  26
BRANCH  20  28
ATOM     28  C   UNL     1       4.528  -6.953  26.716  0.00  0.00    +0.189 C 
BRANCH  28  29
ATOM     29  O   UNL     1       5.654  -7.043  27.575  0.00  0.00    -0.391 OA
ATOM     30  H   UNL     1       5.748  -6.170  27.994  0.00  0.00    +0.210 HD
ENDBRANCH  28  29
ENDBRANCH  20  28
ENDBRANCH   1  16
TORSDOF 10
ENDMDL
MODEL 9
REMARK VINA RESULT:      -6.1      1.849      6.694
REMARK  Name = 
REMARK  11 active torsions:
REMARK  status: ('A' for Active; 'I' for Inactive)
REMARK    1  A    between atoms: C_1  and  C_2
REMARK    2  A    between atoms: C_5  and  O_7
REMARK    3  A    between atoms: C_8  and  O_10
REMARK    4  A    between atoms: C_11  and  O_13
REMARK    5  A    between atoms: C_14  and  N_16
REMARK    6  A    between atoms: N_16  and  C_17
REMARK    7  A    between atoms: C_20  and  C_21
REMARK    8  A    between atoms: C_21  and  O_22
REMARK    9  A    between atoms: C_23  and  O_25
REMARK   10  A    between atoms: C_26  and  O_28
REMARK   11  A    between atoms: C_29  and  O_31
REMARK                            x       y       z     vdW  Elec       q    Type
REMARK                         _______ _______ _______ _____ _____    ______ ____
ROOT
ATOM      1  N   UNL     1       8.405  -0.605  22.997  0.00  0.00    -0.300 NA
ATOM      2  H   UNL     1       8.819  -0.652  22.058  0.00  0.00    +0.123 HD
ENDROOT
BRANCH   1   5
ATOM      3  C   UNL     1      10.149   1.768  22.178  0.00  0.00    +0.039 C 
ATOM      4  C   UNL     1       8.626   1.744  22.066  0.00  0.00    +0.138 C 
ATOM      5  C   UNL     1       7.976   0.815  23.123  0.00  0.00    +0.114 C 
ATOM      6  C   UNL     1       6.455   1.039  23.314  0.00  0.00    +0.167 C 
ATOM      7  C   UNL     1       6.033   2.509  23.180  0.00  0.00    +0.200 C 
ATOM      8  C   UNL     1       6.729   3.125  21.955  0.00  0.00    +0.279 C 
ATOM      9  O   UNL     1       8.136   3.089  22.150  0.00  0.00    -0.344 OA
BRANCH   6  10
ATOM     10  O   UNL     1       6.050   0.546  24.610  0.00  0.00    -0.387 OA
ATOM     11  H   UNL     1       6.290   1.247  25.249  0.00  0.00    +0.210 HD
ENDBRANCH   6  10
BRANCH   7  12
ATOM     12  O   UNL     1       4.593   2.535  23.104  0.00  0.00    -0.384 OA
ATOM     13  H   UNL     1       4.329   2.059  22.297  0.00  0.00    +0.210 HD
ENDBRANCH   7  12
BRANCH   8  14
ATOM     14  O   UNL     1       6.330   4.475  21.786  0.00  0.00    -0.365 OA
ATOM     15  H   UNL     1       5.377   4.435  21.591  0.00  0.00    +0.213 HD
ENDBRANCH   8  14
ENDBRANCH   1   5
BRANCH   1  16
ATOM     16  C   UNL     1       9.439  -1.147  23.910  0.00  0.00    +0.109 C 
ATOM     17  C   UNL     1       9.511  -0.848  25.446  0.00  0.00    +0.166 C 
ATOM     18  C   UNL     1       8.541  -1.625  26.359  0.00  0.00    +0.177 C 
ATOM     19  C   UNL     1       8.271  -3.085  25.940  0.00  0.00    +0.173 C 
ATOM     20  C   UNL     1       8.801  -3.520  24.602  0.00  0.00    -0.016 C 
ATOM     21  C   UNL     1       9.338  -2.651  23.719  0.00  0.00    -0.002 C 
BRANCH  17  22
ATOM     22  O   UNL     1       9.484   0.543  25.792  0.00  0.00    -0.387 OA
ATOM     23  H   UNL     1      10.226   0.933  25.275  0.00  0.00    +0.210 HD
ENDBRANCH  17  22
BRANCH  18  24
ATOM     24  O   UNL     1       7.320  -0.881  26.521  0.00  0.00    -0.386 OA
ATOM     25  H   UNL     1       6.945  -0.765  25.626  0.00  0.00    +0.210 HD
ENDBRANCH  18  24
BRANCH  19  26
ATOM     26  O   UNL     1       8.817  -3.946  26.947  0.00  0.00    -0.385 OA
ATOM     27  H   UNL     1       8.088  -4.219  27.532  0.00  0.00    +0.210 HD
ENDBRANCH  19  26
BRANCH  20  28
ATOM     28  C   UNL     1       8.594  -4.990  24.306  0.00  0.00    +0.189 C 
BRANCH  28  29
ATOM     29  O   UNL     1       9.708  -5.775  24.699  0.00  0.00    -0.391 OA
ATOM     30  H   UNL     1       9.459  -6.702  24.539  0.00  0.00    +0.210 HD
ENDBRANCH  28  29
ENDBRANCH  20  28
ENDBRANCH   1  16
TORSDOF 10
ENDMDL
