MODEL 1
REMARK VINA RESULT:      -8.4      0.000      0.000
REMARK  Name = 
REMARK  7 active torsions:
REMARK  status: ('A' for Active; 'I' for Inactive)
REMARK    1  A    between atoms: C_2  and  N_3
REMARK    2  A    between atoms: C_2  and  C_4
REMARK    3  A    between atoms: C_2  and  C_21
REMARK    4  A    between atoms: C_4  and  O_5
REMARK    5  A    between atoms: O_5  and  C_6
REMARK    6  A    between atoms: C_8  and  C_12
REMARK    7  A    between atoms: C_21  and  C_22
REMARK                            x       y       z     vdW  Elec       q    Type
REMARK                         _______ _______ _______ _____ _____    ______ ____
ROOT
ATOM      1  O   UNL     1       8.245  -2.894  26.218  0.00  0.00    -0.489 OA
ENDROOT
BRANCH   1   2
ATOM      2  C   UNL     1       8.878  -2.201  25.214  0.00  0.00    +0.139 A 
ATOM      3  C   UNL     1       9.522  -2.935  24.227  0.00  0.00    +0.156 A 
ATOM      4  N   UNL     1      10.191  -2.384  23.185  0.00  0.00    -0.259 NA
ATOM      5  C   UNL     1      10.221  -1.028  23.126  0.00  0.00    +0.119 A 
ATOM      6  C   UNL     1       9.612  -0.171  24.044  0.00  0.00    +0.004 A 
ATOM      7  C   UNL     1       8.930  -0.807  25.097  0.00  0.00    +0.057 A 
BRANCH   6   8
ATOM      8  C   UNL     1       9.671   1.309  23.935  0.00  0.00    -0.016 A 
ATOM      9  C   UNL     1       8.518   2.104  24.095  0.00  0.00    +0.010 A 
ATOM     10  C   UNL     1       8.537   3.504  23.992  0.00  0.00    +0.028 A 
ATOM     11  C   UNL     1       9.770   4.104  23.735  0.00  0.00    +0.066 A 
ATOM     12  N   UNL     1      10.134   5.417  23.578  0.00  0.00    -0.277 N 
ATOM     13  H   UNL     1       9.539   6.231  23.623  0.00  0.00    +0.189 HD
ATOM     14  N   UNL     1      11.451   5.599  23.361  0.00  0.00    -0.181 NA
ATOM     15  C   UNL     1      11.937   4.356  23.357  0.00  0.00    +0.142 A 
ATOM     16  C   UNL     1      10.942   3.378  23.585  0.00  0.00    +0.020 A 
ATOM     17  C   UNL     1      10.893   1.973  23.675  0.00  0.00    +0.020 A 
ENDBRANCH   6   8
ENDBRANCH   1   2
BRANCH   1  18
ATOM     18  C   UNL     1       8.703  -4.246  26.397  0.00  0.00    +0.247 C 
BRANCH  18  19
ATOM     19  C   UNL     1       7.546  -5.268  26.445  0.00  0.00    +0.093 C 
BRANCH  19  20
ATOM     20  N   UNL     1       7.572  -6.006  27.725  0.00  0.00    -0.324 NA
ATOM     21  H   UNL     1       8.404  -5.730  28.256  0.00  0.00    +0.119 HD
ATOM     22  H   UNL     1       6.784  -5.695  28.297  0.00  0.00    +0.119 HD
ENDBRANCH  19  20
BRANCH  19  23
ATOM     23  C   UNL     1       6.195  -4.510  26.238  0.00  0.00    +0.058 C 
BRANCH  23  24
ATOM     24  C   UNL     1       5.412  -5.054  25.098  0.00  0.00    -0.023 C 
ATOM     25  C   UNL     1       4.857  -6.410  25.126  0.00  0.00    +0.110 C 
ATOM     26  N   UNL     1       4.714  -7.037  24.000  0.00  0.00    -0.279 NA
ATOM     27  C   UNL     1       5.081  -6.016  22.998  0.00  0.00    +0.158 C 
ATOM     28  C   UNL     1       6.352  -6.392  22.267  0.00  0.00    +0.004 C 
ATOM     29  C   UNL     1       7.186  -5.418  21.847  0.00  0.00    -0.002 C 
ATOM     30  C   UNL     1       6.839  -4.020  22.075  0.00  0.00    +0.000 C 
ATOM     31  C   UNL     1       5.992  -3.687  23.067  0.00  0.00    +0.006 C 
ATOM     32  C   UNL     1       5.363  -4.762  23.797  0.00  0.00    -0.015 C 
ENDBRANCH  23  24
ENDBRANCH  19  23
ENDBRANCH  18  19
ENDBRANCH   1  18
TORSDOF 7
ENDMDL
MODEL 2
REMARK VINA RESULT:      -8.2      1.627      2.495
REMARK  Name = 
REMARK  7 active torsions:
REMARK  status: ('A' for Active; 'I' for Inactive)
REMARK    1  A    between atoms: C_2  and  N_3
REMARK    2  A    between atoms: C_2  and  C_4
REMARK    3  A    between atoms: C_2  and  C_21
REMARK    4  A    between atoms: C_4  and  O_5
REMARK    5  A    between atoms: O_5  and  C_6
REMARK    6  A    between atoms: C_8  and  C_12
REMARK    7  A    between atoms: C_21  and  C_22
REMARK                            x       y       z     vdW  Elec       q    Type
REMARK                         _______ _______ _______ _____ _____    ______ ____
ROOT
ATOM      1  O   UNL     1       7.175  -4.006  27.373  0.00  0.00    -0.489 OA
ENDROOT
BRANCH   1   2
ATOM      2  C   UNL     1       8.081  -3.889  26.346  0.00  0.00    +0.139 A 
ATOM      3  C   UNL     1       8.853  -5.001  26.034  0.00  0.00    +0.156 A 
ATOM      4  N   UNL     1       9.788  -5.025  25.053  0.00  0.00    -0.259 NA
ATOM      5  C   UNL     1       9.965  -3.878  24.348  0.00  0.00    +0.119 A 
ATOM      6  C   UNL     1       9.255  -2.694  24.551  0.00  0.00    +0.004 A 
ATOM      7  C   UNL     1       8.296  -2.738  25.579  0.00  0.00    +0.057 A 
BRANCH   6   8
ATOM      8  C   UNL     1       9.484  -1.464  23.751  0.00  0.00    -0.016 A 
ATOM      9  C   UNL     1       9.256  -1.441  22.359  0.00  0.00    +0.010 A 
ATOM     10  C   UNL     1       9.468  -0.298  21.571  0.00  0.00    +0.028 A 
ATOM     11  C   UNL     1       9.908   0.852  22.227  0.00  0.00    +0.066 A 
ATOM     12  N   UNL     1      10.206   2.109  21.770  0.00  0.00    -0.277 N 
ATOM     13  H   UNL     1      10.157   2.447  20.820  0.00  0.00    +0.189 HD
ATOM     14  N   UNL     1      10.583   2.970  22.735  0.00  0.00    -0.181 NA
ATOM     15  C   UNL     1      10.547   2.225  23.842  0.00  0.00    +0.142 A 
ATOM     16  C   UNL     1      10.133   0.896  23.595  0.00  0.00    +0.020 A 
ATOM     17  C   UNL     1       9.931  -0.268  24.361  0.00  0.00    +0.020 A 
ENDBRANCH   6   8
ENDBRANCH   1   2
BRANCH   1  18
ATOM     18  C   UNL     1       6.700  -5.344  27.607  0.00  0.00    +0.247 C 
BRANCH  18  19
ATOM     19  C   UNL     1       5.162  -5.457  27.515  0.00  0.00    +0.093 C 
BRANCH  19  20
ATOM     20  N   UNL     1       4.553  -5.193  28.836  0.00  0.00    -0.324 NA
ATOM     21  H   UNL     1       4.538  -4.182  29.003  0.00  0.00    +0.119 HD
ATOM     22  H   UNL     1       3.568  -5.465  28.800  0.00  0.00    +0.119 HD
ENDBRANCH  19  20
BRANCH  19  23
ATOM     23  C   UNL     1       4.647  -4.461  26.427  0.00  0.00    +0.058 C 
BRANCH  23  24
ATOM     24  C   UNL     1       4.390  -5.131  25.126  0.00  0.00    -0.023 C 
ATOM     25  C   UNL     1       4.302  -6.590  25.019  0.00  0.00    +0.110 C 
ATOM     26  N   UNL     1       4.652  -7.144  23.900  0.00  0.00    -0.279 NA
ATOM     27  C   UNL     1       4.919  -5.987  23.021  0.00  0.00    +0.158 C 
ATOM     28  C   UNL     1       6.385  -5.900  22.653  0.00  0.00    +0.004 C 
ATOM     29  C   UNL     1       6.947  -4.690  22.459  0.00  0.00    -0.002 C 
ATOM     30  C   UNL     1       6.131  -3.486  22.575  0.00  0.00    +0.000 C 
ATOM     31  C   UNL     1       5.001  -3.504  23.308  0.00  0.00    +0.006 C 
ATOM     32  C   UNL     1       4.580  -4.771  23.856  0.00  0.00    -0.015 C 
ENDBRANCH  23  24
ENDBRANCH  19  23
ENDBRANCH  18  19
ENDBRANCH   1  18
TORSDOF 7
ENDMDL
MODEL 3
REMARK VINA RESULT:      -8.2      0.991      1.294
REMARK  Name = 
REMARK  7 active torsions:
REMARK  status: ('A' for Active; 'I' for Inactive)
REMARK    1  A    between atoms: C_2  and  N_3
REMARK    2  A    between atoms: C_2  and  C_4
REMARK    3  A    between atoms: C_2  and  C_21
REMARK    4  A    between atoms: C_4  and  O_5
REMARK    5  A    between atoms: O_5  and  C_6
REMARK    6  A    between atoms: C_8  and  C_12
REMARK    7  A    between atoms: C_21  and  C_22
REMARK                            x       y       z     vdW  Elec       q    Type
REMARK                         _______ _______ _______ _____ _____    ______ ____
ROOT
ATOM      1  O   UNL     1       8.482  -3.091  26.301  0.00  0.00    -0.489 OA
ENDROOT
BRANCH   1   2
ATOM      2  C   UNL     1       8.897  -2.446  25.159  0.00  0.00    +0.139 A 
ATOM      3  C   UNL     1       9.706  -3.149  24.277  0.00  0.00    +0.156 A 
ATOM      4  N   UNL     1      10.193  -2.637  23.121  0.00  0.00    -0.259 NA
ATOM      5  C   UNL     1       9.858  -1.354  22.831  0.00  0.00    +0.119 A 
ATOM      6  C   UNL     1       9.048  -0.538  23.623  0.00  0.00    +0.004 A 
ATOM      7  C   UNL     1       8.572  -1.131  24.805  0.00  0.00    +0.057 A 
BRANCH   6   8
ATOM      8  C   UNL     1       8.707   0.861  23.261  0.00  0.00    -0.016 A 
ATOM      9  C   UNL     1       7.783   1.150  22.234  0.00  0.00    +0.010 A 
ATOM     10  C   UNL     1       7.442   2.460  21.862  0.00  0.00    +0.028 A 
ATOM     11  C   UNL     1       8.050   3.499  22.569  0.00  0.00    +0.066 A 
ATOM     12  N   UNL     1       7.943   4.861  22.465  0.00  0.00    -0.277 N 
ATOM     13  H   UNL     1       7.373   5.388  21.820  0.00  0.00    +0.189 HD
ATOM     14  N   UNL     1       8.687   5.540  23.360  0.00  0.00    -0.181 NA
ATOM     15  C   UNL     1       9.306   4.574  24.041  0.00  0.00    +0.142 A 
ATOM     16  C   UNL     1       8.952   3.279  23.599  0.00  0.00    +0.020 A 
ATOM     17  C   UNL     1       9.292   1.955  23.942  0.00  0.00    +0.020 A 
ENDBRANCH   6   8
ENDBRANCH   1   2
BRANCH   1  18
ATOM     18  C   UNL     1       8.800  -4.493  26.349  0.00  0.00    +0.247 C 
BRANCH  18  19
ATOM     19  C   UNL     1       7.551  -5.383  26.531  0.00  0.00    +0.093 C 
BRANCH  19  20
ATOM     20  N   UNL     1       7.568  -6.017  27.866  0.00  0.00    -0.324 NA
ATOM     21  H   UNL     1       7.861  -5.325  28.563  0.00  0.00    +0.119 HD
ATOM     22  H   UNL     1       6.609  -6.256  28.126  0.00  0.00    +0.119 HD
ENDBRANCH  19  20
BRANCH  19  23
ATOM     23  C   UNL     1       6.273  -4.509  26.318  0.00  0.00    +0.058 C 
BRANCH  23  24
ATOM     24  C   UNL     1       5.462  -4.970  25.162  0.00  0.00    -0.023 C 
ATOM     25  C   UNL     1       4.943  -6.339  25.085  0.00  0.00    +0.110 C 
ATOM     26  N   UNL     1       4.774  -6.865  23.912  0.00  0.00    -0.279 NA
ATOM     27  C   UNL     1       5.074  -5.746  22.996  0.00  0.00    +0.158 C 
ATOM     28  C   UNL     1       6.326  -6.017  22.187  0.00  0.00    +0.004 C 
ATOM     29  C   UNL     1       7.117  -4.985  21.829  0.00  0.00    -0.002 C 
ATOM     30  C   UNL     1       6.742  -3.624  22.197  0.00  0.00    +0.000 C 
ATOM     31  C   UNL     1       5.926  -3.408  23.246  0.00  0.00    +0.006 C 
ATOM     32  C   UNL     1       5.354  -4.562  23.896  0.00  0.00    -0.015 C 
ENDBRANCH  23  24
ENDBRANCH  19  23
ENDBRANCH  18  19
ENDBRANCH   1  18
TORSDOF 7
ENDMDL
MODEL 4
REMARK VINA RESULT:      -8.0      1.657      2.606
REMARK  Name = 
REMARK  7 active torsions:
REMARK  status: ('A' for Active; 'I' for Inactive)
REMARK    1  A    between atoms: C_2  and  N_3
REMARK    2  A    between atoms: C_2  and  C_4
REMARK    3  A    between atoms: C_2  and  C_21
REMARK    4  A    between atoms: C_4  and  O_5
REMARK    5  A    between atoms: O_5  and  C_6
REMARK    6  A    between atoms: C_8  and  C_12
REMARK    7  A    between atoms: C_21  and  C_22
REMARK                            x       y       z     vdW  Elec       q    Type
REMARK                         _______ _______ _______ _____ _____    ______ ____
ROOT
ATOM      1  O   UNL     1       7.723  -5.079  27.513  0.00  0.00    -0.489 OA
ENDROOT
BRANCH   1   2
ATOM      2  C   UNL     1       8.401  -4.380  26.541  0.00  0.00    +0.139 A 
ATOM      3  C   UNL     1       9.278  -5.087  25.728  0.00  0.00    +0.156 A 
ATOM      4  N   UNL     1      10.015  -4.527  24.739  0.00  0.00    -0.259 NA
ATOM      5  C   UNL     1       9.873  -3.189  24.553  0.00  0.00    +0.119 A 
ATOM      6  C   UNL     1       9.024  -2.362  25.291  0.00  0.00    +0.004 A 
ATOM      7  C   UNL     1       8.284  -3.007  26.297  0.00  0.00    +0.057 A 
BRANCH   6   8
ATOM      8  C   UNL     1       8.902  -0.902  25.047  0.00  0.00    -0.016 A 
ATOM      9  C   UNL     1       7.722  -0.200  25.370  0.00  0.00    +0.010 A 
ATOM     10  C   UNL     1       7.570   1.178  25.148  0.00  0.00    +0.028 A 
ATOM     11  C   UNL     1       8.658   1.855  24.595  0.00  0.00    +0.066 A 
ATOM     12  N   UNL     1       8.841   3.171  24.257  0.00  0.00    -0.277 N 
ATOM     13  H   UNL     1       8.183   3.929  24.352  0.00  0.00    +0.189 HD
ATOM     14  N   UNL     1      10.064   3.445  23.762  0.00  0.00    -0.181 NA
ATOM     15  C   UNL     1      10.670   2.256  23.764  0.00  0.00    +0.142 A 
ATOM     16  C   UNL     1       9.850   1.223  24.272  0.00  0.00    +0.020 A 
ATOM     17  C   UNL     1       9.971  -0.163  24.488  0.00  0.00    +0.020 A 
ENDBRANCH   6   8
ENDBRANCH   1   2
BRANCH   1  18
ATOM     18  C   UNL     1       6.291  -5.054  27.382  0.00  0.00    +0.247 C 
BRANCH  18  19
ATOM     19  C   UNL     1       5.759  -6.138  26.418  0.00  0.00    +0.093 C 
BRANCH  19  20
ATOM     20  N   UNL     1       4.988  -7.152  27.168  0.00  0.00    -0.324 NA
ATOM     21  H   UNL     1       5.638  -7.781  27.649  0.00  0.00    +0.119 HD
ATOM     22  H   UNL     1       4.477  -6.683  27.919  0.00  0.00    +0.119 HD
ENDBRANCH  19  20
BRANCH  19  23
ATOM     23  C   UNL     1       4.895  -5.450  25.313  0.00  0.00    +0.058 C 
BRANCH  23  24
ATOM     24  C   UNL     1       5.677  -4.472  24.513  0.00  0.00    -0.023 C 
ATOM     25  C   UNL     1       5.240  -3.082  24.360  0.00  0.00    +0.110 C 
ATOM     26  N   UNL     1       5.563  -2.454  23.272  0.00  0.00    -0.279 NA
ATOM     27  C   UNL     1       6.439  -3.418  22.576  0.00  0.00    +0.158 C 
ATOM     28  C   UNL     1       5.804  -3.915  21.294  0.00  0.00    +0.004 C 
ATOM     29  C   UNL     1       6.052  -5.173  20.878  0.00  0.00    -0.002 C 
ATOM     30  C   UNL     1       6.950  -6.026  21.648  0.00  0.00    +0.000 C 
ATOM     31  C   UNL     1       7.155  -5.784  22.957  0.00  0.00    +0.006 C 
ATOM     32  C   UNL     1       6.557  -4.597  23.518  0.00  0.00    -0.015 C 
ENDBRANCH  23  24
ENDBRANCH  19  23
ENDBRANCH  18  19
ENDBRANCH   1  18
TORSDOF 7
ENDMDL
MODEL 5
REMARK VINA RESULT:      -7.9      1.819      2.446
REMARK  Name = 
REMARK  7 active torsions:
REMARK  status: ('A' for Active; 'I' for Inactive)
REMARK    1  A    between atoms: C_2  and  N_3
REMARK    2  A    between atoms: C_2  and  C_4
REMARK    3  A    between atoms: C_2  and  C_21
REMARK    4  A    between atoms: C_4  and  O_5
REMARK    5  A    between atoms: O_5  and  C_6
REMARK    6  A    between atoms: C_8  and  C_12
REMARK    7  A    between atoms: C_21  and  C_22
REMARK                            x       y       z     vdW  Elec       q    Type
REMARK                         _______ _______ _______ _____ _____    ______ ____
ROOT
ATOM      1  O   UNL     1      10.226  -2.807  23.904  0.00  0.00    -0.489 OA
ENDROOT
BRANCH   1   2
ATOM      2  C   UNL     1       9.872  -1.638  23.272  0.00  0.00    +0.139 A 
ATOM      3  C   UNL     1       9.709  -1.670  21.894  0.00  0.00    +0.156 A 
ATOM      4  N   UNL     1       9.370  -0.594  21.143  0.00  0.00    -0.259 NA
ATOM      5  C   UNL     1       9.188   0.579  21.803  0.00  0.00    +0.119 A 
ATOM      6  C   UNL     1       9.312   0.751  23.183  0.00  0.00    +0.004 A 
ATOM      7  C   UNL     1       9.659  -0.406  23.903  0.00  0.00    +0.057 A 
BRANCH   6   8
ATOM      8  C   UNL     1       9.099   2.055  23.860  0.00  0.00    -0.016 A 
ATOM      9  C   UNL     1       8.210   2.183  24.948  0.00  0.00    +0.010 A 
ATOM     10  C   UNL     1       7.981   3.401  25.606  0.00  0.00    +0.028 A 
ATOM     11  C   UNL     1       8.690   4.512  25.150  0.00  0.00    +0.066 A 
ATOM     12  N   UNL     1       8.703   5.821  25.557  0.00  0.00    -0.277 N 
ATOM     13  H   UNL     1       8.170   6.239  26.305  0.00  0.00    +0.189 HD
ATOM     14  N   UNL     1       9.557   6.603  24.867  0.00  0.00    -0.181 NA
ATOM     15  C   UNL     1      10.086   5.765  23.973  0.00  0.00    +0.142 A 
ATOM     16  C   UNL     1       9.590   4.447  24.096  0.00  0.00    +0.020 A 
ATOM     17  C   UNL     1       9.789   3.217  23.440  0.00  0.00    +0.020 A 
ENDBRANCH   6   8
ENDBRANCH   1   2
BRANCH   1  18
ATOM     18  C   UNL     1       9.254  -3.301  24.843  0.00  0.00    +0.247 C 
BRANCH  18  19
ATOM     19  C   UNL     1       9.083  -4.834  24.775  0.00  0.00    +0.093 C 
BRANCH  19  20
ATOM     20  N   UNL     1      10.225  -5.504  25.432  0.00  0.00    -0.324 NA
ATOM     21  H   UNL     1      11.094  -5.040  25.150  0.00  0.00    +0.119 HD
ATOM     22  H   UNL     1      10.161  -5.346  26.439  0.00  0.00    +0.119 HD
ENDBRANCH  19  20
BRANCH  19  23
ATOM     23  C   UNL     1       7.722  -5.220  25.440  0.00  0.00    +0.058 C 
BRANCH  23  24
ATOM     24  C   UNL     1       6.562  -4.929  24.558  0.00  0.00    -0.023 C 
ATOM     25  C   UNL     1       6.398  -5.592  23.261  0.00  0.00    +0.110 C 
ATOM     26  N   UNL     1       5.777  -4.951  22.320  0.00  0.00    -0.279 NA
ATOM     27  C   UNL     1       5.310  -3.726  22.999  0.00  0.00    +0.158 C 
ATOM     28  C   UNL     1       5.998  -2.494  22.451  0.00  0.00    +0.004 C 
ATOM     29  C   UNL     1       6.241  -1.452  23.271  0.00  0.00    -0.002 C 
ATOM     30  C   UNL     1       5.813  -1.513  24.664  0.00  0.00    +0.000 C 
ATOM     31  C   UNL     1       5.622  -2.704  25.261  0.00  0.00    +0.006 C 
ATOM     32  C   UNL     1       5.736  -3.887  24.443  0.00  0.00    -0.015 C 
ENDBRANCH  23  24
ENDBRANCH  19  23
ENDBRANCH  18  19
ENDBRANCH   1  18
TORSDOF 7
ENDMDL
MODEL 6
REMARK VINA RESULT:      -7.8      2.974      8.039
REMARK  Name = 
REMARK  7 active torsions:
REMARK  status: ('A' for Active; 'I' for Inactive)
REMARK    1  A    between atoms: C_2  and  N_3
REMARK    2  A    between atoms: C_2  and  C_4
REMARK    3  A    between atoms: C_2  and  C_21
REMARK    4  A    between atoms: C_4  and  O_5
REMARK    5  A    between atoms: O_5  and  C_6
REMARK    6  A    between atoms: C_8  and  C_12
REMARK    7  A    between atoms: C_21  and  C_22
REMARK                            x       y       z     vdW  Elec       q    Type
REMARK                         _______ _______ _______ _____ _____    ______ ____
ROOT
ATOM      1  O   UNL     1       5.875   2.774  24.214  0.00  0.00    -0.489 OA
ENDROOT
BRANCH   1   2
ATOM      2  C   UNL     1       5.635   1.542  24.776  0.00  0.00    +0.139 A 
ATOM      3  C   UNL     1       4.888   1.500  25.946  0.00  0.00    +0.156 A 
ATOM      4  N   UNL     1       4.582   0.359  26.611  0.00  0.00    -0.259 NA
ATOM      5  C   UNL     1       5.049  -0.801  26.082  0.00  0.00    +0.119 A 
ATOM      6  C   UNL     1       5.803  -0.903  24.912  0.00  0.00    +0.004 A 
ATOM      7  C   UNL     1       6.080   0.316  24.268  0.00  0.00    +0.057 A 
BRANCH   6   8
ATOM      8  C   UNL     1       6.289  -2.198  24.371  0.00  0.00    -0.016 A 
ATOM      9  C   UNL     1       7.106  -3.054  25.138  0.00  0.00    +0.010 A 
ATOM     10  C   UNL     1       7.588  -4.282  24.656  0.00  0.00    +0.028 A 
ATOM     11  C   UNL     1       7.209  -4.648  23.365  0.00  0.00    +0.066 A 
ATOM     12  N   UNL     1       7.496  -5.754  22.606  0.00  0.00    -0.277 N 
ATOM     13  H   UNL     1       8.065  -6.547  22.862  0.00  0.00    +0.189 HD
ATOM     14  N   UNL     1       6.912  -5.752  21.391  0.00  0.00    -0.181 NA
ATOM     15  C   UNL     1       6.251  -4.593  21.369  0.00  0.00    +0.142 A 
ATOM     16  C   UNL     1       6.394  -3.858  22.568  0.00  0.00    +0.020 A 
ATOM     17  C   UNL     1       5.939  -2.622  23.067  0.00  0.00    +0.020 A 
ENDBRANCH   6   8
ENDBRANCH   1   2
BRANCH   1  18
ATOM     18  C   UNL     1       5.759   2.813  22.780  0.00  0.00    +0.247 C 
BRANCH  18  19
ATOM     19  C   UNL     1       6.976   3.478  22.100  0.00  0.00    +0.093 C 
BRANCH  19  20
ATOM     20  N   UNL     1       6.731   4.924  21.919  0.00  0.00    -0.324 NA
ATOM     21  H   UNL     1       5.927   5.202  22.490  0.00  0.00    +0.119 HD
ATOM     22  H   UNL     1       7.520   5.440  22.314  0.00  0.00    +0.119 HD
ENDBRANCH  19  20
BRANCH  19  23
ATOM     23  C   UNL     1       8.249   3.207  22.965  0.00  0.00    +0.058 C 
BRANCH  23  24
ATOM     24  C   UNL     1       9.108   2.143  22.386  0.00  0.00    -0.023 C 
ATOM     25  C   UNL     1       8.686   1.368  21.215  0.00  0.00    +0.110 C 
ATOM     26  N   UNL     1       9.121   0.152  21.097  0.00  0.00    -0.279 NA
ATOM     27  C   UNL     1      10.067   0.022  22.223  0.00  0.00    +0.158 C 
ATOM     28  C   UNL     1       9.572  -0.977  23.247  0.00  0.00    +0.004 C 
ATOM     29  C   UNL     1       9.866  -0.788  24.550  0.00  0.00    -0.002 C 
ATOM     30  C   UNL     1      10.679   0.354  24.950  0.00  0.00    +0.000 C 
ATOM     31  C   UNL     1      10.745   1.446  24.165  0.00  0.00    +0.006 C 
ATOM     32  C   UNL     1      10.088   1.385  22.881  0.00  0.00    -0.015 C 
ENDBRANCH  23  24
ENDBRANCH  19  23
ENDBRANCH  18  19
ENDBRANCH   1  18
TORSDOF 7
ENDMDL
MODEL 7
REMARK VINA RESULT:      -7.7      2.527      4.674
REMARK  Name = 
REMARK  7 active torsions:
REMARK  status: ('A' for Active; 'I' for Inactive)
REMARK    1  A    between atoms: C_2  and  N_3
REMARK    2  A    between atoms: C_2  and  C_4
REMARK    3  A    between atoms: C_2  and  C_21
REMARK    4  A    between atoms: C_4  and  O_5
REMARK    5  A    between atoms: O_5  and  C_6
REMARK    6  A    between atoms: C_8  and  C_12
REMARK    7  A    between atoms: C_21  and  C_22
REMARK                            x       y       z     vdW  Elec       q    Type
REMARK                         _______ _______ _______ _____ _____    ______ ____
ROOT
ATOM      1  O   UNL     1       6.030  -2.506  25.392  0.00  0.00    -0.489 OA
ENDROOT
BRANCH   1   2
ATOM      2  C   UNL     1       6.192  -1.185  25.737  0.00  0.00    +0.139 A 
ATOM      3  C   UNL     1       6.087  -0.850  27.080  0.00  0.00    +0.156 A 
ATOM      4  N   UNL     1       6.217   0.410  27.561  0.00  0.00    -0.259 NA
ATOM      5  C   UNL     1       6.461   1.389  26.652  0.00  0.00    +0.119 A 
ATOM      6  C   UNL     1       6.597   1.192  25.277  0.00  0.00    +0.004 A 
ATOM      7  C   UNL     1       6.457  -0.139  24.846  0.00  0.00    +0.057 A 
BRANCH   6   8
ATOM      8  C   UNL     1       6.867   2.297  24.322  0.00  0.00    -0.016 A 
ATOM      9  C   UNL     1       6.395   2.252  22.994  0.00  0.00    +0.010 A 
ATOM     10  C   UNL     1       6.637   3.276  22.064  0.00  0.00    +0.028 A 
ATOM     11  C   UNL     1       7.365   4.378  22.511  0.00  0.00    +0.066 A 
ATOM     12  N   UNL     1       7.769   5.526  21.878  0.00  0.00    -0.277 N 
ATOM     13  H   UNL     1       7.602   5.793  20.919  0.00  0.00    +0.189 HD
ATOM     14  N   UNL     1       8.448   6.380  22.669  0.00  0.00    -0.181 NA
ATOM     15  C   UNL     1       8.498   5.740  23.839  0.00  0.00    +0.142 A 
ATOM     16  C   UNL     1       7.841   4.489  23.809  0.00  0.00    +0.020 A 
ATOM     17  C   UNL     1       7.601   3.440  24.718  0.00  0.00    +0.020 A 
ENDBRANCH   6   8
ENDBRANCH   1   2
BRANCH   1  18
ATOM     18  C   UNL     1       5.195  -2.729  24.241  0.00  0.00    +0.247 C 
BRANCH  18  19
ATOM     19  C   UNL     1       5.935  -3.457  23.097  0.00  0.00    +0.093 C 
BRANCH  19  20
ATOM     20  N   UNL     1       4.975  -4.230  22.281  0.00  0.00    -0.324 NA
ATOM     21  H   UNL     1       5.000  -5.211  22.573  0.00  0.00    +0.119 HD
ATOM     22  H   UNL     1       4.030  -3.916  22.505  0.00  0.00    +0.119 HD
ENDBRANCH  19  20
BRANCH  19  23
ATOM     23  C   UNL     1       6.706  -2.400  22.242  0.00  0.00    +0.058 C 
BRANCH  23  24
ATOM     24  C   UNL     1       8.177  -2.482  22.438  0.00  0.00    -0.023 C 
ATOM     25  C   UNL     1       8.767  -3.333  23.476  0.00  0.00    +0.110 C 
ATOM     26  N   UNL     1       9.899  -2.971  23.994  0.00  0.00    -0.279 NA
ATOM     27  C   UNL     1      10.276  -1.792  23.188  0.00  0.00    +0.158 C 
ATOM     28  C   UNL     1      10.265  -0.527  24.021  0.00  0.00    +0.004 C 
ATOM     29  C   UNL     1       9.930   0.643  23.442  0.00  0.00    -0.002 C 
ATOM     30  C   UNL     1       9.612   0.682  22.019  0.00  0.00    +0.000 C 
ATOM     31  C   UNL     1       9.191  -0.432  21.390  0.00  0.00    +0.006 C 
ATOM     32  C   UNL     1       9.188  -1.663  22.143  0.00  0.00    -0.015 C 
ENDBRANCH  23  24
ENDBRANCH  19  23
ENDBRANCH  18  19
ENDBRANCH   1  18
TORSDOF 7
ENDMDL
MODEL 8
REMARK VINA RESULT:      -7.6      1.178      2.100
REMARK  Name = 
REMARK  7 active torsions:
REMARK  status: ('A' for Active; 'I' for Inactive)
REMARK    1  A    between atoms: C_2  and  N_3
REMARK    2  A    between atoms: C_2  and  C_4
REMARK    3  A    between atoms: C_2  and  C_21
REMARK    4  A    between atoms: C_4  and  O_5
REMARK    5  A    between atoms: O_5  and  C_6
REMARK    6  A    between atoms: C_8  and  C_12
REMARK    7  A    between atoms: C_21  and  C_22
REMARK                            x       y       z     vdW  Elec       q    Type
REMARK                         _______ _______ _______ _____ _____    ______ ____
ROOT
ATOM      1  O   UNL     1       8.867  -2.982  25.697  0.00  0.00    -0.489 OA
ENDROOT
BRANCH   1   2
ATOM      2  C   UNL     1       9.325  -2.085  24.761  0.00  0.00    +0.139 A 
ATOM      3  C   UNL     1       9.907  -2.594  23.608  0.00  0.00    +0.156 A 
ATOM      4  N   UNL     1      10.408  -1.828  22.608  0.00  0.00    -0.259 NA
ATOM      5  C   UNL     1      10.326  -0.482  22.769  0.00  0.00    +0.119 A 
ATOM      6  C   UNL     1       9.761   0.161  23.872  0.00  0.00    +0.004 A 
ATOM      7  C   UNL     1       9.256  -0.691  24.869  0.00  0.00    +0.057 A 
BRANCH   6   8
ATOM      8  C   UNL     1       9.693   1.639  24.000  0.00  0.00    -0.016 A 
ATOM      9  C   UNL     1       8.577   2.275  24.583  0.00  0.00    +0.010 A 
ATOM     10  C   UNL     1       8.476   3.669  24.715  0.00  0.00    +0.028 A 
ATOM     11  C   UNL     1       9.552   4.429  24.254  0.00  0.00    +0.066 A 
ATOM     12  N   UNL     1       9.775   5.781  24.231  0.00  0.00    -0.277 N 
ATOM     13  H   UNL     1       9.163   6.512  24.563  0.00  0.00    +0.189 HD
ATOM     14  N   UNL     1      10.969   6.133  23.716  0.00  0.00    -0.181 NA
ATOM     15  C   UNL     1      11.515   4.962  23.379  0.00  0.00    +0.142 A 
ATOM     16  C   UNL     1      10.684   3.861  23.688  0.00  0.00    +0.020 A 
ATOM     17  C   UNL     1      10.753   2.461  23.550  0.00  0.00    +0.020 A 
ENDBRANCH   6   8
ENDBRANCH   1   2
BRANCH   1  18
ATOM     18  C   UNL     1       9.094  -4.364  25.367  0.00  0.00    +0.247 C 
BRANCH  18  19
ATOM     19  C   UNL     1       7.951  -5.287  25.842  0.00  0.00    +0.093 C 
BRANCH  19  20
ATOM     20  N   UNL     1       8.145  -5.649  27.263  0.00  0.00    -0.324 NA
ATOM     21  H   UNL     1       8.968  -5.158  27.625  0.00  0.00    +0.119 HD
ATOM     22  H   UNL     1       7.362  -5.276  27.803  0.00  0.00    +0.119 HD
ENDBRANCH  19  20
BRANCH  19  23
ATOM     23  C   UNL     1       6.586  -4.563  25.608  0.00  0.00    +0.058 C 
BRANCH  23  24
ATOM     24  C   UNL     1       5.936  -4.982  24.339  0.00  0.00    -0.023 C 
ATOM     25  C   UNL     1       5.791  -4.058  23.210  0.00  0.00    +0.110 C 
ATOM     26  N   UNL     1       4.781  -4.221  22.412  0.00  0.00    -0.279 NA
ATOM     27  C   UNL     1       4.161  -5.467  22.905  0.00  0.00    +0.158 C 
ATOM     28  C   UNL     1       2.788  -5.206  23.488  0.00  0.00    +0.004 C 
ATOM     29  C   UNL     1       2.351  -5.963  24.515  0.00  0.00    -0.002 C 
ATOM     30  C   UNL     1       3.191  -7.039  25.030  0.00  0.00    +0.000 C 
ATOM     31  C   UNL     1       4.525  -7.001  24.847  0.00  0.00    +0.006 C 
ATOM     32  C   UNL     1       5.057  -5.937  24.031  0.00  0.00    -0.015 C 
ENDBRANCH  23  24
ENDBRANCH  19  23
ENDBRANCH  18  19
ENDBRANCH   1  18
TORSDOF 7
ENDMDL
MODEL 9
REMARK VINA RESULT:      -7.6      2.630      8.505
REMARK  Name = 
REMARK  7 active torsions:
REMARK  status: ('A' for Active; 'I' for Inactive)
REMARK    1  A    between atoms: C_2  and  N_3
REMARK    2  A    between atoms: C_2  and  C_4
REMARK    3  A    between atoms: C_2  and  C_21
REMARK    4  A    between atoms: C_4  and  O_5
REMARK    5  A    between atoms: O_5  and  C_6
REMARK    6  A    between atoms: C_8  and  C_12
REMARK    7  A    between atoms: C_21  and  C_22
REMARK                            x       y       z     vdW  Elec       q    Type
REMARK                         _______ _______ _______ _____ _____    ______ ____
ROOT
ATOM      1  O   UNL     1      10.523   1.893  24.076  0.00  0.00    -0.489 OA
ENDROOT
BRANCH   1   2
ATOM      2  C   UNL     1      10.111   0.665  23.613  0.00  0.00    +0.139 A 
ATOM      3  C   UNL     1      10.002   0.494  22.239  0.00  0.00    +0.156 A 
ATOM      4  N   UNL     1       9.601  -0.657  21.647  0.00  0.00    -0.259 NA
ATOM      5  C   UNL     1       9.291  -1.692  22.469  0.00  0.00    +0.119 A 
ATOM      6  C   UNL     1       9.363  -1.660  23.862  0.00  0.00    +0.004 A 
ATOM      7  C   UNL     1       9.791  -0.439  24.412  0.00  0.00    +0.057 A 
BRANCH   6   8
ATOM      8  C   UNL     1       9.015  -2.822  24.719  0.00  0.00    -0.016 A 
ATOM      9  C   UNL     1       9.782  -4.005  24.700  0.00  0.00    +0.010 A 
ATOM     10  C   UNL     1       9.478  -5.124  25.492  0.00  0.00    +0.028 A 
ATOM     11  C   UNL     1       8.371  -5.022  26.335  0.00  0.00    +0.066 A 
ATOM     12  N   UNL     1       7.809  -5.906  27.219  0.00  0.00    -0.277 N 
ATOM     13  H   UNL     1       8.114  -6.844  27.430  0.00  0.00    +0.189 HD
ATOM     14  N   UNL     1       6.739  -5.419  27.878  0.00  0.00    -0.181 NA
ATOM     15  C   UNL     1       6.602  -4.190  27.376  0.00  0.00    +0.142 A 
ATOM     16  C   UNL     1       7.587  -3.879  26.411  0.00  0.00    +0.020 A 
ATOM     17  C   UNL     1       7.902  -2.777  25.593  0.00  0.00    +0.020 A 
ENDBRANCH   6   8
ENDBRANCH   1   2
BRANCH   1  18
ATOM     18  C   UNL     1      10.301   2.984  23.164  0.00  0.00    +0.247 C 
BRANCH  18  19
ATOM     19  C   UNL     1      10.792   4.338  23.722  0.00  0.00    +0.093 C 
BRANCH  19  20
ATOM     20  N   UNL     1      12.048   4.739  23.054  0.00  0.00    -0.324 NA
ATOM     21  H   UNL     1      12.553   5.397  23.656  0.00  0.00    +0.119 HD
ATOM     22  H   UNL     1      12.659   3.923  22.992  0.00  0.00    +0.119 HD
ENDBRANCH  19  20
BRANCH  19  23
ATOM     23  C   UNL     1       9.664   5.402  23.527  0.00  0.00    +0.058 C 
BRANCH  23  24
ATOM     24  C   UNL     1       8.402   5.019  24.212  0.00  0.00    -0.023 C 
ATOM     25  C   UNL     1       8.377   4.674  25.637  0.00  0.00    +0.110 C 
ATOM     26  N   UNL     1       7.480   3.834  26.048  0.00  0.00    -0.279 NA
ATOM     27  C   UNL     1       6.657   3.605  24.843  0.00  0.00    +0.158 C 
ATOM     28  C   UNL     1       6.786   2.180  24.349  0.00  0.00    +0.004 C 
ATOM     29  C   UNL     1       6.702   1.929  23.027  0.00  0.00    -0.002 C 
ATOM     30  C   UNL     1       6.456   3.025  22.096  0.00  0.00    +0.000 C 
ATOM     31  C   UNL     1       6.775   4.287  22.440  0.00  0.00    +0.006 C 
ATOM     32  C   UNL     1       7.243   4.515  23.786  0.00  0.00    -0.015 C 
ENDBRANCH  23  24
ENDBRANCH  19  23
ENDBRANCH  18  19
ENDBRANCH   1  18
TORSDOF 7
ENDMDL
