MODEL 1
REMARK VINA RESULT:      -3.8      0.000      0.000
REMARK  Name = 
REMARK  2 active torsions:
REMARK  status: ('A' for Active; 'I' for Inactive)
REMARK    1  A    between atoms: O_1  and  C_2
REMARK    2  A    between atoms: C_2  and  C_4
REMARK                            x       y       z     vdW  Elec       q    Type
REMARK                         _______ _______ _______ _____ _____    ______ ____
ROOT
ATOM      1  C   UNK     1      10.012   0.365  22.799  0.00  0.00    +0.154 A 
ATOM      2  N   UNK     1       9.578  -0.304  21.648  0.00  0.00    -0.241 NA
ATOM      3  C   UNK     1       9.430  -1.582  21.924  0.00  0.00    +0.156 A 
ATOM      4  S   UNK     1       9.791  -2.061  23.531  0.00  0.00    -0.083 S 
ATOM      5  C   UNK     1      10.180  -0.435  23.912  0.00  0.00    +0.081 A 
ENDROOT
BRANCH   1   6
ATOM      6  C   UNK     1      10.250   1.804  22.756  0.00  0.00    +0.356 C 
ATOM      7  O   UNK     1      10.589   2.483  23.714  0.00  0.00    -0.243 OA
BRANCH   6   8
ATOM      8  O   UNK     1      10.052   2.317  21.512  0.00  0.00    -0.476 OA
ATOM      9  H   UNK     1       9.599   1.624  20.978  0.00  0.00    +0.295 HD
ENDBRANCH   6   8
ENDBRANCH   1   6
TORSDOF 2
ENDMDL
MODEL 2
REMARK VINA RESULT:      -3.7      5.259      5.933
REMARK  Name = 
REMARK  2 active torsions:
REMARK  status: ('A' for Active; 'I' for Inactive)
REMARK    1  A    between atoms: O_1  and  C_2
REMARK    2  A    between atoms: C_2  and  C_4
REMARK                            x       y       z     vdW  Elec       q    Type
REMARK                         _______ _______ _______ _____ _____    ______ ____
ROOT
ATOM      1  C   UNK     1       8.841  -4.170  24.423  0.00  0.00    +0.154 A 
ATOM      2  N   UNK     1       9.862  -3.243  24.181  0.00  0.00    -0.241 NA
ATOM      3  C   UNK     1       9.448  -2.371  23.285  0.00  0.00    +0.156 A 
ATOM      4  S   UNK     1       7.857  -2.595  22.685  0.00  0.00    -0.083 S 
ATOM      5  C   UNK     1       7.683  -3.968  23.696  0.00  0.00    +0.081 A 
ENDROOT
BRANCH   1   6
ATOM      6  C   UNK     1       9.050  -5.246  25.385  0.00  0.00    +0.356 C 
ATOM      7  O   UNK     1       8.175  -5.741  26.080  0.00  0.00    -0.243 OA
BRANCH   6   8
ATOM      8  O   UNK     1      10.349  -5.647  25.426  0.00  0.00    -0.476 OA
ATOM      9  H   UNK     1      10.793  -5.131  26.138  0.00  0.00    +0.295 HD
ENDBRANCH   6   8
ENDBRANCH   1   6
TORSDOF 2
ENDMDL
MODEL 3
REMARK VINA RESULT:      -3.6      2.831      3.300
REMARK  Name = 
REMARK  2 active torsions:
REMARK  status: ('A' for Active; 'I' for Inactive)
REMARK    1  A    between atoms: O_1  and  C_2
REMARK    2  A    between atoms: C_2  and  C_4
REMARK                            x       y       z     vdW  Elec       q    Type
REMARK                         _______ _______ _______ _____ _____    ______ ____
ROOT
ATOM      1  C   UNK     1      10.208  -0.034  22.889  0.00  0.00    +0.154 A 
ATOM      2  N   UNK     1       9.875   0.827  21.836  0.00  0.00    -0.241 NA
ATOM      3  C   UNK     1       9.993   2.072  22.246  0.00  0.00    +0.156 A 
ATOM      4  S   UNK     1      10.492   2.294  23.872  0.00  0.00    -0.083 S 
ATOM      5  C   UNK     1      10.565   0.593  24.067  0.00  0.00    +0.081 A 
ENDROOT
BRANCH   1   6
ATOM      6  C   UNK     1      10.158  -1.479  22.689  0.00  0.00    +0.356 C 
ATOM      7  O   UNK     1      10.199  -2.308  23.585  0.00  0.00    -0.243 OA
BRANCH   6   8
ATOM      8  O   UNK     1      10.059  -1.808  21.373  0.00  0.00    -0.476 OA
ATOM      9  H   UNK     1       9.124  -1.655  21.102  0.00  0.00    +0.295 HD
ENDBRANCH   6   8
ENDBRANCH   1   6
TORSDOF 2
ENDMDL
MODEL 4
REMARK VINA RESULT:      -3.6      5.056      5.577
REMARK  Name = 
REMARK  2 active torsions:
REMARK  status: ('A' for Active; 'I' for Inactive)
REMARK    1  A    between atoms: O_1  and  C_2
REMARK    2  A    between atoms: C_2  and  C_4
REMARK                            x       y       z     vdW  Elec       q    Type
REMARK                         _______ _______ _______ _____ _____    ______ ____
ROOT
ATOM      1  C   UNK     1       8.959  -3.891  24.446  0.00  0.00    +0.154 A 
ATOM      2  N   UNK     1       7.905  -4.328  23.634  0.00  0.00    -0.241 NA
ATOM      3  C   UNK     1       7.715  -3.454  22.668  0.00  0.00    +0.156 A 
ATOM      4  S   UNK     1       8.750  -2.086  22.667  0.00  0.00    -0.083 S 
ATOM      5  C   UNK     1       9.531  -2.693  24.067  0.00  0.00    +0.081 A 
ENDROOT
BRANCH   1   6
ATOM      6  C   UNK     1       9.370  -4.692  25.595  0.00  0.00    +0.356 C 
ATOM      7  O   UNK     1       9.034  -4.477  26.750  0.00  0.00    -0.243 OA
BRANCH   6   8
ATOM      8  O   UNK     1      10.182  -5.721  25.234  0.00  0.00    -0.476 OA
ATOM      9  H   UNK     1       9.604  -6.490  25.020  0.00  0.00    +0.295 HD
ENDBRANCH   6   8
ENDBRANCH   1   6
TORSDOF 2
ENDMDL
MODEL 5
REMARK VINA RESULT:      -3.6      1.329      2.032
REMARK  Name = 
REMARK  2 active torsions:
REMARK  status: ('A' for Active; 'I' for Inactive)
REMARK    1  A    between atoms: O_1  and  C_2
REMARK    2  A    between atoms: C_2  and  C_4
REMARK                            x       y       z     vdW  Elec       q    Type
REMARK                         _______ _______ _______ _____ _____    ______ ____
ROOT
ATOM      1  C   UNK     1       9.435   0.296  22.541  0.00  0.00    +0.154 A 
ATOM      2  N   UNK     1       9.729   0.438  23.903  0.00  0.00    -0.241 NA
ATOM      3  C   UNK     1       9.972  -0.749  24.416  0.00  0.00    +0.156 A 
ATOM      4  S   UNK     1       9.866  -2.080  23.339  0.00  0.00    -0.083 S 
ATOM      5  C   UNK     1       9.464  -1.002  22.069  0.00  0.00    +0.081 A 
ENDROOT
BRANCH   1   6
ATOM      6  C   UNK     1       9.130   1.475  21.737  0.00  0.00    +0.356 C 
ATOM      7  O   UNK     1       8.030   1.736  21.273  0.00  0.00    -0.243 OA
BRANCH   6   8
ATOM      8  O   UNK     1      10.221   2.266  21.557  0.00  0.00    -0.476 OA
ATOM      9  H   UNK     1      10.952   1.688  21.238  0.00  0.00    +0.295 HD
ENDBRANCH   6   8
ENDBRANCH   1   6
TORSDOF 2
ENDMDL
MODEL 6
REMARK VINA RESULT:      -3.5      3.044      3.487
REMARK  Name = 
REMARK  2 active torsions:
REMARK  status: ('A' for Active; 'I' for Inactive)
REMARK    1  A    between atoms: O_1  and  C_2
REMARK    2  A    between atoms: C_2  and  C_4
REMARK                            x       y       z     vdW  Elec       q    Type
REMARK                         _______ _______ _______ _____ _____    ______ ____
ROOT
ATOM      1  C   UNK     1       9.273  -2.558  23.282  0.00  0.00    +0.154 A 
ATOM      2  N   UNK     1       9.825  -3.382  24.271  0.00  0.00    -0.241 NA
ATOM      3  C   UNK     1       8.954  -4.316  24.587  0.00  0.00    +0.156 A 
ATOM      4  S   UNK     1       7.456  -4.275  23.752  0.00  0.00    -0.083 S 
ATOM      5  C   UNK     1       7.995  -2.898  22.884  0.00  0.00    +0.081 A 
ENDROOT
BRANCH   1   6
ATOM      6  C   UNK     1      10.046  -1.438  22.755  0.00  0.00    +0.356 C 
ATOM      7  O   UNK     1      10.500  -0.526  23.430  0.00  0.00    -0.243 OA
BRANCH   6   8
ATOM      8  O   UNK     1      10.210  -1.521  21.408  0.00  0.00    -0.476 OA
ATOM      9  H   UNK     1      11.149  -1.296  21.212  0.00  0.00    +0.295 HD
ENDBRANCH   6   8
ENDBRANCH   1   6
TORSDOF 2
ENDMDL
MODEL 7
REMARK VINA RESULT:      -3.5      6.489      7.156
REMARK  Name = 
REMARK  2 active torsions:
REMARK  status: ('A' for Active; 'I' for Inactive)
REMARK    1  A    between atoms: O_1  and  C_2
REMARK    2  A    between atoms: C_2  and  C_4
REMARK                            x       y       z     vdW  Elec       q    Type
REMARK                         _______ _______ _______ _____ _____    ______ ____
ROOT
ATOM      1  C   UNK     1       7.476  -5.220  25.536  0.00  0.00    +0.154 A 
ATOM      2  N   UNK     1       8.363  -4.966  24.483  0.00  0.00    -0.241 NA
ATOM      3  C   UNK     1       7.688  -4.917  23.354  0.00  0.00    +0.156 A 
ATOM      4  S   UNK     1       5.994  -5.168  23.470  0.00  0.00    -0.083 S 
ATOM      5  C   UNK     1       6.152  -5.358  25.166  0.00  0.00    +0.081 A 
ENDROOT
BRANCH   1   6
ATOM      6  C   UNK     1       7.980  -5.321  26.902  0.00  0.00    +0.356 C 
ATOM      7  O   UNK     1       7.365  -5.810  27.838  0.00  0.00    -0.243 OA
BRANCH   6   8
ATOM      8  O   UNK     1       9.231  -4.802  27.023  0.00  0.00    -0.476 OA
ATOM      9  H   UNK     1       9.641  -4.812  26.127  0.00  0.00    +0.295 HD
ENDBRANCH   6   8
ENDBRANCH   1   6
TORSDOF 2
ENDMDL
MODEL 8
REMARK VINA RESULT:      -3.4      5.964      6.736
REMARK  Name = 
REMARK  2 active torsions:
REMARK  status: ('A' for Active; 'I' for Inactive)
REMARK    1  A    between atoms: O_1  and  C_2
REMARK    2  A    between atoms: C_2  and  C_4
REMARK                            x       y       z     vdW  Elec       q    Type
REMARK                         _______ _______ _______ _____ _____    ______ ____
ROOT
ATOM      1  C   UNK     1       7.166  -4.725  22.421  0.00  0.00    +0.154 A 
ATOM      2  N   UNK     1       7.852  -5.270  23.513  0.00  0.00    -0.241 NA
ATOM      3  C   UNK     1       8.469  -4.303  24.159  0.00  0.00    +0.156 A 
ATOM      4  S   UNK     1       8.280  -2.721  23.522  0.00  0.00    -0.083 S 
ATOM      5  C   UNK     1       7.291  -3.357  22.274  0.00  0.00    +0.081 A 
ENDROOT
BRANCH   1   6
ATOM      6  C   UNK     1       6.396  -5.597  21.539  0.00  0.00    +0.356 C 
ATOM      7  O   UNK     1       5.952  -5.269  20.449  0.00  0.00    -0.243 OA
BRANCH   6   8
ATOM      8  O   UNK     1       6.224  -6.836  22.072  0.00  0.00    -0.476 OA
ATOM      9  H   UNK     1       6.220  -7.479  21.325  0.00  0.00    +0.295 HD
ENDBRANCH   6   8
ENDBRANCH   1   6
TORSDOF 2
ENDMDL
MODEL 9
REMARK VINA RESULT:      -3.4      7.657      8.276
REMARK  Name = 
REMARK  2 active torsions:
REMARK  status: ('A' for Active; 'I' for Inactive)
REMARK    1  A    between atoms: O_1  and  C_2
REMARK    2  A    between atoms: C_2  and  C_4
REMARK                            x       y       z     vdW  Elec       q    Type
REMARK                         _______ _______ _______ _____ _____    ______ ____
ROOT
ATOM      1  C   UNK     1       6.362  -5.714  26.108  0.00  0.00    +0.154 A 
ATOM      2  N   UNK     1       5.376  -6.651  26.441  0.00  0.00    -0.241 NA
ATOM      3  C   UNK     1       4.592  -6.838  25.401  0.00  0.00    +0.156 A 
ATOM      4  S   UNK     1       4.965  -5.930  23.993  0.00  0.00    -0.083 S 
ATOM      5  C   UNK     1       6.287  -5.219  24.820  0.00  0.00    +0.081 A 
ENDROOT
BRANCH   1   6
ATOM      6  C   UNK     1       7.364  -5.332  27.097  0.00  0.00    +0.356 C 
ATOM      7  O   UNK     1       8.050  -4.322  27.040  0.00  0.00    -0.243 OA
BRANCH   6   8
ATOM      8  O   UNK     1       7.454  -6.237  28.107  0.00  0.00    -0.476 OA
ATOM      9  H   UNK     1       8.353  -6.151  28.500  0.00  0.00    +0.295 HD
ENDBRANCH   6   8
ENDBRANCH   1   6
TORSDOF 2
ENDMDL
