MODEL 1
REMARK VINA RESULT:      -7.0      0.000      0.000
REMARK  Name = 
REMARK  5 active torsions:
REMARK  status: ('A' for Active; 'I' for Inactive)
REMARK    1  A    between atoms: C_2  and  C_3
REMARK    2  A    between atoms: C_2  and  C_5
REMARK    3  A    between atoms: C_2  and  C_12
REMARK    4  A    between atoms: C_3  and  N_4
REMARK    5  A    between atoms: C_15  and  C_18
REMARK                            x       y       z     vdW  Elec       q    Type
REMARK                         _______ _______ _______ _____ _____    ______ ____
ROOT
ATOM      1  C   UNL     1       8.436  -4.028  26.116  0.00  0.00    +0.062 C 
ENDROOT
BRANCH   1   2
ATOM      2  C   UNL     1       7.187  -4.758  25.608  0.00  0.00    -0.039 A 
ATOM      3  C   UNL     1       6.730  -4.647  24.284  0.00  0.00    +0.006 A 
ATOM      4  C   UNL     1       5.607  -5.356  23.848  0.00  0.00    +0.020 A 
ATOM      5  C   UNL     1       4.917  -6.177  24.734  0.00  0.00    +0.041 A 
ATOM      6 CL   UNL     1       3.543  -7.056  24.191  0.00  0.00    -0.084 Cl
ATOM      7  C   UNL     1       5.338  -6.286  26.057  0.00  0.00    +0.020 A 
ATOM      8  C   UNL     1       6.463  -5.578  26.491  0.00  0.00    +0.006 A 
ENDBRANCH   1   2
BRANCH   1   9
ATOM      9  C   UNL     1       8.745  -2.768  25.310  0.00  0.00    -0.039 A 
ATOM     10  C   UNL     1       8.210  -1.533  25.710  0.00  0.00    +0.005 A 
ATOM     11  C   UNL     1       8.547  -0.348  25.043  0.00  0.00    +0.009 A 
ATOM     12  C   UNL     1       9.429  -0.366  23.955  0.00  0.00    -0.015 A 
ATOM     13  C   UNL     1       9.930  -1.603  23.531  0.00  0.00    +0.009 A 
ATOM     14  C   UNL     1       9.589  -2.788  24.193  0.00  0.00    +0.005 A 
BRANCH  12  15
ATOM     15  C   UNL     1       9.857   0.862  23.307  0.00  0.00    +0.019 A 
ATOM     16  C   UNL     1      10.401   2.049  23.856  0.00  0.00    +0.142 A 
ATOM     17  N   UNL     1      10.654   2.982  22.934  0.00  0.00    -0.182 NA
ATOM     18  N   UNL     1      10.271   2.399  21.788  0.00  0.00    -0.284 N 
ATOM     19  H   UNL     1      10.365   2.927  20.925  0.00  0.00    +0.188 HD
ATOM     20  C   UNL     1       9.788   1.132  21.956  0.00  0.00    +0.113 A 
ENDBRANCH  12  15
ENDBRANCH   1   9
BRANCH   1  21
ATOM     21  C   UNL     1       9.672  -4.967  26.269  0.00  0.00    +0.090 C 
BRANCH  21  22
ATOM     22  N   UNL     1       9.823  -5.967  25.205  0.00  0.00    -0.329 NA
ATOM     23  H   UNL     1      10.773  -6.335  25.226  0.00  0.00    +0.118 HD
ATOM     24  H   UNL     1       9.214  -6.760  25.415  0.00  0.00    +0.118 HD
ENDBRANCH  21  22
ENDBRANCH   1  21
TORSDOF 5
ENDMDL
MODEL 2
REMARK VINA RESULT:      -6.7      2.063      2.656
REMARK  Name = 
REMARK  5 active torsions:
REMARK  status: ('A' for Active; 'I' for Inactive)
REMARK    1  A    between atoms: C_2  and  C_3
REMARK    2  A    between atoms: C_2  and  C_5
REMARK    3  A    between atoms: C_2  and  C_12
REMARK    4  A    between atoms: C_3  and  N_4
REMARK    5  A    between atoms: C_15  and  C_18
REMARK                            x       y       z     vdW  Elec       q    Type
REMARK                         _______ _______ _______ _____ _____    ______ ____
ROOT
ATOM      1  C   UNL     1       7.635  -4.626  23.675  0.00  0.00    +0.062 C 
ENDROOT
BRANCH   1   2
ATOM      2  C   UNL     1       7.070  -4.771  25.092  0.00  0.00    -0.039 A 
ATOM      3  C   UNL     1       7.787  -5.378  26.137  0.00  0.00    +0.006 A 
ATOM      4  C   UNL     1       7.252  -5.461  27.426  0.00  0.00    +0.020 A 
ATOM      5  C   UNL     1       5.985  -4.948  27.685  0.00  0.00    +0.041 A 
ATOM      6 CL   UNL     1       5.335  -5.042  29.274  0.00  0.00    -0.084 Cl
ATOM      7  C   UNL     1       5.246  -4.362  26.662  0.00  0.00    +0.020 A 
ATOM      8  C   UNL     1       5.783  -4.277  25.374  0.00  0.00    +0.006 A 
ENDBRANCH   1   2
BRANCH   1   9
ATOM      9  C   UNL     1       8.283  -3.263  23.441  0.00  0.00    -0.039 A 
ATOM     10  C   UNL     1       7.652  -2.324  22.608  0.00  0.00    +0.005 A 
ATOM     11  C   UNL     1       8.178  -1.034  22.444  0.00  0.00    +0.009 A 
ATOM     12  C   UNL     1       9.348  -0.650  23.108  0.00  0.00    -0.015 A 
ATOM     13  C   UNL     1       9.999  -1.600  23.906  0.00  0.00    +0.009 A 
ATOM     14  C   UNL     1       9.478  -2.890  24.065  0.00  0.00    +0.005 A 
BRANCH  12  15
ATOM     15  C   UNL     1       9.859   0.708  23.019  0.00  0.00    +0.019 A 
ATOM     16  C   UNL     1      10.417   1.546  24.014  0.00  0.00    +0.142 A 
ATOM     17  N   UNL     1      10.756   2.753  23.551  0.00  0.00    -0.182 NA
ATOM     18  N   UNL     1      10.413   2.695  22.255  0.00  0.00    -0.284 N 
ATOM     19  H   UNL     1      10.574   3.516  21.679  0.00  0.00    +0.188 HD
ATOM     20  C   UNL     1       9.873   1.496  21.886  0.00  0.00    +0.113 A 
ENDBRANCH  12  15
ENDBRANCH   1   9
BRANCH   1  21
ATOM     21  C   UNL     1       6.606  -5.005  22.565  0.00  0.00    +0.090 C 
BRANCH  21  22
ATOM     22  N   UNL     1       7.152  -5.813  21.468  0.00  0.00    -0.329 NA
ATOM     23  H   UNL     1       7.040  -5.303  20.592  0.00  0.00    +0.118 HD
ATOM     24  H   UNL     1       8.159  -5.911  21.606  0.00  0.00    +0.118 HD
ENDBRANCH  21  22
ENDBRANCH   1  21
TORSDOF 5
ENDMDL
MODEL 3
REMARK VINA RESULT:      -6.6      4.002      7.502
REMARK  Name = 
REMARK  5 active torsions:
REMARK  status: ('A' for Active; 'I' for Inactive)
REMARK    1  A    between atoms: C_2  and  C_3
REMARK    2  A    between atoms: C_2  and  C_5
REMARK    3  A    between atoms: C_2  and  C_12
REMARK    4  A    between atoms: C_3  and  N_4
REMARK    5  A    between atoms: C_15  and  C_18
REMARK                            x       y       z     vdW  Elec       q    Type
REMARK                         _______ _______ _______ _____ _____    ______ ____
ROOT
ATOM      1  C   UNL     1       8.765  -3.814  23.887  0.00  0.00    +0.062 C 
ENDROOT
BRANCH   1   2
ATOM      2  C   UNL     1       9.121  -2.387  23.457  0.00  0.00    -0.039 A 
ATOM      3  C   UNL     1       9.709  -1.455  24.330  0.00  0.00    +0.006 A 
ATOM      4  C   UNL     1      10.051  -0.173  23.890  0.00  0.00    +0.020 A 
ATOM      5  C   UNL     1       9.799   0.200  22.574  0.00  0.00    +0.041 A 
ATOM      6 CL   UNL     1      10.233   1.774  22.035  0.00  0.00    -0.084 Cl
ATOM      7  C   UNL     1       9.198  -0.698  21.697  0.00  0.00    +0.020 A 
ATOM      8  C   UNL     1       8.858  -1.981  22.136  0.00  0.00    +0.006 A 
ENDBRANCH   1   2
BRANCH   1   9
ATOM      9  C   UNL     1       7.273  -4.110  23.754  0.00  0.00    -0.039 A 
ATOM     10  C   UNL     1       6.839  -5.157  22.923  0.00  0.00    +0.005 A 
ATOM     11  C   UNL     1       5.485  -5.508  22.850  0.00  0.00    +0.009 A 
ATOM     12  C   UNL     1       4.526  -4.821  23.604  0.00  0.00    -0.015 A 
ATOM     13  C   UNL     1       4.954  -3.752  24.401  0.00  0.00    +0.009 A 
ATOM     14  C   UNL     1       6.306  -3.396  24.471  0.00  0.00    +0.005 A 
BRANCH  12  15
ATOM     15  C   UNL     1       3.131  -5.228  23.607  0.00  0.00    +0.019 A 
ATOM     16  C   UNL     1       2.483  -6.292  22.934  0.00  0.00    +0.142 A 
ATOM     17  N   UNL     1       1.168  -6.334  23.169  0.00  0.00    -0.182 NA
ATOM     18  N   UNL     1       0.966  -5.295  23.992  0.00  0.00    -0.284 N 
ATOM     19  H   UNL     1       0.019  -5.115  24.314  0.00  0.00    +0.188 HD
ATOM     20  C   UNL     1       2.106  -4.601  24.285  0.00  0.00    +0.113 A 
ENDBRANCH  12  15
ENDBRANCH   1   9
BRANCH   1  21
ATOM     21  C   UNL     1       9.333  -4.188  25.292  0.00  0.00    +0.090 C 
BRANCH  21  22
ATOM     22  N   UNL     1      10.102  -5.436  25.334  0.00  0.00    -0.329 NA
ATOM     23  H   UNL     1      10.411  -5.669  24.391  0.00  0.00    +0.118 HD
ATOM     24  H   UNL     1      10.955  -5.276  25.873  0.00  0.00    +0.118 HD
ENDBRANCH  21  22
ENDBRANCH   1  21
TORSDOF 5
ENDMDL
MODEL 4
REMARK VINA RESULT:      -6.5      2.415      3.222
REMARK  Name = 
REMARK  5 active torsions:
REMARK  status: ('A' for Active; 'I' for Inactive)
REMARK    1  A    between atoms: C_2  and  C_3
REMARK    2  A    between atoms: C_2  and  C_5
REMARK    3  A    between atoms: C_2  and  C_12
REMARK    4  A    between atoms: C_3  and  N_4
REMARK    5  A    between atoms: C_15  and  C_18
REMARK                            x       y       z     vdW  Elec       q    Type
REMARK                         _______ _______ _______ _____ _____    ______ ____
ROOT
ATOM      1  C   UNL     1       6.606  -4.955  23.436  0.00  0.00    +0.062 C 
ENDROOT
BRANCH   1   2
ATOM      2  C   UNL     1       6.461  -5.323  24.917  0.00  0.00    -0.039 A 
ATOM      3  C   UNL     1       7.430  -4.993  25.879  0.00  0.00    +0.006 A 
ATOM      4  C   UNL     1       7.246  -5.314  27.227  0.00  0.00    +0.020 A 
ATOM      5  C   UNL     1       6.095  -5.982  27.631  0.00  0.00    +0.041 A 
ATOM      6 CL   UNL     1       5.867  -6.365  29.291  0.00  0.00    -0.084 Cl
ATOM      7  C   UNL     1       5.130  -6.339  26.693  0.00  0.00    +0.020 A 
ATOM      8  C   UNL     1       5.313  -6.015  25.345  0.00  0.00    +0.006 A 
ENDBRANCH   1   2
BRANCH   1   9
ATOM      9  C   UNL     1       7.061  -3.512  23.234  0.00  0.00    -0.039 A 
ATOM     10  C   UNL     1       8.315  -3.249  22.658  0.00  0.00    +0.005 A 
ATOM     11  C   UNL     1       8.722  -1.937  22.379  0.00  0.00    +0.009 A 
ATOM     12  C   UNL     1       7.887  -0.852  22.670  0.00  0.00    -0.015 A 
ATOM     13  C   UNL     1       6.654  -1.112  23.281  0.00  0.00    +0.009 A 
ATOM     14  C   UNL     1       6.249  -2.422  23.566  0.00  0.00    +0.005 A 
BRANCH  12  15
ATOM     15  C   UNL     1       8.256   0.506  22.308  0.00  0.00    +0.019 A 
ATOM     16  C   UNL     1       7.513   1.709  22.379  0.00  0.00    +0.142 A 
ATOM     17  N   UNL     1       8.191   2.769  21.929  0.00  0.00    -0.182 NA
ATOM     18  N   UNL     1       9.373   2.249  21.563  0.00  0.00    -0.284 N 
ATOM     19  H   UNL     1      10.073   2.875  21.176  0.00  0.00    +0.188 HD
ATOM     20  C   UNL     1       9.463   0.902  21.769  0.00  0.00    +0.113 A 
ENDBRANCH  12  15
ENDBRANCH   1   9
BRANCH   1  21
ATOM     21  C   UNL     1       5.344  -5.315  22.592  0.00  0.00    +0.090 C 
BRANCH  21  22
ATOM     22  N   UNL     1       5.554  -6.363  21.586  0.00  0.00    -0.329 NA
ATOM     23  H   UNL     1       5.277  -7.262  21.980  0.00  0.00    +0.118 HD
ATOM     24  H   UNL     1       4.919  -6.196  20.803  0.00  0.00    +0.118 HD
ENDBRANCH  21  22
ENDBRANCH   1  21
TORSDOF 5
ENDMDL
MODEL 5
REMARK VINA RESULT:      -6.4      2.330      2.985
REMARK  Name = 
REMARK  5 active torsions:
REMARK  status: ('A' for Active; 'I' for Inactive)
REMARK    1  A    between atoms: C_2  and  C_3
REMARK    2  A    between atoms: C_2  and  C_5
REMARK    3  A    between atoms: C_2  and  C_12
REMARK    4  A    between atoms: C_3  and  N_4
REMARK    5  A    between atoms: C_15  and  C_18
REMARK                            x       y       z     vdW  Elec       q    Type
REMARK                         _______ _______ _______ _____ _____    ______ ____
ROOT
ATOM      1  C   UNL     1       7.300  -3.774  22.545  0.00  0.00    +0.062 C 
ENDROOT
BRANCH   1   2
ATOM      2  C   UNL     1       7.169  -4.374  23.949  0.00  0.00    -0.039 A 
ATOM      3  C   UNL     1       8.282  -4.676  24.752  0.00  0.00    +0.006 A 
ATOM      4  C   UNL     1       8.122  -5.190  26.042  0.00  0.00    +0.020 A 
ATOM      5  C   UNL     1       6.845  -5.421  26.543  0.00  0.00    +0.041 A 
ATOM      6 CL   UNL     1       6.652  -6.042  28.135  0.00  0.00    -0.084 Cl
ATOM      7  C   UNL     1       5.728  -5.150  25.759  0.00  0.00    +0.020 A 
ATOM      8  C   UNL     1       5.889  -4.634  24.469  0.00  0.00    +0.006 A 
ENDBRANCH   1   2
BRANCH   1   9
ATOM      9  C   UNL     1       7.761  -2.318  22.571  0.00  0.00    -0.039 A 
ATOM     10  C   UNL     1       6.896  -1.320  23.052  0.00  0.00    +0.005 A 
ATOM     11  C   UNL     1       7.322   0.010  23.171  0.00  0.00    +0.009 A 
ATOM     12  C   UNL     1       8.623   0.379  22.810  0.00  0.00    -0.015 A 
ATOM     13  C   UNL     1       9.471  -0.608  22.292  0.00  0.00    +0.009 A 
ATOM     14  C   UNL     1       9.045  -1.936  22.168  0.00  0.00    +0.005 A 
BRANCH  12  15
ATOM     15  C   UNL     1       9.108   1.735  23.008  0.00  0.00    +0.019 A 
ATOM     16  C   UNL     1       8.488   2.852  23.616  0.00  0.00    +0.142 A 
ATOM     17  N   UNL     1       9.248   3.951  23.589  0.00  0.00    -0.182 NA
ATOM     18  N   UNL     1      10.361   3.542  22.960  0.00  0.00    -0.284 N 
ATOM     19  H   UNL     1      11.104   4.219  22.813  0.00  0.00    +0.188 HD
ATOM     20  C   UNL     1      10.328   2.227  22.592  0.00  0.00    +0.113 A 
ENDBRANCH  12  15
ENDBRANCH   1   9
BRANCH   1  21
ATOM     21  C   UNL     1       6.028  -3.990  21.667  0.00  0.00    +0.090 C 
BRANCH  21  22
ATOM     22  N   UNL     1       6.015  -5.240  20.898  0.00  0.00    -0.329 NA
ATOM     23  H   UNL     1       6.689  -5.170  20.137  0.00  0.00    +0.118 HD
ATOM     24  H   UNL     1       6.351  -5.995  21.498  0.00  0.00    +0.118 HD
ENDBRANCH  21  22
ENDBRANCH   1  21
TORSDOF 5
ENDMDL
MODEL 6
REMARK VINA RESULT:      -6.4      3.616      7.839
REMARK  Name = 
REMARK  5 active torsions:
REMARK  status: ('A' for Active; 'I' for Inactive)
REMARK    1  A    between atoms: C_2  and  C_3
REMARK    2  A    between atoms: C_2  and  C_5
REMARK    3  A    between atoms: C_2  and  C_12
REMARK    4  A    between atoms: C_3  and  N_4
REMARK    5  A    between atoms: C_15  and  C_18
REMARK                            x       y       z     vdW  Elec       q    Type
REMARK                         _______ _______ _______ _____ _____    ______ ____
ROOT
ATOM      1  C   UNL     1       9.987   2.597  22.826  0.00  0.00    +0.062 C 
ENDROOT
BRANCH   1   2
ATOM      2  C   UNL     1       8.709   3.378  23.150  0.00  0.00    -0.039 A 
ATOM      3  C   UNL     1       8.587   4.197  24.285  0.00  0.00    +0.006 A 
ATOM      4  C   UNL     1       7.416   4.922  24.528  0.00  0.00    +0.020 A 
ATOM      5  C   UNL     1       6.345   4.827  23.645  0.00  0.00    +0.041 A 
ATOM      6 CL   UNL     1       4.911   5.728  23.942  0.00  0.00    -0.084 Cl
ATOM      7  C   UNL     1       6.434   4.005  22.526  0.00  0.00    +0.020 A 
ATOM      8  C   UNL     1       7.606   3.282  22.282  0.00  0.00    +0.006 A 
ENDBRANCH   1   2
BRANCH   1   9
ATOM      9  C   UNL     1       9.840   1.099  23.087  0.00  0.00    -0.039 A 
ATOM     10  C   UNL     1       9.778   0.623  24.407  0.00  0.00    +0.005 A 
ATOM     11  C   UNL     1       9.555  -0.734  24.677  0.00  0.00    +0.009 A 
ATOM     12  C   UNL     1       9.389  -1.652  23.633  0.00  0.00    -0.015 A 
ATOM     13  C   UNL     1       9.491  -1.183  22.317  0.00  0.00    +0.009 A 
ATOM     14  C   UNL     1       9.720   0.171  22.047  0.00  0.00    +0.005 A 
BRANCH  12  15
ATOM     15  C   UNL     1       9.070  -3.046  23.894  0.00  0.00    +0.019 A 
ATOM     16  C   UNL     1       9.712  -3.995  24.726  0.00  0.00    +0.142 A 
ATOM     17  N   UNL     1       9.134  -5.198  24.689  0.00  0.00    -0.182 NA
ATOM     18  N   UNL     1       8.118  -5.028  23.829  0.00  0.00    -0.284 N 
ATOM     19  H   UNL     1       7.520  -5.825  23.629  0.00  0.00    +0.188 HD
ATOM     20  C   UNL     1       8.036  -3.761  23.325  0.00  0.00    +0.113 A 
ENDBRANCH  12  15
ENDBRANCH   1   9
BRANCH   1  21
ATOM     21  C   UNL     1      11.259   3.205  23.494  0.00  0.00    +0.090 C 
BRANCH  21  22
ATOM     22  N   UNL     1      11.810   4.382  22.814  0.00  0.00    -0.329 NA
ATOM     23  H   UNL     1      12.642   4.107  22.292  0.00  0.00    +0.118 HD
ATOM     24  H   UNL     1      11.137   4.700  22.115  0.00  0.00    +0.118 HD
ENDBRANCH  21  22
ENDBRANCH   1  21
TORSDOF 5
ENDMDL
MODEL 7
REMARK VINA RESULT:      -6.3      3.592      7.719
REMARK  Name = 
REMARK  5 active torsions:
REMARK  status: ('A' for Active; 'I' for Inactive)
REMARK    1  A    between atoms: C_2  and  C_3
REMARK    2  A    between atoms: C_2  and  C_5
REMARK    3  A    between atoms: C_2  and  C_12
REMARK    4  A    between atoms: C_3  and  N_4
REMARK    5  A    between atoms: C_15  and  C_18
REMARK                            x       y       z     vdW  Elec       q    Type
REMARK                         _______ _______ _______ _____ _____    ______ ____
ROOT
ATOM      1  C   UNL     1       8.369   0.672  22.495  0.00  0.00    +0.062 C 
ENDROOT
BRANCH   1   2
ATOM      2  C   UNL     1       7.930   1.885  23.323  0.00  0.00    -0.039 A 
ATOM      3  C   UNL     1       8.482   2.185  24.581  0.00  0.00    +0.006 A 
ATOM      4  C   UNL     1       8.081   3.320  25.291  0.00  0.00    +0.020 A 
ATOM      5  C   UNL     1       7.113   4.165  24.759  0.00  0.00    +0.041 A 
ATOM      6 CL   UNL     1       6.631   5.567  25.632  0.00  0.00    -0.084 Cl
ATOM      7  C   UNL     1       6.536   3.878  23.526  0.00  0.00    +0.020 A 
ATOM      8  C   UNL     1       6.939   2.743  22.815  0.00  0.00    +0.006 A 
ENDBRANCH   1   2
BRANCH   1   9
ATOM      9  C   UNL     1       8.151  -0.648  23.231  0.00  0.00    -0.039 A 
ATOM     10  C   UNL     1       9.245  -1.487  23.499  0.00  0.00    +0.005 A 
ATOM     11  C   UNL     1       9.090  -2.661  24.249  0.00  0.00    +0.009 A 
ATOM     12  C   UNL     1       7.836  -3.029  24.750  0.00  0.00    -0.015 A 
ATOM     13  C   UNL     1       6.738  -2.213  24.447  0.00  0.00    +0.009 A 
ATOM     14  C   UNL     1       6.891  -1.043  23.693  0.00  0.00    +0.005 A 
BRANCH  12  15
ATOM     15  C   UNL     1       7.672  -4.195  25.602  0.00  0.00    +0.019 A 
ATOM     16  C   UNL     1       6.577  -5.082  25.743  0.00  0.00    +0.142 A 
ATOM     17  N   UNL     1       6.793  -6.035  26.654  0.00  0.00    -0.182 NA
ATOM     18  N   UNL     1       8.028  -5.762  27.103  0.00  0.00    -0.284 N 
ATOM     19  H   UNL     1       8.419  -6.362  27.823  0.00  0.00    +0.188 HD
ATOM     20  C   UNL     1       8.596  -4.673  26.507  0.00  0.00    +0.113 A 
ENDBRANCH  12  15
ENDBRANCH   1   9
BRANCH   1  21
ATOM     21  C   UNL     1       9.813   0.814  21.922  0.00  0.00    +0.090 C 
BRANCH  21  22
ATOM     22  N   UNL     1      10.217   2.187  21.600  0.00  0.00    -0.329 NA
ATOM     23  H   UNL     1      10.226   2.741  22.456  0.00  0.00    +0.118 HD
ATOM     24  H   UNL     1      11.182   2.175  21.267  0.00  0.00    +0.118 HD
ENDBRANCH  21  22
ENDBRANCH   1  21
TORSDOF 5
ENDMDL
MODEL 8
REMARK VINA RESULT:      -6.2      3.784      7.625
REMARK  Name = 
REMARK  5 active torsions:
REMARK  status: ('A' for Active; 'I' for Inactive)
REMARK    1  A    between atoms: C_2  and  C_3
REMARK    2  A    between atoms: C_2  and  C_5
REMARK    3  A    between atoms: C_2  and  C_12
REMARK    4  A    between atoms: C_3  and  N_4
REMARK    5  A    between atoms: C_15  and  C_18
REMARK                            x       y       z     vdW  Elec       q    Type
REMARK                         _______ _______ _______ _____ _____    ______ ____
ROOT
ATOM      1  C   UNL     1       8.906  -2.012  22.535  0.00  0.00    +0.062 C 
ENDROOT
BRANCH   1   2
ATOM      2  C   UNL     1       8.291  -0.612  22.434  0.00  0.00    -0.039 A 
ATOM      3  C   UNL     1       7.164  -0.223  23.178  0.00  0.00    +0.006 A 
ATOM      4  C   UNL     1       6.653   1.075  23.085  0.00  0.00    +0.020 A 
ATOM      5  C   UNL     1       7.254   1.998  22.236  0.00  0.00    +0.041 A 
ATOM      6 CL   UNL     1       6.628   3.597  22.133  0.00  0.00    -0.084 Cl
ATOM      7  C   UNL     1       8.357   1.630  21.472  0.00  0.00    +0.020 A 
ATOM      8  C   UNL     1       8.870   0.332  21.568  0.00  0.00    +0.006 A 
ENDBRANCH   1   2
BRANCH   1   9
ATOM      9  C   UNL     1       7.855  -3.099  22.750  0.00  0.00    -0.039 A 
ATOM     10  C   UNL     1       8.004  -4.018  23.802  0.00  0.00    +0.005 A 
ATOM     11  C   UNL     1       7.012  -4.969  24.077  0.00  0.00    +0.009 A 
ATOM     12  C   UNL     1       5.845  -5.029  23.307  0.00  0.00    -0.015 A 
ATOM     13  C   UNL     1       5.716  -4.140  22.232  0.00  0.00    +0.009 A 
ATOM     14  C   UNL     1       6.708  -3.193  21.953  0.00  0.00    +0.005 A 
BRANCH  12  15
ATOM     15  C   UNL     1       4.769  -5.951  23.632  0.00  0.00    +0.019 A 
ATOM     16  C   UNL     1       4.683  -6.944  24.637  0.00  0.00    +0.142 A 
ATOM     17  N   UNL     1       3.528  -7.615  24.610  0.00  0.00    -0.182 NA
ATOM     18  N   UNL     1       2.868  -7.057  23.583  0.00  0.00    -0.284 N 
ATOM     19  H   UNL     1       1.944  -7.411  23.358  0.00  0.00    +0.188 HD
ATOM     20  C   UNL     1       3.566  -6.058  22.965  0.00  0.00    +0.113 A 
ENDBRANCH  12  15
ENDBRANCH   1   9
BRANCH   1  21
ATOM     21  C   UNL     1      10.077  -2.092  23.564  0.00  0.00    +0.090 C 
BRANCH  21  22
ATOM     22  N   UNL     1      10.038  -1.076  24.622  0.00  0.00    -0.329 NA
ATOM     23  H   UNL     1       9.667  -1.495  25.474  0.00  0.00    +0.118 HD
ATOM     24  H   UNL     1      10.997  -0.799  24.844  0.00  0.00    +0.118 HD
ENDBRANCH  21  22
ENDBRANCH   1  21
TORSDOF 5
ENDMDL
MODEL 9
REMARK VINA RESULT:      -6.2      3.697      7.714
REMARK  Name = 
REMARK  5 active torsions:
REMARK  status: ('A' for Active; 'I' for Inactive)
REMARK    1  A    between atoms: C_2  and  C_3
REMARK    2  A    between atoms: C_2  and  C_5
REMARK    3  A    between atoms: C_2  and  C_12
REMARK    4  A    between atoms: C_3  and  N_4
REMARK    5  A    between atoms: C_15  and  C_18
REMARK                            x       y       z     vdW  Elec       q    Type
REMARK                         _______ _______ _______ _____ _____    ______ ____
ROOT
ATOM      1  C   UNL     1       8.509   0.224  22.609  0.00  0.00    +0.062 C 
ENDROOT
BRANCH   1   2
ATOM      2  C   UNL     1       8.581   1.585  23.310  0.00  0.00    -0.039 A 
ATOM      3  C   UNL     1       7.526   2.095  24.087  0.00  0.00    +0.006 A 
ATOM      4  C   UNL     1       7.642   3.325  24.740  0.00  0.00    +0.020 A 
ATOM      5  C   UNL     1       8.810   4.070  24.615  0.00  0.00    +0.041 A 
ATOM      6 CL   UNL     1       8.952   5.578  25.430  0.00  0.00    -0.084 Cl
ATOM      7  C   UNL     1       9.860   3.597  23.834  0.00  0.00    +0.020 A 
ATOM      8  C   UNL     1       9.745   2.365  23.183  0.00  0.00    +0.006 A 
ENDBRANCH   1   2
BRANCH   1   9
ATOM      9  C   UNL     1       8.122  -0.905  23.562  0.00  0.00    -0.039 A 
ATOM     10  C   UNL     1       6.957  -1.652  23.324  0.00  0.00    +0.005 A 
ATOM     11  C   UNL     1       6.624  -2.749  24.129  0.00  0.00    +0.009 A 
ATOM     12  C   UNL     1       7.446  -3.129  25.196  0.00  0.00    -0.015 A 
ATOM     13  C   UNL     1       8.587  -2.359  25.458  0.00  0.00    +0.009 A 
ATOM     14  C   UNL     1       8.917  -1.259  24.658  0.00  0.00    +0.005 A 
BRANCH  12  15
ATOM     15  C   UNL     1       7.163  -4.315  25.987  0.00  0.00    +0.019 A 
ATOM     16  C   UNL     1       7.877  -4.893  27.064  0.00  0.00    +0.142 A 
ATOM     17  N   UNL     1       7.309  -6.009  27.528  0.00  0.00    -0.182 NA
ATOM     18  N   UNL     1       6.227  -6.154  26.748  0.00  0.00    -0.284 N 
ATOM     19  H   UNL     1       5.623  -6.955  26.910  0.00  0.00    +0.188 HD
ATOM     20  C   UNL     1       6.094  -5.169  25.812  0.00  0.00    +0.113 A 
ENDBRANCH  12  15
ENDBRANCH   1   9
BRANCH   1  21
ATOM     21  C   UNL     1       9.787  -0.100  21.775  0.00  0.00    +0.090 C 
BRANCH  21  22
ATOM     22  N   UNL     1       9.920  -1.505  21.371  0.00  0.00    -0.329 NA
ATOM     23  H   UNL     1       9.121  -1.763  20.793  0.00  0.00    +0.118 HD
ATOM     24  H   UNL     1      10.739  -1.596  20.768  0.00  0.00    +0.118 HD
ENDBRANCH  21  22
ENDBRANCH   1  21
TORSDOF 5
ENDMDL
