MODEL 1
REMARK VINA RESULT:      -6.4      0.000      0.000
REMARK  Name = 
REMARK  15 active torsions:
REMARK  status: ('A' for Active; 'I' for Inactive)
REMARK    1  A    between atoms: C_1  and  C_2
REMARK    2  A    between atoms: C_7  and  C_8
REMARK    3  A    between atoms: N_9  and  S_35
REMARK    4  A    between atoms: N_18  and  C_19
REMARK    5  A    between atoms: C_19  and  C_20
REMARK    6  A    between atoms: C_20  and  O_22
REMARK    7  A    between atoms: C_20  and  C_23
REMARK    8  A    between atoms: C_23  and  O_25
REMARK    9  A    between atoms: C_23  and  C_26
REMARK   10  A    between atoms: C_26  and  O_28
REMARK   11  A    between atoms: C_26  and  C_29
REMARK   12  A    between atoms: C_29  and  O_30
REMARK   13  A    between atoms: O_30  and  P_31
REMARK   14  A    between atoms: P_31  and  O_32
REMARK   15  A    between atoms: P_31  and  O_33
REMARK                            x       y       z     vdW  Elec       q    Type
REMARK                         _______ _______ _______ _____ _____    ______ ____
ROOT
ATOM      1  C   UNL     1       5.706   1.526  26.840  0.00  0.00    +0.044 C 
ATOM      2  C   UNL     1       5.307   0.152  26.366  0.00  0.00    -0.045 A 
ATOM      3  C   UNL     1       4.413  -0.625  27.105  0.00  0.00    -0.041 A 
ATOM      4  C   UNL     1       3.874  -0.163  28.438  0.00  0.00    +0.044 C 
ATOM      5  C   UNL     1       4.035  -1.880  26.608  0.00  0.00    +0.086 A 
ATOM      6  C   UNL     1       4.574  -2.425  25.417  0.00  0.00    +0.262 A 
ATOM      7  N   UNL     1       4.183  -3.722  24.914  0.00  0.00    -0.033 N 
ATOM      8  C   UNL     1       4.607  -4.111  23.759  0.00  0.00    +0.344 A 
ATOM      9  C   UNL     1       5.738  -3.420  23.070  0.00  0.00    +0.220 A 
ATOM     10  N   UNL     1       6.092  -2.154  23.491  0.00  0.00    -0.312 N 
ATOM     11  N   UNL     1       6.344  -4.040  22.104  0.00  0.00    -0.169 NA
ATOM     12  C   UNL     1       5.979  -5.284  21.660  0.00  0.00    +0.351 A 
ATOM     13  O   UNL     1       6.450  -5.754  20.633  0.00  0.00    -0.245 OA
ATOM     14  N   UNL     1       5.015  -5.968  22.338  0.00  0.00    -0.268 N 
ATOM     15  H   UNL     1       4.693  -6.760  21.790  0.00  0.00    +0.174 HD
ATOM     16  C   UNL     1       4.054  -5.244  22.958  0.00  0.00    +0.330 A 
ATOM     17  O   UNL     1       2.848  -5.321  22.820  0.00  0.00    -0.260 OA
ATOM     18  C   UNL     1       5.510  -1.641  24.672  0.00  0.00    +0.119 A 
ATOM     19  C   UNL     1       5.821  -0.353  25.156  0.00  0.00    +0.036 A 
ENDROOT
BRANCH   7  20
ATOM     20  S   UNL     1       3.117  -4.706  25.831  0.00  0.00    +0.136 S 
ATOM     21  O   UNL     1       3.402  -6.060  25.406  0.00  0.00    -0.123 OA
ATOM     22  O   UNL     1       1.837  -4.124  25.446  0.00  0.00    -0.123 OA
ATOM     23  O   UNL     1       3.554  -4.413  27.193  0.00  0.00    -0.670 OA
ENDBRANCH   7  20
BRANCH  10  24
ATOM     24  C   UNL     1       7.222  -1.467  22.774  0.00  0.00    +0.158 C 
BRANCH  24  25
ATOM     25  C   UNL     1       8.475  -2.381  22.682  0.00  0.00    +0.165 C 
BRANCH  25  26
ATOM     26  O   UNL     1       9.269  -2.049  21.531  0.00  0.00    -0.387 OA
ATOM     27  H   UNL     1       9.869  -1.322  21.789  0.00  0.00    +0.210 HD
ENDBRANCH  25  26
BRANCH  25  28
ATOM     28  C   UNL     1       9.359  -2.459  23.964  0.00  0.00    +0.175 C 
BRANCH  28  29
ATOM     29  O   UNL     1       9.106  -1.314  24.791  0.00  0.00    -0.387 OA
ATOM     30  H   UNL     1       9.927  -0.801  24.885  0.00  0.00    +0.210 HD
ENDBRANCH  28  29
BRANCH  28  31
ATOM     31  C   UNL     1       9.270  -3.708  24.875  0.00  0.00    +0.172 C 
BRANCH  31  32
ATOM     32  O   UNL     1       8.756  -4.818  24.129  0.00  0.00    -0.387 OA
ATOM     33  H   UNL     1       9.447  -5.013  23.465  0.00  0.00    +0.210 HD
ENDBRANCH  31  32
BRANCH  31  34
ATOM     34  C   UNL     1       8.472  -3.548  26.181  0.00  0.00    +0.206 C 
BRANCH  34  35
ATOM     35  O   UNL     1       7.253  -4.309  26.086  0.00  0.00    -0.284 OA
BRANCH  35  36
ATOM     36  P   UNL     1       7.003  -5.362  27.436  0.00  0.00    +0.472 P 
ATOM     37  O   UNL     1       6.778  -6.303  28.645  0.00  0.00    -0.228 OA
BRANCH  36  38
ATOM     38  O   UNL     1       8.414  -6.024  26.947  0.00  0.00    -0.303 OA
ATOM     39  H   UNL     1       8.485  -5.832  25.992  0.00  0.00    +0.222 HD
ENDBRANCH  36  38
BRANCH  36  40
ATOM     40  O   UNL     1       6.109  -6.223  26.366  0.00  0.00    -0.303 OA
ATOM     41  H   UNL     1       6.367  -7.160  26.378  0.00  0.00    +0.222 HD
ENDBRANCH  36  40
ENDBRANCH  35  36
ENDBRANCH  34  35
ENDBRANCH  31  34
ENDBRANCH  28  31
ENDBRANCH  25  28
ENDBRANCH  24  25
ENDBRANCH  10  24
TORSDOF 13
ENDMDL
MODEL 2
REMARK VINA RESULT:      -6.4      2.962      5.660
REMARK  Name = 
REMARK  15 active torsions:
REMARK  status: ('A' for Active; 'I' for Inactive)
REMARK    1  A    between atoms: C_1  and  C_2
REMARK    2  A    between atoms: C_7  and  C_8
REMARK    3  A    between atoms: N_9  and  S_35
REMARK    4  A    between atoms: N_18  and  C_19
REMARK    5  A    between atoms: C_19  and  C_20
REMARK    6  A    between atoms: C_20  and  O_22
REMARK    7  A    between atoms: C_20  and  C_23
REMARK    8  A    between atoms: C_23  and  O_25
REMARK    9  A    between atoms: C_23  and  C_26
REMARK   10  A    between atoms: C_26  and  O_28
REMARK   11  A    between atoms: C_26  and  C_29
REMARK   12  A    between atoms: C_29  and  O_30
REMARK   13  A    between atoms: O_30  and  P_31
REMARK   14  A    between atoms: P_31  and  O_32
REMARK   15  A    between atoms: P_31  and  O_33
REMARK                            x       y       z     vdW  Elec       q    Type
REMARK                         _______ _______ _______ _____ _____    ______ ____
ROOT
ATOM      1  C   UNL     1       5.315   3.354  28.126  0.00  0.00    +0.044 C 
ATOM      2  C   UNL     1       6.167   2.787  27.020  0.00  0.00    -0.045 A 
ATOM      3  C   UNL     1       7.180   3.552  26.437  0.00  0.00    -0.041 A 
ATOM      4  C   UNL     1       7.412   4.992  26.829  0.00  0.00    +0.044 C 
ATOM      5  C   UNL     1       7.977   2.972  25.440  0.00  0.00    +0.086 A 
ATOM      6  C   UNL     1       7.757   1.663  24.949  0.00  0.00    +0.262 A 
ATOM      7  N   UNL     1       8.581   1.075  23.917  0.00  0.00    -0.033 N 
ATOM      8  C   UNL     1       8.416  -0.165  23.602  0.00  0.00    +0.344 A 
ATOM      9  C   UNL     1       7.201  -0.924  24.025  0.00  0.00    +0.220 A 
ATOM     10  N   UNL     1       6.430  -0.415  25.051  0.00  0.00    -0.312 N 
ATOM     11  N   UNL     1       6.918  -2.030  23.409  0.00  0.00    -0.169 NA
ATOM     12  C   UNL     1       7.694  -2.558  22.411  0.00  0.00    +0.351 A 
ATOM     13  O   UNL     1       7.498  -3.688  21.985  0.00  0.00    -0.245 OA
ATOM     14  N   UNL     1       8.751  -1.832  21.945  0.00  0.00    -0.268 N 
ATOM     15  H   UNL     1       9.356  -2.417  21.376  0.00  0.00    +0.174 HD
ATOM     16  C   UNL     1       9.371  -1.004  22.817  0.00  0.00    +0.330 A 
ATOM     17  O   UNL     1      10.549  -0.977  23.121  0.00  0.00    -0.260 OA
ATOM     18  C   UNL     1       6.703   0.888  25.526  0.00  0.00    +0.119 A 
ATOM     19  C   UNL     1       5.959   1.467  26.576  0.00  0.00    +0.036 A 
ENDROOT
BRANCH   7  20
ATOM     20  S   UNL     1       9.802   2.015  23.163  0.00  0.00    +0.136 S 
ATOM     21  O   UNL     1       9.907   1.482  21.821  0.00  0.00    -0.123 OA
ATOM     22  O   UNL     1      10.910   1.779  24.081  0.00  0.00    -0.123 OA
ATOM     23  O   UNL     1       9.215   3.351  23.220  0.00  0.00    -0.670 OA
ENDBRANCH   7  20
BRANCH  10  24
ATOM     24  C   UNL     1       5.220  -1.202  25.475  0.00  0.00    +0.158 C 
BRANCH  24  25
ATOM     25  C   UNL     1       5.588  -2.286  26.524  0.00  0.00    +0.165 C 
BRANCH  25  26
ATOM     26  O   UNL     1       5.166  -1.892  27.840  0.00  0.00    -0.387 OA
ATOM     27  H   UNL     1       4.702  -2.654  28.240  0.00  0.00    +0.210 HD
ENDBRANCH  25  26
BRANCH  25  28
ATOM     28  C   UNL     1       5.118  -3.737  26.201  0.00  0.00    +0.175 C 
BRANCH  28  29
ATOM     29  O   UNL     1       5.299  -3.999  24.802  0.00  0.00    -0.387 OA
ATOM     30  H   UNL     1       6.249  -3.971  24.593  0.00  0.00    +0.210 HD
ENDBRANCH  28  29
BRANCH  28  31
ATOM     31  C   UNL     1       5.738  -4.928  26.972  0.00  0.00    +0.172 C 
BRANCH  31  32
ATOM     32  O   UNL     1       6.146  -4.503  28.277  0.00  0.00    -0.387 OA
ATOM     33  H   UNL     1       6.380  -5.329  28.746  0.00  0.00    +0.210 HD
ENDBRANCH  31  32
BRANCH  31  34
ATOM     34  C   UNL     1       6.901  -5.662  26.280  0.00  0.00    +0.206 C 
BRANCH  34  35
ATOM     35  O   UNL     1       8.149  -5.120  26.752  0.00  0.00    -0.284 OA
BRANCH  35  36
ATOM     36  P   UNL     1       9.148  -4.507  25.480  0.00  0.00    +0.472 P 
ATOM     37  O   UNL     1      10.042  -3.958  24.341  0.00  0.00    -0.228 OA
BRANCH  36  38
ATOM     38  O   UNL     1       8.036  -5.216  24.515  0.00  0.00    -0.303 OA
ATOM     39  H   UNL     1       7.176  -5.094  24.961  0.00  0.00    +0.222 HD
ENDBRANCH  36  38
BRANCH  36  40
ATOM     40  O   UNL     1       9.982  -5.898  25.713  0.00  0.00    -0.303 OA
ATOM     41  H   UNL     1      10.901  -5.709  25.970  0.00  0.00    +0.222 HD
ENDBRANCH  36  40
ENDBRANCH  35  36
ENDBRANCH  34  35
ENDBRANCH  31  34
ENDBRANCH  28  31
ENDBRANCH  25  28
ENDBRANCH  24  25
ENDBRANCH  10  24
TORSDOF 13
ENDMDL
MODEL 3
REMARK VINA RESULT:      -6.4      4.141      6.908
REMARK  Name = 
REMARK  15 active torsions:
REMARK  status: ('A' for Active; 'I' for Inactive)
REMARK    1  A    between atoms: C_1  and  C_2
REMARK    2  A    between atoms: C_7  and  C_8
REMARK    3  A    between atoms: N_9  and  S_35
REMARK    4  A    between atoms: N_18  and  C_19
REMARK    5  A    between atoms: C_19  and  C_20
REMARK    6  A    between atoms: C_20  and  O_22
REMARK    7  A    between atoms: C_20  and  C_23
REMARK    8  A    between atoms: C_23  and  O_25
REMARK    9  A    between atoms: C_23  and  C_26
REMARK   10  A    between atoms: C_26  and  O_28
REMARK   11  A    between atoms: C_26  and  C_29
REMARK   12  A    between atoms: C_29  and  O_30
REMARK   13  A    between atoms: O_30  and  P_31
REMARK   14  A    between atoms: P_31  and  O_32
REMARK   15  A    between atoms: P_31  and  O_33
REMARK                            x       y       z     vdW  Elec       q    Type
REMARK                         _______ _______ _______ _____ _____    ______ ____
ROOT
ATOM      1  C   UNL     1       7.150  -5.839  21.783  0.00  0.00    +0.044 C 
ATOM      2  C   UNL     1       6.615  -4.747  22.673  0.00  0.00    -0.045 A 
ATOM      3  C   UNL     1       5.600  -5.013  23.594  0.00  0.00    -0.041 A 
ATOM      4  C   UNL     1       4.943  -6.369  23.683  0.00  0.00    +0.044 C 
ATOM      5  C   UNL     1       5.160  -3.979  24.433  0.00  0.00    +0.086 A 
ATOM      6  C   UNL     1       5.657  -2.656  24.342  0.00  0.00    +0.262 A 
ATOM      7  N   UNL     1       5.194  -1.595  25.208  0.00  0.00    -0.033 N 
ATOM      8  C   UNL     1       5.774  -0.443  25.168  0.00  0.00    +0.344 A 
ATOM      9  C   UNL     1       6.681  -0.064  24.043  0.00  0.00    +0.220 A 
ATOM     10  N   UNL     1       7.186  -1.066  23.237  0.00  0.00    -0.312 N 
ATOM     11  N   UNL     1       6.956   1.191  23.867  0.00  0.00    -0.169 NA
ATOM     12  C   UNL     1       6.483   2.188  24.680  0.00  0.00    +0.351 A 
ATOM     13  O   UNL     1       6.911   3.332  24.595  0.00  0.00    -0.245 OA
ATOM     14  N   UNL     1       5.578   1.873  25.650  0.00  0.00    -0.268 N 
ATOM     15  H   UNL     1       5.481   2.644  26.304  0.00  0.00    +0.174 HD
ATOM     16  C   UNL     1       5.652   0.636  26.193  0.00  0.00    +0.330 A 
ATOM     17  O   UNL     1       5.773   0.336  27.366  0.00  0.00    -0.260 OA
ATOM     18  C   UNL     1       6.678  -2.377  23.382  0.00  0.00    +0.119 A 
ATOM     19  C   UNL     1       7.154  -3.448  22.596  0.00  0.00    +0.036 A 
ENDROOT
BRANCH   7  20
ATOM     20  S   UNL     1       3.919  -1.895  26.316  0.00  0.00    +0.136 S 
ATOM     21  O   UNL     1       4.566  -2.447  27.488  0.00  0.00    -0.123 OA
ATOM     22  O   UNL     1       3.086  -2.782  25.514  0.00  0.00    -0.123 OA
ATOM     23  O   UNL     1       3.388  -0.549  26.518  0.00  0.00    -0.670 OA
ENDBRANCH   7  20
BRANCH  10  24
ATOM     24  C   UNL     1       8.112  -0.667  22.121  0.00  0.00    +0.158 C 
BRANCH  24  25
ATOM     25  C   UNL     1       9.588  -0.616  22.600  0.00  0.00    +0.165 C 
BRANCH  25  26
ATOM     26  O   UNL     1      10.384  -1.597  21.915  0.00  0.00    -0.387 OA
ATOM     27  H   UNL     1       9.997  -2.474  22.105  0.00  0.00    +0.210 HD
ENDBRANCH  25  26
BRANCH  25  28
ATOM     28  C   UNL     1      10.273   0.785  22.553  0.00  0.00    +0.175 C 
BRANCH  28  29
ATOM     29  O   UNL     1       9.494   1.672  21.738  0.00  0.00    -0.387 OA
ATOM     30  H   UNL     1       8.627   1.810  22.156  0.00  0.00    +0.210 HD
ENDBRANCH  28  29
BRANCH  28  31
ATOM     31  C   UNL     1      10.574   1.529  23.878  0.00  0.00    +0.172 C 
BRANCH  31  32
ATOM     32  O   UNL     1       9.901   0.880  24.964  0.00  0.00    -0.387 OA
ATOM     33  H   UNL     1       9.254   1.540  25.285  0.00  0.00    +0.210 HD
ENDBRANCH  31  32
BRANCH  31  34
ATOM     34  C   UNL     1      10.262   3.036  23.903  0.00  0.00    +0.206 C 
BRANCH  34  35
ATOM     35  O   UNL     1      11.111   3.709  22.954  0.00  0.00    -0.284 OA
BRANCH  35  36
ATOM     36  P   UNL     1      11.830   5.149  23.589  0.00  0.00    +0.472 P 
ATOM     37  O   UNL     1      12.473   6.438  24.157  0.00  0.00    -0.228 OA
BRANCH  36  38
ATOM     38  O   UNL     1      10.445   5.847  23.074  0.00  0.00    -0.303 OA
ATOM     39  H   UNL     1       9.794   5.124  22.989  0.00  0.00    +0.222 HD
ENDBRANCH  36  38
BRANCH  36  40
ATOM     40  O   UNL     1      12.538   5.227  22.114  0.00  0.00    -0.303 OA
ATOM     41  H   UNL     1      11.867   5.264  21.411  0.00  0.00    +0.222 HD
ENDBRANCH  36  40
ENDBRANCH  35  36
ENDBRANCH  34  35
ENDBRANCH  31  34
ENDBRANCH  28  31
ENDBRANCH  25  28
ENDBRANCH  24  25
ENDBRANCH  10  24
TORSDOF 13
ENDMDL
MODEL 4
REMARK VINA RESULT:      -6.3      4.384      6.160
REMARK  Name = 
REMARK  15 active torsions:
REMARK  status: ('A' for Active; 'I' for Inactive)
REMARK    1  A    between atoms: C_1  and  C_2
REMARK    2  A    between atoms: C_7  and  C_8
REMARK    3  A    between atoms: N_9  and  S_35
REMARK    4  A    between atoms: N_18  and  C_19
REMARK    5  A    between atoms: C_19  and  C_20
REMARK    6  A    between atoms: C_20  and  O_22
REMARK    7  A    between atoms: C_20  and  C_23
REMARK    8  A    between atoms: C_23  and  O_25
REMARK    9  A    between atoms: C_23  and  C_26
REMARK   10  A    between atoms: C_26  and  O_28
REMARK   11  A    between atoms: C_26  and  C_29
REMARK   12  A    between atoms: C_29  and  O_30
REMARK   13  A    between atoms: O_30  and  P_31
REMARK   14  A    between atoms: P_31  and  O_32
REMARK   15  A    between atoms: P_31  and  O_33
REMARK                            x       y       z     vdW  Elec       q    Type
REMARK                         _______ _______ _______ _____ _____    ______ ____
ROOT
ATOM      1  C   UNL     1      11.434   5.489  23.356  0.00  0.00    +0.044 C 
ATOM      2  C   UNL     1      10.227   4.886  24.028  0.00  0.00    -0.045 A 
ATOM      3  C   UNL     1       9.418   5.657  24.865  0.00  0.00    -0.041 A 
ATOM      4  C   UNL     1       9.757   7.091  25.196  0.00  0.00    +0.044 C 
ATOM      5  C   UNL     1       8.281   5.070  25.436  0.00  0.00    +0.086 A 
ATOM      6  C   UNL     1       7.952   3.705  25.255  0.00  0.00    +0.262 A 
ATOM      7  N   UNL     1       6.779   3.106  25.852  0.00  0.00    -0.033 N 
ATOM      8  C   UNL     1       6.459   1.894  25.547  0.00  0.00    +0.344 A 
ATOM      9  C   UNL     1       7.422   0.981  24.860  0.00  0.00    +0.220 A 
ATOM     10  N   UNL     1       8.518   1.534  24.229  0.00  0.00    -0.312 N 
ATOM     11  N   UNL     1       7.189  -0.295  24.887  0.00  0.00    -0.169 NA
ATOM     12  C   UNL     1       6.088  -0.849  25.485  0.00  0.00    +0.351 A 
ATOM     13  O   UNL     1       5.809  -2.031  25.330  0.00  0.00    -0.245 OA
ATOM     14  N   UNL     1       5.251  -0.043  26.198  0.00  0.00    -0.268 N 
ATOM     15  H   UNL     1       4.381  -0.528  26.399  0.00  0.00    +0.174 HD
ATOM     16  C   UNL     1       5.138   1.245  25.802  0.00  0.00    +0.330 A 
ATOM     17  O   UNL     1       4.128   1.854  25.503  0.00  0.00    -0.260 OA
ATOM     18  C   UNL     1       8.793   2.907  24.419  0.00  0.00    +0.119 A 
ATOM     19  C   UNL     1       9.893   3.537  23.798  0.00  0.00    +0.036 A 
ENDROOT
BRANCH   7  20
ATOM     20  S   UNL     1       5.799   4.029  26.915  0.00  0.00    +0.136 S 
ATOM     21  O   UNL     1       5.168   3.054  27.780  0.00  0.00    -0.123 OA
ATOM     22  O   UNL     1       4.961   4.728  25.949  0.00  0.00    -0.123 OA
ATOM     23  O   UNL     1       6.799   4.852  27.589  0.00  0.00    -0.670 OA
ENDBRANCH   7  20
BRANCH  10  24
ATOM     24  C   UNL     1       9.467   0.601  23.527  0.00  0.00    +0.158 C 
BRANCH  24  25
ATOM     25  C   UNL     1       8.859   0.063  22.203  0.00  0.00    +0.165 C 
BRANCH  25  26
ATOM     26  O   UNL     1       9.102   0.974  21.119  0.00  0.00    -0.387 OA
ATOM     27  H   UNL     1       9.168   1.872  21.499  0.00  0.00    +0.210 HD
ENDBRANCH  25  26
BRANCH  25  28
ATOM     28  C   UNL     1       9.262  -1.391  21.808  0.00  0.00    +0.175 C 
BRANCH  28  29
ATOM     29  O   UNL     1      10.688  -1.532  21.889  0.00  0.00    -0.387 OA
ATOM     30  H   UNL     1      10.985  -2.160  21.208  0.00  0.00    +0.210 HD
ENDBRANCH  28  29
BRANCH  28  31
ATOM     31  C   UNL     1       8.641  -2.587  22.571  0.00  0.00    +0.172 C 
BRANCH  31  32
ATOM     32  O   UNL     1       7.235  -2.376  22.746  0.00  0.00    -0.387 OA
ATOM     33  H   UNL     1       7.163  -1.470  23.109  0.00  0.00    +0.210 HD
ENDBRANCH  31  32
BRANCH  31  34
ATOM     34  C   UNL     1       9.283  -2.944  23.924  0.00  0.00    +0.206 C 
BRANCH  34  35
ATOM     35  O   UNL     1       9.095  -4.349  24.180  0.00  0.00    -0.284 OA
BRANCH  35  36
ATOM     36  P   UNL     1       8.491  -4.674  25.768  0.00  0.00    +0.472 P 
ATOM     37  O   UNL     1       7.951  -4.966  27.190  0.00  0.00    -0.228 OA
BRANCH  36  38
ATOM     38  O   UNL     1       7.034  -4.553  25.039  0.00  0.00    -0.303 OA
ATOM     39  H   UNL     1       6.454  -4.086  25.671  0.00  0.00    +0.222 HD
ENDBRANCH  36  38
BRANCH  36  40
ATOM     40  O   UNL     1       8.644  -3.054  25.960  0.00  0.00    -0.303 OA
ATOM     41  H   UNL     1       9.300  -2.850  26.648  0.00  0.00    +0.222 HD
ENDBRANCH  36  40
ENDBRANCH  35  36
ENDBRANCH  34  35
ENDBRANCH  31  34
ENDBRANCH  28  31
ENDBRANCH  25  28
ENDBRANCH  24  25
ENDBRANCH  10  24
TORSDOF 13
ENDMDL
MODEL 5
REMARK VINA RESULT:      -6.3      3.066      5.869
REMARK  Name = 
REMARK  15 active torsions:
REMARK  status: ('A' for Active; 'I' for Inactive)
REMARK    1  A    between atoms: C_1  and  C_2
REMARK    2  A    between atoms: C_7  and  C_8
REMARK    3  A    between atoms: N_9  and  S_35
REMARK    4  A    between atoms: N_18  and  C_19
REMARK    5  A    between atoms: C_19  and  C_20
REMARK    6  A    between atoms: C_20  and  O_22
REMARK    7  A    between atoms: C_20  and  C_23
REMARK    8  A    between atoms: C_23  and  O_25
REMARK    9  A    between atoms: C_23  and  C_26
REMARK   10  A    between atoms: C_26  and  O_28
REMARK   11  A    between atoms: C_26  and  C_29
REMARK   12  A    between atoms: C_29  and  O_30
REMARK   13  A    between atoms: O_30  and  P_31
REMARK   14  A    between atoms: P_31  and  O_32
REMARK   15  A    between atoms: P_31  and  O_33
REMARK                            x       y       z     vdW  Elec       q    Type
REMARK                         _______ _______ _______ _____ _____    ______ ____
ROOT
ATOM      1  C   UNL     1       3.272   2.739  25.909  0.00  0.00    +0.044 C 
ATOM      2  C   UNL     1       4.513   2.229  25.224  0.00  0.00    -0.045 A 
ATOM      3  C   UNL     1       5.139   2.984  24.230  0.00  0.00    -0.041 A 
ATOM      4  C   UNL     1       4.563   4.293  23.745  0.00  0.00    +0.044 C 
ATOM      5  C   UNL     1       6.316   2.492  23.648  0.00  0.00    +0.086 A 
ATOM      6  C   UNL     1       6.863   1.229  23.977  0.00  0.00    +0.262 A 
ATOM      7  N   UNL     1       8.074   0.727  23.367  0.00  0.00    -0.033 N 
ATOM      8  C   UNL     1       8.596  -0.371  23.799  0.00  0.00    +0.344 A 
ATOM      9  C   UNL     1       7.830  -1.308  24.675  0.00  0.00    +0.220 A 
ATOM     10  N   UNL     1       6.703  -0.836  25.319  0.00  0.00    -0.312 N 
ATOM     11  N   UNL     1       8.255  -2.528  24.795  0.00  0.00    -0.169 NA
ATOM     12  C   UNL     1       9.389  -2.995  24.185  0.00  0.00    +0.351 A 
ATOM     13  O   UNL     1       9.857  -4.090  24.468  0.00  0.00    -0.245 OA
ATOM     14  N   UNL     1      10.045  -2.185  23.306  0.00  0.00    -0.268 N 
ATOM     15  H   UNL     1      10.966  -2.562  23.099  0.00  0.00    +0.174 HD
ATOM     16  C   UNL     1       9.983  -0.850  23.522  0.00  0.00    +0.330 A 
ATOM     17  O   UNL     1      10.904  -0.066  23.655  0.00  0.00    -0.260 OA
ATOM     18  C   UNL     1       6.208   0.442  24.975  0.00  0.00    +0.119 A 
ATOM     19  C   UNL     1       5.065   0.988  25.598  0.00  0.00    +0.036 A 
ENDROOT
BRANCH   7  20
ATOM     20  S   UNL     1       8.832   1.624  22.116  0.00  0.00    +0.136 S 
ATOM     21  O   UNL     1       9.558   0.640  21.341  0.00  0.00    -0.123 OA
ATOM     22  O   UNL     1       9.604   2.571  22.911  0.00  0.00    -0.123 OA
ATOM     23  O   UNL     1       7.677   2.184  21.421  0.00  0.00    -0.670 OA
ENDBRANCH   7  20
BRANCH  10  24
ATOM     24  C   UNL     1       5.955  -1.789  26.211  0.00  0.00    +0.158 C 
BRANCH  24  25
ATOM     25  C   UNL     1       4.938  -2.641  25.404  0.00  0.00    +0.165 C 
BRANCH  25  26
ATOM     26  O   UNL     1       5.300  -2.694  24.015  0.00  0.00    -0.387 OA
ATOM     27  H   UNL     1       5.136  -3.605  23.703  0.00  0.00    +0.210 HD
ENDBRANCH  25  26
BRANCH  25  28
ATOM     28  C   UNL     1       4.653  -4.070  25.959  0.00  0.00    +0.175 C 
BRANCH  28  29
ATOM     29  O   UNL     1       3.332  -4.479  25.577  0.00  0.00    -0.387 OA
ATOM     30  H   UNL     1       2.956  -3.816  24.972  0.00  0.00    +0.210 HD
ENDBRANCH  28  29
BRANCH  28  31
ATOM     31  C   UNL     1       5.611  -5.232  25.597  0.00  0.00    +0.172 C 
BRANCH  31  32
ATOM     32  O   UNL     1       6.970  -4.816  25.779  0.00  0.00    -0.387 OA
ATOM     33  H   UNL     1       7.445  -5.169  25.000  0.00  0.00    +0.210 HD
ENDBRANCH  31  32
BRANCH  31  34
ATOM     34  C   UNL     1       5.443  -5.848  24.196  0.00  0.00    +0.206 C 
BRANCH  34  35
ATOM     35  O   UNL     1       6.615  -5.560  23.410  0.00  0.00    -0.284 OA
BRANCH  35  36
ATOM     36  P   UNL     1       6.269  -5.356  21.727  0.00  0.00    +0.472 P 
ATOM     37  O   UNL     1       5.960  -5.172  20.221  0.00  0.00    -0.228 OA
BRANCH  36  38
ATOM     38  O   UNL     1       6.902  -3.868  21.967  0.00  0.00    -0.303 OA
ATOM     39  H   UNL     1       6.357  -3.452  22.662  0.00  0.00    +0.222 HD
ENDBRANCH  36  38
BRANCH  36  40
ATOM     40  O   UNL     1       4.785  -4.924  22.271  0.00  0.00    -0.303 OA
ATOM     41  H   UNL     1       4.638  -5.259  23.173  0.00  0.00    +0.222 HD
ENDBRANCH  36  40
ENDBRANCH  35  36
ENDBRANCH  34  35
ENDBRANCH  31  34
ENDBRANCH  28  31
ENDBRANCH  25  28
ENDBRANCH  24  25
ENDBRANCH  10  24
TORSDOF 13
ENDMDL
MODEL 6
REMARK VINA RESULT:      -6.3      4.286      5.904
REMARK  Name = 
REMARK  15 active torsions:
REMARK  status: ('A' for Active; 'I' for Inactive)
REMARK    1  A    between atoms: C_1  and  C_2
REMARK    2  A    between atoms: C_7  and  C_8
REMARK    3  A    between atoms: N_9  and  S_35
REMARK    4  A    between atoms: N_18  and  C_19
REMARK    5  A    between atoms: C_19  and  C_20
REMARK    6  A    between atoms: C_20  and  O_22
REMARK    7  A    between atoms: C_20  and  C_23
REMARK    8  A    between atoms: C_23  and  O_25
REMARK    9  A    between atoms: C_23  and  C_26
REMARK   10  A    between atoms: C_26  and  O_28
REMARK   11  A    between atoms: C_26  and  C_29
REMARK   12  A    between atoms: C_29  and  O_30
REMARK   13  A    between atoms: O_30  and  P_31
REMARK   14  A    between atoms: P_31  and  O_32
REMARK   15  A    between atoms: P_31  and  O_33
REMARK                            x       y       z     vdW  Elec       q    Type
REMARK                         _______ _______ _______ _____ _____    ______ ____
ROOT
ATOM      1  C   UNL     1       7.206   6.545  21.682  0.00  0.00    +0.044 C 
ATOM      2  C   UNL     1       6.714   5.531  22.682  0.00  0.00    -0.045 A 
ATOM      3  C   UNL     1       5.465   5.676  23.289  0.00  0.00    -0.041 A 
ATOM      4  C   UNL     1       4.595   6.884  23.036  0.00  0.00    +0.044 C 
ATOM      5  C   UNL     1       5.028   4.687  24.182  0.00  0.00    +0.086 A 
ATOM      6  C   UNL     1       5.828   3.578  24.547  0.00  0.00    +0.262 A 
ATOM      7  N   UNL     1       5.371   2.566  25.473  0.00  0.00    -0.033 N 
ATOM      8  C   UNL     1       6.088   1.512  25.668  0.00  0.00    +0.344 A 
ATOM      9  C   UNL     1       7.515   1.447  25.230  0.00  0.00    +0.220 A 
ATOM     10  N   UNL     1       7.962   2.365  24.299  0.00  0.00    -0.312 N 
ATOM     11  N   UNL     1       8.278   0.531  25.743  0.00  0.00    -0.169 NA
ATOM     12  C   UNL     1       7.835  -0.402  26.643  0.00  0.00    +0.351 A 
ATOM     13  O   UNL     1       8.531  -1.358  26.960  0.00  0.00    -0.245 OA
ATOM     14  N   UNL     1       6.565  -0.299  27.127  0.00  0.00    -0.268 N 
ATOM     15  H   UNL     1       6.298  -1.155  27.604  0.00  0.00    +0.174 HD
ATOM     16  C   UNL     1       5.630   0.246  26.315  0.00  0.00    +0.330 A 
ATOM     17  O   UNL     1       4.571  -0.235  25.958  0.00  0.00    -0.260 OA
ATOM     18  C   UNL     1       7.118   3.442  23.947  0.00  0.00    +0.119 A 
ATOM     19  C   UNL     1       7.508   4.411  22.998  0.00  0.00    +0.036 A 
ENDROOT
BRANCH   7  20
ATOM     20  S   UNL     1       3.856   2.751  26.258  0.00  0.00    +0.136 S 
ATOM     21  O   UNL     1       3.980   1.997  27.488  0.00  0.00    -0.123 OA
ATOM     22  O   UNL     1       2.967   2.233  25.226  0.00  0.00    -0.123 OA
ATOM     23  O   UNL     1       3.809   4.197  26.457  0.00  0.00    -0.670 OA
ENDBRANCH   7  20
BRANCH  10  24
ATOM     24  C   UNL     1       9.396   2.272  23.857  0.00  0.00    +0.158 C 
BRANCH  24  25
ATOM     25  C   UNL     1       9.572   1.234  22.715  0.00  0.00    +0.165 C 
BRANCH  25  26
ATOM     26  O   UNL     1       9.937   1.881  21.484  0.00  0.00    -0.387 OA
ATOM     27  H   UNL     1       9.368   2.669  21.387  0.00  0.00    +0.210 HD
ENDBRANCH  25  26
BRANCH  25  28
ATOM     28  C   UNL     1      10.526   0.039  23.019  0.00  0.00    +0.175 C 
BRANCH  28  29
ATOM     29  O   UNL     1      10.679  -0.103  24.439  0.00  0.00    -0.387 OA
ATOM     30  H   UNL     1      10.816  -1.043  24.652  0.00  0.00    +0.210 HD
ENDBRANCH  28  29
BRANCH  28  31
ATOM     31  C   UNL     1      10.193  -1.364  22.454  0.00  0.00    +0.172 C 
BRANCH  31  32
ATOM     32  O   UNL     1       9.674  -1.242  21.124  0.00  0.00    -0.387 OA
ATOM     33  H   UNL     1       9.398  -0.307  21.050  0.00  0.00    +0.210 HD
ENDBRANCH  31  32
BRANCH  31  34
ATOM     34  C   UNL     1       9.249  -2.237  23.300  0.00  0.00    +0.206 C 
BRANCH  34  35
ATOM     35  O   UNL     1      10.032  -3.169  24.070  0.00  0.00    -0.284 OA
BRANCH  35  36
ATOM     36  P   UNL     1       9.065  -4.268  24.992  0.00  0.00    +0.472 P 
ATOM     37  O   UNL     1       8.200  -5.251  25.818  0.00  0.00    -0.228 OA
BRANCH  36  38
ATOM     38  O   UNL     1      10.378  -5.234  24.874  0.00  0.00    -0.303 OA
ATOM     39  H   UNL     1      11.059  -4.834  25.448  0.00  0.00    +0.222 HD
ENDBRANCH  36  38
BRANCH  36  40
ATOM     40  O   UNL     1       8.485  -4.705  23.524  0.00  0.00    -0.303 OA
ATOM     41  H   UNL     1       7.597  -5.093  23.605  0.00  0.00    +0.222 HD
ENDBRANCH  36  40
ENDBRANCH  35  36
ENDBRANCH  34  35
ENDBRANCH  31  34
ENDBRANCH  28  31
ENDBRANCH  25  28
ENDBRANCH  24  25
ENDBRANCH  10  24
TORSDOF 13
ENDMDL
MODEL 7
REMARK VINA RESULT:      -6.3      3.213      5.494
REMARK  Name = 
REMARK  15 active torsions:
REMARK  status: ('A' for Active; 'I' for Inactive)
REMARK    1  A    between atoms: C_1  and  C_2
REMARK    2  A    between atoms: C_7  and  C_8
REMARK    3  A    between atoms: N_9  and  S_35
REMARK    4  A    between atoms: N_18  and  C_19
REMARK    5  A    between atoms: C_19  and  C_20
REMARK    6  A    between atoms: C_20  and  O_22
REMARK    7  A    between atoms: C_20  and  C_23
REMARK    8  A    between atoms: C_23  and  O_25
REMARK    9  A    between atoms: C_23  and  C_26
REMARK   10  A    between atoms: C_26  and  O_28
REMARK   11  A    between atoms: C_26  and  C_29
REMARK   12  A    between atoms: C_29  and  O_30
REMARK   13  A    between atoms: O_30  and  P_31
REMARK   14  A    between atoms: P_31  and  O_32
REMARK   15  A    between atoms: P_31  and  O_33
REMARK                            x       y       z     vdW  Elec       q    Type
REMARK                         _______ _______ _______ _____ _____    ______ ____
ROOT
ATOM      1  C   UNL     1       3.634  -4.438  29.622  0.00  0.00    +0.044 C 
ATOM      2  C   UNL     1       4.129  -4.538  28.202  0.00  0.00    -0.045 A 
ATOM      3  C   UNL     1       3.718  -5.587  27.376  0.00  0.00    -0.041 A 
ATOM      4  C   UNL     1       2.833  -6.699  27.887  0.00  0.00    +0.044 C 
ATOM      5  C   UNL     1       4.168  -5.619  26.049  0.00  0.00    +0.086 A 
ATOM      6  C   UNL     1       5.078  -4.669  25.526  0.00  0.00    +0.262 A 
ATOM      7  N   UNL     1       5.542  -4.713  24.157  0.00  0.00    -0.033 N 
ATOM      8  C   UNL     1       6.266  -3.749  23.700  0.00  0.00    +0.344 A 
ATOM      9  C   UNL     1       6.913  -2.758  24.612  0.00  0.00    +0.220 A 
ATOM     10  N   UNL     1       6.448  -2.652  25.908  0.00  0.00    -0.312 N 
ATOM     11  N   UNL     1       7.888  -2.037  24.149  0.00  0.00    -0.169 NA
ATOM     12  C   UNL     1       8.335  -2.114  22.856  0.00  0.00    +0.351 A 
ATOM     13  O   UNL     1       9.125  -1.294  22.409  0.00  0.00    -0.245 OA
ATOM     14  N   UNL     1       7.824  -3.078  22.039  0.00  0.00    -0.268 N 
ATOM     15  H   UNL     1       8.072  -2.889  21.073  0.00  0.00    +0.174 HD
ATOM     16  C   UNL     1       6.548  -3.471  22.260  0.00  0.00    +0.330 A 
ATOM     17  O   UNL     1       5.617  -3.478  21.477  0.00  0.00    -0.260 OA
ATOM     18  C   UNL     1       5.521  -3.609  26.378  0.00  0.00    +0.119 A 
ATOM     19  C   UNL     1       5.000  -3.557  27.688  0.00  0.00    +0.036 A 
ENDROOT
BRANCH   7  20
ATOM     20  S   UNL     1       5.078  -6.017  23.143  0.00  0.00    +0.136 S 
ATOM     21  O   UNL     1       6.186  -6.188  22.227  0.00  0.00    -0.123 OA
ATOM     22  O   UNL     1       3.826  -5.494  22.610  0.00  0.00    -0.123 OA
ATOM     23  O   UNL     1       4.943  -7.102  24.111  0.00  0.00    -0.670 OA
ENDBRANCH   7  20
BRANCH  10  24
ATOM     24  C   UNL     1       7.100  -1.637  26.806  0.00  0.00    +0.158 C 
BRANCH  24  25
ATOM     25  C   UNL     1       6.345  -0.279  26.768  0.00  0.00    +0.165 C 
BRANCH  25  26
ATOM     26  O   UNL     1       5.907   0.101  28.083  0.00  0.00    -0.387 OA
ATOM     27  H   UNL     1       6.611  -0.151  28.711  0.00  0.00    +0.210 HD
ENDBRANCH  25  26
BRANCH  25  28
ATOM     28  C   UNL     1       7.092   0.898  26.069  0.00  0.00    +0.175 C 
BRANCH  28  29
ATOM     29  O   UNL     1       8.443   0.506  25.782  0.00  0.00    -0.387 OA
ATOM     30  H   UNL     1       8.992   1.302  25.685  0.00  0.00    +0.210 HD
ENDBRANCH  28  29
BRANCH  28  31
ATOM     31  C   UNL     1       6.508   1.505  24.770  0.00  0.00    +0.172 C 
BRANCH  31  32
ATOM     32  O   UNL     1       6.161   0.457  23.856  0.00  0.00    -0.387 OA
ATOM     33  H   UNL     1       6.987  -0.056  23.740  0.00  0.00    +0.210 HD
ENDBRANCH  31  32
BRANCH  31  34
ATOM     34  C   UNL     1       7.378   2.551  24.050  0.00  0.00    +0.206 C 
BRANCH  34  35
ATOM     35  O   UNL     1       8.354   1.874  23.236  0.00  0.00    -0.284 OA
BRANCH  35  36
ATOM     36  P   UNL     1       9.919   2.608  23.302  0.00  0.00    +0.472 P 
ATOM     37  O   UNL     1      11.320   3.266  23.360  0.00  0.00    -0.228 OA
BRANCH  36  38
ATOM     38  O   UNL     1       9.959   2.233  21.712  0.00  0.00    -0.303 OA
ATOM     39  H   UNL     1       9.797   3.069  21.234  0.00  0.00    +0.222 HD
ENDBRANCH  36  38
BRANCH  36  40
ATOM     40  O   UNL     1      10.400   1.114  23.771  0.00  0.00    -0.303 OA
ATOM     41  H   UNL     1      11.364   1.019  23.684  0.00  0.00    +0.222 HD
ENDBRANCH  36  40
ENDBRANCH  35  36
ENDBRANCH  34  35
ENDBRANCH  31  34
ENDBRANCH  28  31
ENDBRANCH  25  28
ENDBRANCH  24  25
ENDBRANCH  10  24
TORSDOF 13
ENDMDL
MODEL 8
REMARK VINA RESULT:      -6.2      3.820      5.634
REMARK  Name = 
REMARK  15 active torsions:
REMARK  status: ('A' for Active; 'I' for Inactive)
REMARK    1  A    between atoms: C_1  and  C_2
REMARK    2  A    between atoms: C_7  and  C_8
REMARK    3  A    between atoms: N_9  and  S_35
REMARK    4  A    between atoms: N_18  and  C_19
REMARK    5  A    between atoms: C_19  and  C_20
REMARK    6  A    between atoms: C_20  and  O_22
REMARK    7  A    between atoms: C_20  and  C_23
REMARK    8  A    between atoms: C_23  and  O_25
REMARK    9  A    between atoms: C_23  and  C_26
REMARK   10  A    between atoms: C_26  and  O_28
REMARK   11  A    between atoms: C_26  and  C_29
REMARK   12  A    between atoms: C_29  and  O_30
REMARK   13  A    between atoms: O_30  and  P_31
REMARK   14  A    between atoms: P_31  and  O_32
REMARK   15  A    between atoms: P_31  and  O_33
REMARK                            x       y       z     vdW  Elec       q    Type
REMARK                         _______ _______ _______ _____ _____    ______ ____
ROOT
ATOM      1  C   UNL     1      11.318   3.618  22.930  0.00  0.00    +0.044 C 
ATOM      2  C   UNL     1      10.166   3.121  23.764  0.00  0.00    -0.045 A 
ATOM      3  C   UNL     1       9.356   4.016  24.465  0.00  0.00    -0.041 A 
ATOM      4  C   UNL     1       9.642   5.499  24.485  0.00  0.00    +0.044 C 
ATOM      5  C   UNL     1       8.269   3.515  25.196  0.00  0.00    +0.086 A 
ATOM      6  C   UNL     1       7.995   2.131  25.308  0.00  0.00    +0.262 A 
ATOM      7  N   UNL     1       6.874   1.623  26.067  0.00  0.00    -0.033 N 
ATOM      8  C   UNL     1       6.597   0.364  26.027  0.00  0.00    +0.344 A 
ATOM      9  C   UNL     1       7.574  -0.633  25.494  0.00  0.00    +0.220 A 
ATOM     10  N   UNL     1       8.619  -0.181  24.714  0.00  0.00    -0.312 N 
ATOM     11  N   UNL     1       7.400  -1.885  25.788  0.00  0.00    -0.169 NA
ATOM     12  C   UNL     1       6.348  -2.346  26.535  0.00  0.00    +0.351 A 
ATOM     13  O   UNL     1       6.117  -3.544  26.634  0.00  0.00    -0.245 OA
ATOM     14  N   UNL     1       5.504  -1.443  27.110  0.00  0.00    -0.268 N 
ATOM     15  H   UNL     1       4.665  -1.908  27.444  0.00  0.00    +0.174 HD
ATOM     16  C   UNL     1       5.317  -0.267  26.468  0.00  0.00    +0.330 A 
ATOM     17  O   UNL     1       4.270   0.231  26.100  0.00  0.00    -0.260 OA
ATOM     18  C   UNL     1       8.839   1.211  24.611  0.00  0.00    +0.119 A 
ATOM     19  C   UNL     1       9.884   1.742  23.826  0.00  0.00    +0.036 A 
ENDROOT
BRANCH   7  20
ATOM     20  S   UNL     1       5.894   2.706  26.967  0.00  0.00    +0.136 S 
ATOM     21  O   UNL     1       5.332   1.902  28.032  0.00  0.00    -0.123 OA
ATOM     22  O   UNL     1       4.997   3.173  25.917  0.00  0.00    -0.123 OA
ATOM     23  O   UNL     1       6.883   3.679  27.424  0.00  0.00    -0.670 OA
ENDBRANCH   7  20
BRANCH  10  24
ATOM     24  C   UNL     1       9.582  -1.202  24.171  0.00  0.00    +0.158 C 
BRANCH  24  25
ATOM     25  C   UNL     1       9.196  -1.636  22.731  0.00  0.00    +0.165 C 
BRANCH  25  26
ATOM     26  O   UNL     1      10.338  -1.599  21.860  0.00  0.00    -0.387 OA
ATOM     27  H   UNL     1      10.468  -0.670  21.585  0.00  0.00    +0.210 HD
ENDBRANCH  25  26
BRANCH  25  28
ATOM     28  C   UNL     1       8.446  -2.998  22.606  0.00  0.00    +0.175 C 
BRANCH  28  29
ATOM     29  O   UNL     1       8.464  -3.673  23.872  0.00  0.00    -0.387 OA
ATOM     30  H   UNL     1       8.993  -3.154  24.503  0.00  0.00    +0.210 HD
ENDBRANCH  28  29
BRANCH  28  31
ATOM     31  C   UNL     1       6.983  -3.017  22.100  0.00  0.00    +0.172 C 
BRANCH  31  32
ATOM     32  O   UNL     1       6.134  -2.350  23.041  0.00  0.00    -0.387 OA
ATOM     33  H   UNL     1       5.515  -3.042  23.352  0.00  0.00    +0.210 HD
ENDBRANCH  31  32
BRANCH  31  34
ATOM     34  C   UNL     1       6.393  -4.398  21.759  0.00  0.00    +0.206 C 
BRANCH  34  35
ATOM     35  O   UNL     1       5.057  -4.484  22.290  0.00  0.00    -0.284 OA
BRANCH  35  36
ATOM     36  P   UNL     1       4.799  -5.900  23.250  0.00  0.00    +0.472 P 
ATOM     37  O   UNL     1       4.568  -7.167  24.110  0.00  0.00    -0.228 OA
BRANCH  36  38
ATOM     38  O   UNL     1       5.931  -5.226  24.218  0.00  0.00    -0.303 OA
ATOM     39  H   UNL     1       6.691  -5.838  24.210  0.00  0.00    +0.222 HD
ENDBRANCH  36  38
BRANCH  36  40
ATOM     40  O   UNL     1       5.908  -6.563  22.243  0.00  0.00    -0.303 OA
ATOM     41  H   UNL     1       6.306  -5.883  21.673  0.00  0.00    +0.222 HD
ENDBRANCH  36  40
ENDBRANCH  35  36
ENDBRANCH  34  35
ENDBRANCH  31  34
ENDBRANCH  28  31
ENDBRANCH  25  28
ENDBRANCH  24  25
ENDBRANCH  10  24
TORSDOF 13
ENDMDL
MODEL 9
REMARK VINA RESULT:      -6.2      2.643      6.414
REMARK  Name = 
REMARK  15 active torsions:
REMARK  status: ('A' for Active; 'I' for Inactive)
REMARK    1  A    between atoms: C_1  and  C_2
REMARK    2  A    between atoms: C_7  and  C_8
REMARK    3  A    between atoms: N_9  and  S_35
REMARK    4  A    between atoms: N_18  and  C_19
REMARK    5  A    between atoms: C_19  and  C_20
REMARK    6  A    between atoms: C_20  and  O_22
REMARK    7  A    between atoms: C_20  and  C_23
REMARK    8  A    between atoms: C_23  and  O_25
REMARK    9  A    between atoms: C_23  and  C_26
REMARK   10  A    between atoms: C_26  and  O_28
REMARK   11  A    between atoms: C_26  and  C_29
REMARK   12  A    between atoms: C_29  and  O_30
REMARK   13  A    between atoms: O_30  and  P_31
REMARK   14  A    between atoms: P_31  and  O_32
REMARK   15  A    between atoms: P_31  and  O_33
REMARK                            x       y       z     vdW  Elec       q    Type
REMARK                         _______ _______ _______ _____ _____    ______ ____
ROOT
ATOM      1  C   UNL     1       4.526  -5.598  22.792  0.00  0.00    +0.044 C 
ATOM      2  C   UNL     1       5.513  -4.477  22.989  0.00  0.00    -0.045 A 
ATOM      3  C   UNL     1       6.755  -4.502  22.351  0.00  0.00    -0.041 A 
ATOM      4  C   UNL     1       7.193  -5.677  21.510  0.00  0.00    +0.044 C 
ATOM      5  C   UNL     1       7.628  -3.419  22.528  0.00  0.00    +0.086 A 
ATOM      6  C   UNL     1       7.331  -2.328  23.380  0.00  0.00    +0.262 A 
ATOM      7  N   UNL     1       8.239  -1.218  23.560  0.00  0.00    -0.033 N 
ATOM      8  C   UNL     1       7.861  -0.192  24.245  0.00  0.00    +0.344 A 
ATOM      9  C   UNL     1       6.656  -0.242  25.126  0.00  0.00    +0.220 A 
ATOM     10  N   UNL     1       5.741  -1.259  24.934  0.00  0.00    -0.312 N 
ATOM     11  N   UNL     1       6.518   0.671  26.038  0.00  0.00    -0.169 NA
ATOM     12  C   UNL     1       7.406   1.700  26.215  0.00  0.00    +0.351 A 
ATOM     13  O   UNL     1       7.148   2.639  26.956  0.00  0.00    -0.245 OA
ATOM     14  N   UNL     1       8.559   1.707  25.487  0.00  0.00    -0.268 N 
ATOM     15  H   UNL     1       9.011   2.614  25.552  0.00  0.00    +0.174 HD
ATOM     16  C   UNL     1       8.523   1.147  24.256  0.00  0.00    +0.330 A 
ATOM     17  O   UNL     1       8.821   1.654  23.190  0.00  0.00    -0.260 OA
ATOM     18  C   UNL     1       6.070  -2.314  24.054  0.00  0.00    +0.119 A 
ATOM     19  C   UNL     1       5.180  -3.380  23.807  0.00  0.00    +0.036 A 
ENDROOT
BRANCH   7  20
ATOM     20  S   UNL     1       9.785  -1.252  22.817  0.00  0.00    +0.136 S 
ATOM     21  O   UNL     1      10.590  -0.328  23.588  0.00  0.00    -0.123 OA
ATOM     22  O   UNL     1       9.424  -0.872  21.457  0.00  0.00    -0.123 OA
ATOM     23  O   UNL     1      10.161  -2.652  22.997  0.00  0.00    -0.670 OA
ENDBRANCH   7  20
BRANCH  10  24
ATOM     24  C   UNL     1       4.524  -1.282  25.818  0.00  0.00    +0.158 C 
BRANCH  24  25
ATOM     25  C   UNL     1       4.839  -1.920  27.199  0.00  0.00    +0.165 C 
BRANCH  25  26
ATOM     26  O   UNL     1       4.908  -0.915  28.225  0.00  0.00    -0.387 OA
ATOM     27  H   UNL     1       4.532  -1.302  29.040  0.00  0.00    +0.210 HD
ENDBRANCH  25  26
BRANCH  25  28
ATOM     28  C   UNL     1       3.914  -3.097  27.635  0.00  0.00    +0.175 C 
BRANCH  28  29
ATOM     29  O   UNL     1       3.267  -3.651  26.480  0.00  0.00    -0.387 OA
ATOM     30  H   UNL     1       2.500  -3.099  26.249  0.00  0.00    +0.210 HD
ENDBRANCH  28  29
BRANCH  28  31
ATOM     31  C   UNL     1       4.513  -4.280  28.434  0.00  0.00    +0.172 C 
BRANCH  31  32
ATOM     32  O   UNL     1       4.401  -4.026  29.839  0.00  0.00    -0.387 OA
ATOM     33  H   UNL     1       4.937  -4.726  30.262  0.00  0.00    +0.210 HD
ENDBRANCH  31  32
BRANCH  31  34
ATOM     34  C   UNL     1       5.962  -4.674  28.093  0.00  0.00    +0.206 C 
BRANCH  34  35
ATOM     35  O   UNL     1       6.033  -5.060  26.708  0.00  0.00    -0.284 OA
BRANCH  35  36
ATOM     36  P   UNL     1       7.655  -5.226  26.132  0.00  0.00    +0.472 P 
ATOM     37  O   UNL     1       9.108  -5.374  25.616  0.00  0.00    -0.228 OA
BRANCH  36  38
ATOM     38  O   UNL     1       7.901  -5.939  27.581  0.00  0.00    -0.303 OA
ATOM     39  H   UNL     1       8.550  -5.380  28.050  0.00  0.00    +0.222 HD
ENDBRANCH  36  38
BRANCH  36  40
ATOM     40  O   UNL     1       7.829  -3.711  26.733  0.00  0.00    -0.303 OA
ATOM     41  H   UNL     1       8.708  -3.354  26.517  0.00  0.00    +0.222 HD
ENDBRANCH  36  40
ENDBRANCH  35  36
ENDBRANCH  34  35
ENDBRANCH  31  34
ENDBRANCH  28  31
ENDBRANCH  25  28
ENDBRANCH  24  25
ENDBRANCH  10  24
TORSDOF 13
ENDMDL
