MODEL 1
REMARK VINA RESULT:      -4.3      0.000      0.000
REMARK  Name = 
REMARK  45 active torsions:
REMARK  status: ('A' for Active; 'I' for Inactive)
REMARK    1  A    between atoms: C_1  and  C_2
REMARK    2  A    between atoms: C_2  and  C_3
REMARK    3  A    between atoms: C_2  and  C_4
REMARK    4  A    between atoms: C_4  and  C_5
REMARK    5  A    between atoms: C_5  and  C_6
REMARK    6  A    between atoms: C_6  and  C_7
REMARK    7  A    between atoms: C_7  and  C_9
REMARK    8  A    between atoms: C_7  and  C_10
REMARK    9  A    between atoms: C_10  and  C_11
REMARK   10  A    between atoms: C_11  and  C_12
REMARK   11  A    between atoms: C_12  and  C_13
REMARK   12  A    between atoms: C_13  and  C_15
REMARK   13  A    between atoms: C_13  and  C_16
REMARK   14  A    between atoms: C_16  and  C_17
REMARK   15  A    between atoms: C_17  and  C_18
REMARK   16  A    between atoms: C_18  and  C_19
REMARK   17  A    between atoms: C_19  and  C_21
REMARK   18  A    between atoms: C_19  and  C_22
REMARK   19  A    between atoms: C_22  and  C_23
REMARK   20  A    between atoms: C_23  and  O_24
REMARK   21  A    between atoms: O_24  and  C_25
REMARK   22  A    between atoms: C_25  and  C_26
REMARK   23  A    between atoms: C_26  and  C_28
REMARK   24  A    between atoms: C_26  and  O_30
REMARK   25  A    between atoms: C_28  and  O_29
REMARK   26  A    between atoms: O_30  and  C_31
REMARK   27  A    between atoms: C_31  and  C_32
REMARK   28  A    between atoms: C_32  and  C_33
REMARK   29  A    between atoms: C_33  and  C_35
REMARK   30  A    between atoms: C_33  and  C_36
REMARK   31  A    between atoms: C_36  and  C_37
REMARK   32  A    between atoms: C_37  and  C_38
REMARK   33  A    between atoms: C_38  and  C_39
REMARK   34  A    between atoms: C_39  and  C_41
REMARK   35  A    between atoms: C_39  and  C_42
REMARK   36  A    between atoms: C_42  and  C_43
REMARK   37  A    between atoms: C_43  and  C_44
REMARK   38  A    between atoms: C_44  and  C_45
REMARK   39  A    between atoms: C_45  and  C_47
REMARK   40  A    between atoms: C_45  and  C_48
REMARK   41  A    between atoms: C_48  and  C_49
REMARK   42  A    between atoms: C_49  and  C_50
REMARK   43  A    between atoms: C_50  and  C_51
REMARK   44  A    between atoms: C_51  and  C_52
REMARK   45  A    between atoms: C_51  and  C_53
REMARK                            x       y       z     vdW  Elec       q    Type
REMARK                         _______ _______ _______ _____ _____    ______ ____
ROOT
ATOM      1  C   UNL     1       8.832  -4.058  26.434  0.00  0.00    +0.169 C 
ENDROOT
BRANCH   1   2
ATOM      2  C   UNL     1       9.111  -5.334  25.611  0.00  0.00    +0.189 C 
BRANCH   2   3
ATOM      3  O   UNL     1      10.508  -5.540  25.417  0.00  0.00    -0.392 OA
ATOM      4  H   UNL     1      10.676  -6.479  25.614  0.00  0.00    +0.210 HD
ENDBRANCH   2   3
ENDBRANCH   1   2
BRANCH   1   5
ATOM      5  O   UNL     1       7.621  -4.148  27.232  0.00  0.00    -0.372 OA
BRANCH   5   6
ATOM      6  C   UNL     1       7.189  -5.505  27.329  0.00  0.00    +0.160 C 
BRANCH   6   7
ATOM      7  C   UNL     1       6.197  -5.806  28.459  0.00  0.00    +0.031 C 
BRANCH   7   8
ATOM      8  C   UNL     1       4.803  -6.123  27.847  0.00  0.00    -0.012 C 
ATOM      9  C   UNL     1       3.958  -6.989  28.799  0.00  0.00    +0.007 C 
BRANCH   8  10
ATOM     10  C   UNL     1       4.894  -6.778  26.448  0.00  0.00    +0.003 C 
BRANCH  10  11
ATOM     11  C   UNL     1       3.492  -7.073  25.890  0.00  0.00    +0.001 C 
BRANCH  11  12
ATOM     12  C   UNL     1       3.317  -6.724  24.411  0.00  0.00    +0.003 C 
BRANCH  12  13
ATOM     13  C   UNL     1       2.527  -5.405  24.226  0.00  0.00    -0.014 C 
ATOM     14  C   UNL     1       1.262  -5.617  23.381  0.00  0.00    +0.007 C 
BRANCH  13  15
ATOM     15  C   UNL     1       2.139  -4.759  25.573  0.00  0.00    +0.003 C 
BRANCH  15  16
ATOM     16  C   UNL     1       1.672  -3.298  25.501  0.00  0.00    +0.001 C 
BRANCH  16  17
ATOM     17  C   UNL     1       2.612  -2.309  26.202  0.00  0.00    +0.003 C 
BRANCH  17  18
ATOM     18  C   UNL     1       4.010  -2.881  26.533  0.00  0.00    -0.014 C 
ATOM     19  C   UNL     1       4.306  -2.605  28.015  0.00  0.00    +0.007 C 
BRANCH  18  20
ATOM     20  C   UNL     1       5.117  -2.299  25.623  0.00  0.00    +0.003 C 
BRANCH  20  21
ATOM     21  C   UNL     1       5.083  -2.860  24.196  0.00  0.00    +0.001 C 
BRANCH  21  22
ATOM     22  C   UNL     1       5.902  -4.150  24.063  0.00  0.00    +0.003 C 
BRANCH  22  23
ATOM     23  C   UNL     1       5.959  -4.689  22.620  0.00  0.00    -0.017 C 
ATOM     24  C   UNL     1       7.157  -5.612  22.385  0.00  0.00    +0.007 C 
ATOM     25  C   UNL     1       5.998  -3.525  21.626  0.00  0.00    +0.007 C 
ENDBRANCH  22  23
ENDBRANCH  21  22
ENDBRANCH  20  21
ENDBRANCH  18  20
ENDBRANCH  17  18
ENDBRANCH  16  17
ENDBRANCH  15  16
ENDBRANCH  13  15
ENDBRANCH  12  13
ENDBRANCH  11  12
ENDBRANCH  10  11
ENDBRANCH   8  10
ENDBRANCH   7   8
ENDBRANCH   6   7
ENDBRANCH   5   6
ENDBRANCH   1   5
BRANCH   1  26
ATOM     26  C   UNL     1       8.800  -2.811  25.529  0.00  0.00    +0.193 C 
BRANCH  26  27
ATOM     27  O   UNL     1       9.744  -2.887  24.450  0.00  0.00    -0.377 OA
BRANCH  27  28
ATOM     28  C   UNL     1       9.177  -2.360  23.246  0.00  0.00    +0.160 C 
BRANCH  28  29
ATOM     29  C   UNL     1       8.299  -1.147  23.562  0.00  0.00    +0.031 C 
BRANCH  29  30
ATOM     30  C   UNL     1       7.989  -0.273  22.324  0.00  0.00    -0.012 C 
ATOM     31  C   UNL     1       9.258   0.035  21.520  0.00  0.00    +0.007 C 
BRANCH  30  32
ATOM     32  C   UNL     1       7.265   1.021  22.758  0.00  0.00    +0.003 C 
BRANCH  32  33
ATOM     33  C   UNL     1       7.621   2.222  21.867  0.00  0.00    +0.001 C 
BRANCH  33  34
ATOM     34  C   UNL     1       7.923   3.481  22.679  0.00  0.00    +0.003 C 
BRANCH  34  35
ATOM     35  C   UNL     1       8.753   3.185  23.952  0.00  0.00    -0.014 C 
ATOM     36  C   UNL     1      10.220   2.901  23.614  0.00  0.00    +0.007 C 
BRANCH  35  37
ATOM     37  C   UNL     1       8.678   4.333  24.982  0.00  0.00    +0.003 C 
BRANCH  37  38
ATOM     38  C   UNL     1       7.561   4.111  26.005  0.00  0.00    +0.001 C 
BRANCH  38  39
ATOM     39  C   UNL     1       6.218   4.672  25.545  0.00  0.00    +0.003 C 
BRANCH  39  40
ATOM     40  C   UNL     1       5.035   3.811  26.048  0.00  0.00    -0.014 C 
ATOM     41  C   UNL     1       3.806   4.674  26.358  0.00  0.00    +0.007 C 
BRANCH  40  42
ATOM     42  C   UNL     1       4.644   2.703  25.049  0.00  0.00    +0.003 C 
BRANCH  42  43
ATOM     43  C   UNL     1       5.100   1.317  25.507  0.00  0.00    +0.001 C 
BRANCH  43  44
ATOM     44  C   UNL     1       4.910   1.093  27.005  0.00  0.00    +0.003 C 
BRANCH  44  46
ATOM     45  C   UNL     1       7.337   0.527  26.675  0.00  0.00    +0.007 C 
ATOM     46  C   UNL     1       6.229   0.718  27.710  0.00  0.00    -0.017 C 
ATOM     47  C   UNL     1       6.667   1.759  28.744  0.00  0.00    +0.007 C 
ENDBRANCH  44  46
ENDBRANCH  43  44
ENDBRANCH  42  43
ENDBRANCH  40  42
ENDBRANCH  39  40
ENDBRANCH  38  39
ENDBRANCH  37  38
ENDBRANCH  35  37
ENDBRANCH  34  35
ENDBRANCH  33  34
ENDBRANCH  32  33
ENDBRANCH  30  32
ENDBRANCH  29  30
ENDBRANCH  28  29
ENDBRANCH  27  28
ENDBRANCH  26  27
ENDBRANCH   1  26
TORSDOF 35
ENDMDL
MODEL 2
REMARK VINA RESULT:      -4.1      1.538      3.860
REMARK  Name = 
REMARK  45 active torsions:
REMARK  status: ('A' for Active; 'I' for Inactive)
REMARK    1  A    between atoms: C_1  and  C_2
REMARK    2  A    between atoms: C_2  and  C_3
REMARK    3  A    between atoms: C_2  and  C_4
REMARK    4  A    between atoms: C_4  and  C_5
REMARK    5  A    between atoms: C_5  and  C_6
REMARK    6  A    between atoms: C_6  and  C_7
REMARK    7  A    between atoms: C_7  and  C_9
REMARK    8  A    between atoms: C_7  and  C_10
REMARK    9  A    between atoms: C_10  and  C_11
REMARK   10  A    between atoms: C_11  and  C_12
REMARK   11  A    between atoms: C_12  and  C_13
REMARK   12  A    between atoms: C_13  and  C_15
REMARK   13  A    between atoms: C_13  and  C_16
REMARK   14  A    between atoms: C_16  and  C_17
REMARK   15  A    between atoms: C_17  and  C_18
REMARK   16  A    between atoms: C_18  and  C_19
REMARK   17  A    between atoms: C_19  and  C_21
REMARK   18  A    between atoms: C_19  and  C_22
REMARK   19  A    between atoms: C_22  and  C_23
REMARK   20  A    between atoms: C_23  and  O_24
REMARK   21  A    between atoms: O_24  and  C_25
REMARK   22  A    between atoms: C_25  and  C_26
REMARK   23  A    between atoms: C_26  and  C_28
REMARK   24  A    between atoms: C_26  and  O_30
REMARK   25  A    between atoms: C_28  and  O_29
REMARK   26  A    between atoms: O_30  and  C_31
REMARK   27  A    between atoms: C_31  and  C_32
REMARK   28  A    between atoms: C_32  and  C_33
REMARK   29  A    between atoms: C_33  and  C_35
REMARK   30  A    between atoms: C_33  and  C_36
REMARK   31  A    between atoms: C_36  and  C_37
REMARK   32  A    between atoms: C_37  and  C_38
REMARK   33  A    between atoms: C_38  and  C_39
REMARK   34  A    between atoms: C_39  and  C_41
REMARK   35  A    between atoms: C_39  and  C_42
REMARK   36  A    between atoms: C_42  and  C_43
REMARK   37  A    between atoms: C_43  and  C_44
REMARK   38  A    between atoms: C_44  and  C_45
REMARK   39  A    between atoms: C_45  and  C_47
REMARK   40  A    between atoms: C_45  and  C_48
REMARK   41  A    between atoms: C_48  and  C_49
REMARK   42  A    between atoms: C_49  and  C_50
REMARK   43  A    between atoms: C_50  and  C_51
REMARK   44  A    between atoms: C_51  and  C_52
REMARK   45  A    between atoms: C_51  and  C_53
REMARK                            x       y       z     vdW  Elec       q    Type
REMARK                         _______ _______ _______ _____ _____    ______ ____
ROOT
ATOM      1  C   UNL     1       8.718  -4.566  26.426  0.00  0.00    +0.169 C 
ENDROOT
BRANCH   1   2
ATOM      2  C   UNL     1       9.370  -5.010  25.099  0.00  0.00    +0.189 C 
BRANCH   2   3
ATOM      3  O   UNL     1       9.806  -3.893  24.328  0.00  0.00    -0.392 OA
ATOM      4  H   UNL     1      10.502  -3.455  24.850  0.00  0.00    +0.210 HD
ENDBRANCH   2   3
ENDBRANCH   1   2
BRANCH   1   5
ATOM      5  O   UNL     1       7.944  -5.620  27.061  0.00  0.00    -0.372 OA
BRANCH   5   6
ATOM      6  C   UNL     1       6.696  -5.108  27.526  0.00  0.00    +0.160 C 
BRANCH   6   7
ATOM      7  C   UNL     1       5.498  -6.057  27.389  0.00  0.00    +0.031 C 
BRANCH   7   8
ATOM      8  C   UNL     1       4.751  -6.139  28.751  0.00  0.00    -0.012 C 
ATOM      9  C   UNL     1       3.291  -6.590  28.562  0.00  0.00    +0.007 C 
BRANCH   8  10
ATOM     10  C   UNL     1       4.816  -4.818  29.555  0.00  0.00    +0.003 C 
BRANCH  10  11
ATOM     11  C   UNL     1       3.658  -3.884  29.164  0.00  0.00    +0.001 C 
BRANCH  11  12
ATOM     12  C   UNL     1       4.097  -2.479  28.749  0.00  0.00    +0.003 C 
BRANCH  12  13
ATOM     13  C   UNL     1       3.495  -2.075  27.380  0.00  0.00    -0.014 C 
ATOM     14  C   UNL     1       3.596  -0.561  27.142  0.00  0.00    +0.007 C 
BRANCH  13  15
ATOM     15  C   UNL     1       4.160  -2.822  26.203  0.00  0.00    +0.003 C 
BRANCH  15  16
ATOM     16  C   UNL     1       3.206  -3.317  25.106  0.00  0.00    +0.001 C 
BRANCH  16  17
ATOM     17  C   UNL     1       2.338  -4.508  25.528  0.00  0.00    +0.003 C 
BRANCH  17  18
ATOM     18  C   UNL     1       2.186  -5.604  24.447  0.00  0.00    -0.014 C 
ATOM     19  C   UNL     1       2.054  -6.963  25.154  0.00  0.00    +0.007 C 
BRANCH  18  20
ATOM     20  C   UNL     1       3.360  -5.608  23.441  0.00  0.00    +0.003 C 
BRANCH  20  21
ATOM     21  C   UNL     1       4.546  -6.465  23.900  0.00  0.00    +0.001 C 
BRANCH  21  22
ATOM     22  C   UNL     1       5.876  -5.706  23.808  0.00  0.00    +0.003 C 
BRANCH  22  23
ATOM     23  C   UNL     1       6.089  -5.015  22.446  0.00  0.00    -0.017 C 
ATOM     24  C   UNL     1       7.123  -5.736  21.578  0.00  0.00    +0.007 C 
ATOM     25  C   UNL     1       6.512  -3.559  22.657  0.00  0.00    +0.007 C 
ENDBRANCH  22  23
ENDBRANCH  21  22
ENDBRANCH  20  21
ENDBRANCH  18  20
ENDBRANCH  17  18
ENDBRANCH  16  17
ENDBRANCH  15  16
ENDBRANCH  13  15
ENDBRANCH  12  13
ENDBRANCH  11  12
ENDBRANCH  10  11
ENDBRANCH   8  10
ENDBRANCH   7   8
ENDBRANCH   6   7
ENDBRANCH   5   6
ENDBRANCH   1   5
BRANCH   1  26
ATOM     26  C   UNL     1       7.860  -3.302  26.226  0.00  0.00    +0.193 C 
BRANCH  26  27
ATOM     27  O   UNL     1       8.612  -2.090  26.398  0.00  0.00    -0.377 OA
BRANCH  27  28
ATOM     28  C   UNL     1       7.790  -1.062  26.960  0.00  0.00    +0.160 C 
BRANCH  28  29
ATOM     29  C   UNL     1       7.891   0.213  26.121  0.00  0.00    +0.031 C 
BRANCH  29  30
ATOM     30  C   UNL     1       6.564   0.598  25.424  0.00  0.00    -0.012 C 
ATOM     31  C   UNL     1       6.353  -0.205  24.135  0.00  0.00    +0.007 C 
BRANCH  30  32
ATOM     32  C   UNL     1       6.527   2.119  25.158  0.00  0.00    +0.003 C 
BRANCH  32  33
ATOM     33  C   UNL     1       5.188   2.580  24.562  0.00  0.00    +0.001 C 
BRANCH  33  34
ATOM     34  C   UNL     1       5.348   3.782  23.632  0.00  0.00    +0.003 C 
BRANCH  34  35
ATOM     35  C   UNL     1       6.665   3.737  22.819  0.00  0.00    -0.014 C 
ATOM     36  C   UNL     1       6.606   2.684  21.709  0.00  0.00    +0.007 C 
BRANCH  35  37
ATOM     37  C   UNL     1       7.023   5.108  22.204  0.00  0.00    +0.003 C 
BRANCH  37  38
ATOM     38  C   UNL     1       7.448   6.119  23.273  0.00  0.00    +0.001 C 
BRANCH  38  39
ATOM     39  C   UNL     1       8.936   6.452  23.213  0.00  0.00    +0.003 C 
BRANCH  39  40
ATOM     40  C   UNL     1       9.734   5.705  24.309  0.00  0.00    -0.014 C 
ATOM     41  C   UNL     1       8.806   5.132  25.386  0.00  0.00    +0.007 C 
BRANCH  40  42
ATOM     42  C   UNL     1      10.611   4.573  23.734  0.00  0.00    +0.003 C 
BRANCH  42  43
ATOM     43  C   UNL     1       9.949   3.201  23.860  0.00  0.00    +0.001 C 
BRANCH  43  44
ATOM     44  C   UNL     1      10.197   2.307  22.647  0.00  0.00    +0.003 C 
BRANCH  44  46
ATOM     45  C   UNL     1       9.405   0.217  21.496  0.00  0.00    +0.007 C 
ATOM     46  C   UNL     1       9.649   0.881  22.851  0.00  0.00    -0.017 C 
ATOM     47  C   UNL     1      10.578   0.001  23.693  0.00  0.00    +0.007 C 
ENDBRANCH  44  46
ENDBRANCH  43  44
ENDBRANCH  42  43
ENDBRANCH  40  42
ENDBRANCH  39  40
ENDBRANCH  38  39
ENDBRANCH  37  38
ENDBRANCH  35  37
ENDBRANCH  34  35
ENDBRANCH  33  34
ENDBRANCH  32  33
ENDBRANCH  30  32
ENDBRANCH  29  30
ENDBRANCH  28  29
ENDBRANCH  27  28
ENDBRANCH  26  27
ENDBRANCH   1  26
TORSDOF 35
ENDMDL
MODEL 3
REMARK VINA RESULT:      -4.0      1.946      6.995
REMARK  Name = 
REMARK  45 active torsions:
REMARK  status: ('A' for Active; 'I' for Inactive)
REMARK    1  A    between atoms: C_1  and  C_2
REMARK    2  A    between atoms: C_2  and  C_3
REMARK    3  A    between atoms: C_2  and  C_4
REMARK    4  A    between atoms: C_4  and  C_5
REMARK    5  A    between atoms: C_5  and  C_6
REMARK    6  A    between atoms: C_6  and  C_7
REMARK    7  A    between atoms: C_7  and  C_9
REMARK    8  A    between atoms: C_7  and  C_10
REMARK    9  A    between atoms: C_10  and  C_11
REMARK   10  A    between atoms: C_11  and  C_12
REMARK   11  A    between atoms: C_12  and  C_13
REMARK   12  A    between atoms: C_13  and  C_15
REMARK   13  A    between atoms: C_13  and  C_16
REMARK   14  A    between atoms: C_16  and  C_17
REMARK   15  A    between atoms: C_17  and  C_18
REMARK   16  A    between atoms: C_18  and  C_19
REMARK   17  A    between atoms: C_19  and  C_21
REMARK   18  A    between atoms: C_19  and  C_22
REMARK   19  A    between atoms: C_22  and  C_23
REMARK   20  A    between atoms: C_23  and  O_24
REMARK   21  A    between atoms: O_24  and  C_25
REMARK   22  A    between atoms: C_25  and  C_26
REMARK   23  A    between atoms: C_26  and  C_28
REMARK   24  A    between atoms: C_26  and  O_30
REMARK   25  A    between atoms: C_28  and  O_29
REMARK   26  A    between atoms: O_30  and  C_31
REMARK   27  A    between atoms: C_31  and  C_32
REMARK   28  A    between atoms: C_32  and  C_33
REMARK   29  A    between atoms: C_33  and  C_35
REMARK   30  A    between atoms: C_33  and  C_36
REMARK   31  A    between atoms: C_36  and  C_37
REMARK   32  A    between atoms: C_37  and  C_38
REMARK   33  A    between atoms: C_38  and  C_39
REMARK   34  A    between atoms: C_39  and  C_41
REMARK   35  A    between atoms: C_39  and  C_42
REMARK   36  A    between atoms: C_42  and  C_43
REMARK   37  A    between atoms: C_43  and  C_44
REMARK   38  A    between atoms: C_44  and  C_45
REMARK   39  A    between atoms: C_45  and  C_47
REMARK   40  A    between atoms: C_45  and  C_48
REMARK   41  A    between atoms: C_48  and  C_49
REMARK   42  A    between atoms: C_49  and  C_50
REMARK   43  A    between atoms: C_50  and  C_51
REMARK   44  A    between atoms: C_51  and  C_52
REMARK   45  A    between atoms: C_51  and  C_53
REMARK                            x       y       z     vdW  Elec       q    Type
REMARK                         _______ _______ _______ _____ _____    ______ ____
ROOT
ATOM      1  C   UNL     1       5.391  -5.350  27.644  0.00  0.00    +0.169 C 
ENDROOT
BRANCH   1   2
ATOM      2  C   UNL     1       4.827  -6.783  27.748  0.00  0.00    +0.189 C 
BRANCH   2   3
ATOM      3  O   UNL     1       5.644  -7.611  28.572  0.00  0.00    -0.392 OA
ATOM      4  H   UNL     1       5.285  -7.538  29.475  0.00  0.00    +0.210 HD
ENDBRANCH   2   3
ENDBRANCH   1   2
BRANCH   1   5
ATOM      5  O   UNL     1       4.666  -4.519  26.697  0.00  0.00    -0.372 OA
BRANCH   5   6
ATOM      6  C   UNL     1       4.457  -3.215  27.238  0.00  0.00    +0.160 C 
BRANCH   6   7
ATOM      7  C   UNL     1       4.297  -2.089  26.209  0.00  0.00    +0.031 C 
BRANCH   7   8
ATOM      8  C   UNL     1       4.921  -0.783  26.778  0.00  0.00    -0.012 C 
ATOM      9  C   UNL     1       4.241  -0.367  28.095  0.00  0.00    +0.007 C 
BRANCH   8  10
ATOM     10  C   UNL     1       4.904   0.385  25.763  0.00  0.00    +0.003 C 
BRANCH  10  11
ATOM     11  C   UNL     1       5.388   1.688  26.420  0.00  0.00    +0.001 C 
BRANCH  11  12
ATOM     12  C   UNL     1       6.379   2.489  25.574  0.00  0.00    +0.003 C 
BRANCH  12  13
ATOM     13  C   UNL     1       6.834   3.780  26.298  0.00  0.00    -0.014 C 
ATOM     14  C   UNL     1       6.938   3.572  27.816  0.00  0.00    +0.007 C 
BRANCH  13  15
ATOM     15  C   UNL     1       8.182   4.310  25.762  0.00  0.00    +0.003 C 
BRANCH  15  16
ATOM     16  C   UNL     1       8.301   5.837  25.652  0.00  0.00    +0.001 C 
BRANCH  16  17
ATOM     17  C   UNL     1       8.244   6.362  24.212  0.00  0.00    +0.003 C 
BRANCH  17  18
ATOM     18  C   UNL     1       7.098   5.768  23.359  0.00  0.00    -0.014 C 
ATOM     19  C   UNL     1       7.438   5.986  21.876  0.00  0.00    +0.007 C 
BRANCH  18  20
ATOM     20  C   UNL     1       5.722   6.377  23.714  0.00  0.00    +0.003 C 
BRANCH  20  21
ATOM     21  C   UNL     1       4.652   5.319  24.012  0.00  0.00    +0.001 C 
BRANCH  21  22
ATOM     22  C   UNL     1       4.197   4.586  22.744  0.00  0.00    +0.003 C 
BRANCH  22  23
ATOM     23  C   UNL     1       3.348   3.332  23.037  0.00  0.00    -0.017 C 
ATOM     24  C   UNL     1       2.143   3.208  22.103  0.00  0.00    +0.007 C 
ATOM     25  C   UNL     1       2.877   3.347  24.494  0.00  0.00    +0.007 C 
ENDBRANCH  22  23
ENDBRANCH  21  22
ENDBRANCH  20  21
ENDBRANCH  18  20
ENDBRANCH  17  18
ENDBRANCH  16  17
ENDBRANCH  15  16
ENDBRANCH  13  15
ENDBRANCH  12  13
ENDBRANCH  11  12
ENDBRANCH  10  11
ENDBRANCH   8  10
ENDBRANCH   7   8
ENDBRANCH   6   7
ENDBRANCH   5   6
ENDBRANCH   1   5
BRANCH   1  26
ATOM     26  C   UNL     1       6.896  -5.370  27.312  0.00  0.00    +0.193 C 
BRANCH  26  27
ATOM     27  O   UNL     1       7.168  -5.908  26.009  0.00  0.00    -0.377 OA
BRANCH  27  28
ATOM     28  C   UNL     1       8.420  -5.421  25.513  0.00  0.00    +0.160 C 
BRANCH  28  29
ATOM     29  C   UNL     1       8.244  -4.849  24.105  0.00  0.00    +0.031 C 
BRANCH  29  30
ATOM     30  C   UNL     1       6.972  -5.362  23.388  0.00  0.00    -0.012 C 
ATOM     31  C   UNL     1       7.302  -5.956  22.013  0.00  0.00    +0.007 C 
BRANCH  30  32
ATOM     32  C   UNL     1       5.931  -4.226  23.280  0.00  0.00    +0.003 C 
BRANCH  32  33
ATOM     33  C   UNL     1       6.413  -3.069  22.389  0.00  0.00    +0.001 C 
BRANCH  33  34
ATOM     34  C   UNL     1       6.167  -1.702  23.027  0.00  0.00    +0.003 C 
BRANCH  34  35
ATOM     35  C   UNL     1       7.421  -0.795  22.995  0.00  0.00    -0.014 C 
ATOM     36  C   UNL     1       8.522  -1.387  22.110  0.00  0.00    +0.007 C 
BRANCH  35  37
ATOM     37  C   UNL     1       7.097   0.638  22.518  0.00  0.00    +0.003 C 
BRANCH  37  38
ATOM     38  C   UNL     1       8.298   1.296  21.833  0.00  0.00    +0.001 C 
BRANCH  38  39
ATOM     39  C   UNL     1       8.820   2.511  22.596  0.00  0.00    +0.003 C 
BRANCH  39  40
ATOM     40  C   UNL     1      10.349   2.433  22.819  0.00  0.00    -0.014 C 
ATOM     41  C   UNL     1      10.909   3.762  23.338  0.00  0.00    +0.007 C 
BRANCH  40  42
ATOM     42  C   UNL     1      10.748   1.298  23.784  0.00  0.00    +0.003 C 
BRANCH  42  43
ATOM     43  C   UNL     1       9.792   1.176  24.970  0.00  0.00    +0.001 C 
BRANCH  43  44
ATOM     44  C   UNL     1       9.802  -0.213  25.603  0.00  0.00    +0.003 C 
BRANCH  44  46
ATOM     45  C   UNL     1       8.272  -2.070  26.333  0.00  0.00    +0.007 C 
ATOM     46  C   UNL     1       8.461  -0.554  26.284  0.00  0.00    -0.017 C 
ATOM     47  C   UNL     1       8.350   0.023  27.699  0.00  0.00    +0.007 C 
ENDBRANCH  44  46
ENDBRANCH  43  44
ENDBRANCH  42  43
ENDBRANCH  40  42
ENDBRANCH  39  40
ENDBRANCH  38  39
ENDBRANCH  37  38
ENDBRANCH  35  37
ENDBRANCH  34  35
ENDBRANCH  33  34
ENDBRANCH  32  33
ENDBRANCH  30  32
ENDBRANCH  29  30
ENDBRANCH  28  29
ENDBRANCH  27  28
ENDBRANCH  26  27
ENDBRANCH   1  26
TORSDOF 35
ENDMDL
MODEL 4
REMARK VINA RESULT:      -4.0      1.643      9.053
REMARK  Name = 
REMARK  45 active torsions:
REMARK  status: ('A' for Active; 'I' for Inactive)
REMARK    1  A    between atoms: C_1  and  C_2
REMARK    2  A    between atoms: C_2  and  C_3
REMARK    3  A    between atoms: C_2  and  C_4
REMARK    4  A    between atoms: C_4  and  C_5
REMARK    5  A    between atoms: C_5  and  C_6
REMARK    6  A    between atoms: C_6  and  C_7
REMARK    7  A    between atoms: C_7  and  C_9
REMARK    8  A    between atoms: C_7  and  C_10
REMARK    9  A    between atoms: C_10  and  C_11
REMARK   10  A    between atoms: C_11  and  C_12
REMARK   11  A    between atoms: C_12  and  C_13
REMARK   12  A    between atoms: C_13  and  C_15
REMARK   13  A    between atoms: C_13  and  C_16
REMARK   14  A    between atoms: C_16  and  C_17
REMARK   15  A    between atoms: C_17  and  C_18
REMARK   16  A    between atoms: C_18  and  C_19
REMARK   17  A    between atoms: C_19  and  C_21
REMARK   18  A    between atoms: C_19  and  C_22
REMARK   19  A    between atoms: C_22  and  C_23
REMARK   20  A    between atoms: C_23  and  O_24
REMARK   21  A    between atoms: O_24  and  C_25
REMARK   22  A    between atoms: C_25  and  C_26
REMARK   23  A    between atoms: C_26  and  C_28
REMARK   24  A    between atoms: C_26  and  O_30
REMARK   25  A    between atoms: C_28  and  O_29
REMARK   26  A    between atoms: O_30  and  C_31
REMARK   27  A    between atoms: C_31  and  C_32
REMARK   28  A    between atoms: C_32  and  C_33
REMARK   29  A    between atoms: C_33  and  C_35
REMARK   30  A    between atoms: C_33  and  C_36
REMARK   31  A    between atoms: C_36  and  C_37
REMARK   32  A    between atoms: C_37  and  C_38
REMARK   33  A    between atoms: C_38  and  C_39
REMARK   34  A    between atoms: C_39  and  C_41
REMARK   35  A    between atoms: C_39  and  C_42
REMARK   36  A    between atoms: C_42  and  C_43
REMARK   37  A    between atoms: C_43  and  C_44
REMARK   38  A    between atoms: C_44  and  C_45
REMARK   39  A    between atoms: C_45  and  C_47
REMARK   40  A    between atoms: C_45  and  C_48
REMARK   41  A    between atoms: C_48  and  C_49
REMARK   42  A    between atoms: C_49  and  C_50
REMARK   43  A    between atoms: C_50  and  C_51
REMARK   44  A    between atoms: C_51  and  C_52
REMARK   45  A    between atoms: C_51  and  C_53
REMARK                            x       y       z     vdW  Elec       q    Type
REMARK                         _______ _______ _______ _____ _____    ______ ____
ROOT
ATOM      1  C   UNL     1       9.084  -1.894  22.554  0.00  0.00    +0.169 C 
ENDROOT
BRANCH   1   2
ATOM      2  C   UNL     1      10.024  -2.310  23.707  0.00  0.00    +0.189 C 
BRANCH   2   3
ATOM      3  O   UNL     1       9.684  -3.594  24.225  0.00  0.00    -0.392 OA
ATOM      4  H   UNL     1       9.068  -3.992  23.585  0.00  0.00    +0.210 HD
ENDBRANCH   2   3
ENDBRANCH   1   2
BRANCH   1   5
ATOM      5  O   UNL     1       9.739  -1.065  21.556  0.00  0.00    -0.372 OA
BRANCH   5   6
ATOM      6  C   UNL     1       9.161   0.239  21.537  0.00  0.00    +0.160 C 
BRANCH   6   7
ATOM      7  C   UNL     1      10.068   1.373  22.032  0.00  0.00    +0.031 C 
BRANCH   7   8
ATOM      8  C   UNL     1       9.248   2.321  22.953  0.00  0.00    -0.012 C 
ATOM      9  C   UNL     1       7.997   2.856  22.233  0.00  0.00    +0.007 C 
BRANCH   8  10
ATOM     10  C   UNL     1      10.091   3.487  23.522  0.00  0.00    +0.003 C 
BRANCH  10  11
ATOM     11  C   UNL     1       9.193   4.519  24.223  0.00  0.00    +0.001 C 
BRANCH  11  12
ATOM     12  C   UNL     1       9.241   5.917  23.605  0.00  0.00    +0.003 C 
BRANCH  12  13
ATOM     13  C   UNL     1       7.821   6.513  23.432  0.00  0.00    -0.014 C 
ATOM     14  C   UNL     1       7.357   6.455  21.970  0.00  0.00    +0.007 C 
BRANCH  13  15
ATOM     15  C   UNL     1       6.777   5.811  24.327  0.00  0.00    +0.003 C 
BRANCH  15  16
ATOM     16  C   UNL     1       5.352   6.378  24.259  0.00  0.00    +0.001 C 
BRANCH  16  17
ATOM     17  C   UNL     1       4.274   5.320  23.992  0.00  0.00    +0.003 C 
BRANCH  17  18
ATOM     18  C   UNL     1       4.827   3.913  23.664  0.00  0.00    -0.014 C 
ATOM     19  C   UNL     1       4.241   3.467  22.315  0.00  0.00    +0.007 C 
BRANCH  18  20
ATOM     20  C   UNL     1       4.518   2.884  24.776  0.00  0.00    +0.003 C 
BRANCH  20  21
ATOM     21  C   UNL     1       5.508   1.713  24.808  0.00  0.00    +0.001 C 
BRANCH  21  22
ATOM     22  C   UNL     1       6.758   2.037  25.636  0.00  0.00    +0.003 C 
BRANCH  22  23
ATOM     23  C   UNL     1       6.432   2.576  27.044  0.00  0.00    -0.017 C 
ATOM     24  C   UNL     1       7.078   3.936  27.315  0.00  0.00    +0.007 C 
ATOM     25  C   UNL     1       6.877   1.568  28.107  0.00  0.00    +0.007 C 
ENDBRANCH  22  23
ENDBRANCH  21  22
ENDBRANCH  20  21
ENDBRANCH  18  20
ENDBRANCH  17  18
ENDBRANCH  16  17
ENDBRANCH  15  16
ENDBRANCH  13  15
ENDBRANCH  12  13
ENDBRANCH  11  12
ENDBRANCH  10  11
ENDBRANCH   8  10
ENDBRANCH   7   8
ENDBRANCH   6   7
ENDBRANCH   5   6
ENDBRANCH   1   5
BRANCH   1  26
ATOM     26  C   UNL     1       7.818  -1.202  23.094  0.00  0.00    +0.193 C 
BRANCH  26  27
ATOM     27  O   UNL     1       7.724  -1.261  24.526  0.00  0.00    -0.377 OA
BRANCH  27  28
ATOM     28  C   UNL     1       6.496  -1.878  24.926  0.00  0.00    +0.160 C 
BRANCH  28  29
ATOM     29  C   UNL     1       6.238  -1.629  26.413  0.00  0.00    +0.031 C 
BRANCH  29  30
ATOM     30  C   UNL     1       4.749  -1.366  26.743  0.00  0.00    -0.012 C 
ATOM     31  C   UNL     1       4.499  -1.366  28.255  0.00  0.00    +0.007 C 
BRANCH  30  32
ATOM     32  C   UNL     1       3.856  -2.400  26.020  0.00  0.00    +0.003 C 
BRANCH  32  33
ATOM     33  C   UNL     1       2.585  -2.737  26.815  0.00  0.00    +0.001 C 
BRANCH  33  34
ATOM     34  C   UNL     1       2.066  -4.143  26.513  0.00  0.00    +0.003 C 
BRANCH  34  35
ATOM     35  C   UNL     1       1.992  -5.036  27.775  0.00  0.00    -0.014 C 
ATOM     36  C   UNL     1       1.897  -6.520  27.410  0.00  0.00    +0.007 C 
BRANCH  35  37
ATOM     37  C   UNL     1       3.194  -4.818  28.720  0.00  0.00    +0.003 C 
BRANCH  37  38
ATOM     38  C   UNL     1       4.334  -5.798  28.429  0.00  0.00    +0.001 C 
BRANCH  38  39
ATOM     39  C   UNL     1       5.668  -5.098  28.184  0.00  0.00    +0.003 C 
BRANCH  39  40
ATOM     40  C   UNL     1       6.094  -5.183  26.699  0.00  0.00    -0.014 C 
ATOM     41  C   UNL     1       7.615  -5.311  26.559  0.00  0.00    +0.007 C 
BRANCH  40  42
ATOM     42  C   UNL     1       5.411  -6.348  25.954  0.00  0.00    +0.003 C 
BRANCH  42  43
ATOM     43  C   UNL     1       4.563  -5.870  24.775  0.00  0.00    +0.001 C 
BRANCH  43  44
ATOM     44  C   UNL     1       5.209  -6.157  23.422  0.00  0.00    +0.003 C 
BRANCH  44  46
ATOM     45  C   UNL     1       7.480  -5.761  22.421  0.00  0.00    +0.007 C 
ATOM     46  C   UNL     1       6.253  -5.090  23.037  0.00  0.00    -0.017 C 
ATOM     47  C   UNL     1       5.702  -4.040  22.066  0.00  0.00    +0.007 C 
ENDBRANCH  44  46
ENDBRANCH  43  44
ENDBRANCH  42  43
ENDBRANCH  40  42
ENDBRANCH  39  40
ENDBRANCH  38  39
ENDBRANCH  37  38
ENDBRANCH  35  37
ENDBRANCH  34  35
ENDBRANCH  33  34
ENDBRANCH  32  33
ENDBRANCH  30  32
ENDBRANCH  29  30
ENDBRANCH  28  29
ENDBRANCH  27  28
ENDBRANCH  26  27
ENDBRANCH   1  26
TORSDOF 35
ENDMDL
MODEL 5
REMARK VINA RESULT:      -4.0      1.887      4.365
REMARK  Name = 
REMARK  45 active torsions:
REMARK  status: ('A' for Active; 'I' for Inactive)
REMARK    1  A    between atoms: C_1  and  C_2
REMARK    2  A    between atoms: C_2  and  C_3
REMARK    3  A    between atoms: C_2  and  C_4
REMARK    4  A    between atoms: C_4  and  C_5
REMARK    5  A    between atoms: C_5  and  C_6
REMARK    6  A    between atoms: C_6  and  C_7
REMARK    7  A    between atoms: C_7  and  C_9
REMARK    8  A    between atoms: C_7  and  C_10
REMARK    9  A    between atoms: C_10  and  C_11
REMARK   10  A    between atoms: C_11  and  C_12
REMARK   11  A    between atoms: C_12  and  C_13
REMARK   12  A    between atoms: C_13  and  C_15
REMARK   13  A    between atoms: C_13  and  C_16
REMARK   14  A    between atoms: C_16  and  C_17
REMARK   15  A    between atoms: C_17  and  C_18
REMARK   16  A    between atoms: C_18  and  C_19
REMARK   17  A    between atoms: C_19  and  C_21
REMARK   18  A    between atoms: C_19  and  C_22
REMARK   19  A    between atoms: C_22  and  C_23
REMARK   20  A    between atoms: C_23  and  O_24
REMARK   21  A    between atoms: O_24  and  C_25
REMARK   22  A    between atoms: C_25  and  C_26
REMARK   23  A    between atoms: C_26  and  C_28
REMARK   24  A    between atoms: C_26  and  O_30
REMARK   25  A    between atoms: C_28  and  O_29
REMARK   26  A    between atoms: O_30  and  C_31
REMARK   27  A    between atoms: C_31  and  C_32
REMARK   28  A    between atoms: C_32  and  C_33
REMARK   29  A    between atoms: C_33  and  C_35
REMARK   30  A    between atoms: C_33  and  C_36
REMARK   31  A    between atoms: C_36  and  C_37
REMARK   32  A    between atoms: C_37  and  C_38
REMARK   33  A    between atoms: C_38  and  C_39
REMARK   34  A    between atoms: C_39  and  C_41
REMARK   35  A    between atoms: C_39  and  C_42
REMARK   36  A    between atoms: C_42  and  C_43
REMARK   37  A    between atoms: C_43  and  C_44
REMARK   38  A    between atoms: C_44  and  C_45
REMARK   39  A    between atoms: C_45  and  C_47
REMARK   40  A    between atoms: C_45  and  C_48
REMARK   41  A    between atoms: C_48  and  C_49
REMARK   42  A    between atoms: C_49  and  C_50
REMARK   43  A    between atoms: C_50  and  C_51
REMARK   44  A    between atoms: C_51  and  C_52
REMARK   45  A    between atoms: C_51  and  C_53
REMARK                            x       y       z     vdW  Elec       q    Type
REMARK                         _______ _______ _______ _____ _____    ______ ____
ROOT
ATOM      1  C   UNL     1       9.325  -1.370  23.473  0.00  0.00    +0.169 C 
ENDROOT
BRANCH   1   2
ATOM      2  C   UNL     1      10.184  -1.480  22.194  0.00  0.00    +0.189 C 
BRANCH   2   3
ATOM      3  O   UNL     1       9.752  -0.565  21.190  0.00  0.00    -0.392 OA
ATOM      4  H   UNL     1      10.453   0.107  21.113  0.00  0.00    +0.210 HD
ENDBRANCH   2   3
ENDBRANCH   1   2
BRANCH   1   5
ATOM      5  O   UNL     1       7.937  -1.036  23.199  0.00  0.00    -0.372 OA
BRANCH   5   6
ATOM      6  C   UNL     1       7.308  -0.529  24.375  0.00  0.00    +0.160 C 
BRANCH   6   7
ATOM      7  C   UNL     1       5.865  -0.994  24.608  0.00  0.00    +0.031 C 
BRANCH   7   8
ATOM      8  C   UNL     1       5.370  -0.462  25.983  0.00  0.00    -0.012 C 
ATOM      9  C   UNL     1       6.550  -0.201  26.938  0.00  0.00    +0.007 C 
BRANCH   8  10
ATOM     10  C   UNL     1       4.325  -1.390  26.648  0.00  0.00    +0.003 C 
BRANCH  10  11
ATOM     11  C   UNL     1       4.353  -2.789  26.011  0.00  0.00    +0.001 C 
BRANCH  11  12
ATOM     12  C   UNL     1       4.587  -3.928  27.004  0.00  0.00    +0.003 C 
BRANCH  12  13
ATOM     13  C   UNL     1       3.305  -4.770  27.218  0.00  0.00    -0.014 C 
ATOM     14  C   UNL     1       2.134  -4.244  26.376  0.00  0.00    +0.007 C 
BRANCH  13  15
ATOM     15  C   UNL     1       3.527  -6.266  26.906  0.00  0.00    +0.003 C 
BRANCH  15  16
ATOM     16  C   UNL     1       4.825  -6.605  26.158  0.00  0.00    +0.001 C 
BRANCH  16  17
ATOM     17  C   UNL     1       4.624  -6.905  24.668  0.00  0.00    +0.003 C 
BRANCH  17  18
ATOM     18  C   UNL     1       4.764  -5.672  23.743  0.00  0.00    -0.014 C 
ATOM     19  C   UNL     1       3.385  -5.362  23.141  0.00  0.00    +0.007 C 
BRANCH  18  20
ATOM     20  C   UNL     1       5.824  -5.883  22.637  0.00  0.00    +0.003 C 
BRANCH  20  21
ATOM     21  C   UNL     1       7.249  -5.547  23.094  0.00  0.00    +0.001 C 
BRANCH  21  22
ATOM     22  C   UNL     1       7.276  -4.379  24.088  0.00  0.00    +0.003 C 
BRANCH  22  23
ATOM     23  C   UNL     1       7.927  -4.743  25.438  0.00  0.00    -0.017 C 
ATOM     24  C   UNL     1       8.087  -3.531  26.358  0.00  0.00    +0.007 C 
ATOM     25  C   UNL     1       9.289  -5.401  25.203  0.00  0.00    +0.007 C 
ENDBRANCH  22  23
ENDBRANCH  21  22
ENDBRANCH  20  21
ENDBRANCH  18  20
ENDBRANCH  17  18
ENDBRANCH  16  17
ENDBRANCH  15  16
ENDBRANCH  13  15
ENDBRANCH  12  13
ENDBRANCH  11  12
ENDBRANCH  10  11
ENDBRANCH   8  10
ENDBRANCH   7   8
ENDBRANCH   6   7
ENDBRANCH   5   6
ENDBRANCH   1   5
BRANCH   1  26
ATOM     26  C   UNL     1       9.942  -0.371  24.470  0.00  0.00    +0.193 C 
BRANCH  26  27
ATOM     27  O   UNL     1      10.628   0.710  23.817  0.00  0.00    -0.377 OA
BRANCH  27  28
ATOM     28  C   UNL     1      10.054   1.968  24.188  0.00  0.00    +0.160 C 
BRANCH  28  29
ATOM     29  C   UNL     1      10.799   3.112  23.497  0.00  0.00    +0.031 C 
BRANCH  29  30
ATOM     30  C   UNL     1      10.049   4.464  23.568  0.00  0.00    -0.012 C 
ATOM     31  C   UNL     1      11.014   5.632  23.800  0.00  0.00    +0.007 C 
BRANCH  30  32
ATOM     32  C   UNL     1       8.955   4.406  24.658  0.00  0.00    +0.003 C 
BRANCH  32  33
ATOM     33  C   UNL     1       7.587   4.883  24.145  0.00  0.00    +0.001 C 
BRANCH  33  34
ATOM     34  C   UNL     1       7.389   4.592  22.658  0.00  0.00    +0.003 C 
BRANCH  34  35
ATOM     35  C   UNL     1       6.570   3.302  22.407  0.00  0.00    -0.014 C 
ATOM     36  C   UNL     1       7.422   2.214  21.745  0.00  0.00    +0.007 C 
BRANCH  35  37
ATOM     37  C   UNL     1       5.943   2.743  23.702  0.00  0.00    +0.003 C 
BRANCH  37  38
ATOM     38  C   UNL     1       4.413   2.791  23.662  0.00  0.00    +0.001 C 
BRANCH  38  39
ATOM     39  C   UNL     1       3.879   4.057  22.997  0.00  0.00    +0.003 C 
BRANCH  39  40
ATOM     40  C   UNL     1       3.124   4.957  24.004  0.00  0.00    -0.014 C 
ATOM     41  C   UNL     1       2.184   4.136  24.895  0.00  0.00    +0.007 C 
BRANCH  40  42
ATOM     42  C   UNL     1       4.078   5.782  24.892  0.00  0.00    +0.003 C 
BRANCH  42  43
ATOM     43  C   UNL     1       3.973   5.406  26.369  0.00  0.00    +0.001 C 
BRANCH  43  44
ATOM     44  C   UNL     1       5.331   5.134  27.012  0.00  0.00    +0.003 C 
BRANCH  44  46
ATOM     45  C   UNL     1       6.824   3.398  28.051  0.00  0.00    +0.007 C 
ATOM     46  C   UNL     1       5.636   3.626  27.116  0.00  0.00    -0.017 C 
ATOM     47  C   UNL     1       4.436   2.809  27.605  0.00  0.00    +0.007 C 
ENDBRANCH  44  46
ENDBRANCH  43  44
ENDBRANCH  42  43
ENDBRANCH  40  42
ENDBRANCH  39  40
ENDBRANCH  38  39
ENDBRANCH  37  38
ENDBRANCH  35  37
ENDBRANCH  34  35
ENDBRANCH  33  34
ENDBRANCH  32  33
ENDBRANCH  30  32
ENDBRANCH  29  30
ENDBRANCH  28  29
ENDBRANCH  27  28
ENDBRANCH  26  27
ENDBRANCH   1  26
TORSDOF 35
ENDMDL
MODEL 6
REMARK VINA RESULT:      -4.0      1.391      8.255
REMARK  Name = 
REMARK  45 active torsions:
REMARK  status: ('A' for Active; 'I' for Inactive)
REMARK    1  A    between atoms: C_1  and  C_2
REMARK    2  A    between atoms: C_2  and  C_3
REMARK    3  A    between atoms: C_2  and  C_4
REMARK    4  A    between atoms: C_4  and  C_5
REMARK    5  A    between atoms: C_5  and  C_6
REMARK    6  A    between atoms: C_6  and  C_7
REMARK    7  A    between atoms: C_7  and  C_9
REMARK    8  A    between atoms: C_7  and  C_10
REMARK    9  A    between atoms: C_10  and  C_11
REMARK   10  A    between atoms: C_11  and  C_12
REMARK   11  A    between atoms: C_12  and  C_13
REMARK   12  A    between atoms: C_13  and  C_15
REMARK   13  A    between atoms: C_13  and  C_16
REMARK   14  A    between atoms: C_16  and  C_17
REMARK   15  A    between atoms: C_17  and  C_18
REMARK   16  A    between atoms: C_18  and  C_19
REMARK   17  A    between atoms: C_19  and  C_21
REMARK   18  A    between atoms: C_19  and  C_22
REMARK   19  A    between atoms: C_22  and  C_23
REMARK   20  A    between atoms: C_23  and  O_24
REMARK   21  A    between atoms: O_24  and  C_25
REMARK   22  A    between atoms: C_25  and  C_26
REMARK   23  A    between atoms: C_26  and  C_28
REMARK   24  A    between atoms: C_26  and  O_30
REMARK   25  A    between atoms: C_28  and  O_29
REMARK   26  A    between atoms: O_30  and  C_31
REMARK   27  A    between atoms: C_31  and  C_32
REMARK   28  A    between atoms: C_32  and  C_33
REMARK   29  A    between atoms: C_33  and  C_35
REMARK   30  A    between atoms: C_33  and  C_36
REMARK   31  A    between atoms: C_36  and  C_37
REMARK   32  A    between atoms: C_37  and  C_38
REMARK   33  A    between atoms: C_38  and  C_39
REMARK   34  A    between atoms: C_39  and  C_41
REMARK   35  A    between atoms: C_39  and  C_42
REMARK   36  A    between atoms: C_42  and  C_43
REMARK   37  A    between atoms: C_43  and  C_44
REMARK   38  A    between atoms: C_44  and  C_45
REMARK   39  A    between atoms: C_45  and  C_47
REMARK   40  A    between atoms: C_45  and  C_48
REMARK   41  A    between atoms: C_48  and  C_49
REMARK   42  A    between atoms: C_49  and  C_50
REMARK   43  A    between atoms: C_50  and  C_51
REMARK   44  A    between atoms: C_51  and  C_52
REMARK   45  A    between atoms: C_51  and  C_53
REMARK                            x       y       z     vdW  Elec       q    Type
REMARK                         _______ _______ _______ _____ _____    ______ ____
ROOT
ATOM      1  C   UNL     1       8.215  -4.378  25.851  0.00  0.00    +0.169 C 
ENDROOT
BRANCH   1   2
ATOM      2  C   UNL     1       9.506  -4.710  25.071  0.00  0.00    +0.189 C 
BRANCH   2   3
ATOM      3  O   UNL     1       9.932  -6.050  25.305  0.00  0.00    -0.392 OA
ATOM      4  H   UNL     1       9.250  -6.459  25.869  0.00  0.00    +0.210 HD
ENDBRANCH   2   3
ENDBRANCH   1   2
BRANCH   1   5
ATOM      5  O   UNL     1       8.433  -3.435  26.936  0.00  0.00    -0.372 OA
BRANCH   5   6
ATOM      6  C   UNL     1       7.843  -2.174  26.624  0.00  0.00    +0.160 C 
BRANCH   6   7
ATOM      7  C   UNL     1       6.348  -2.207  26.283  0.00  0.00    +0.031 C 
BRANCH   7   8
ATOM      8  C   UNL     1       5.635  -1.019  26.990  0.00  0.00    -0.012 C 
ATOM      9  C   UNL     1       4.611  -1.519  28.026  0.00  0.00    +0.007 C 
BRANCH   8  10
ATOM     10  C   UNL     1       4.971  -0.037  25.996  0.00  0.00    +0.003 C 
BRANCH  10  11
ATOM     11  C   UNL     1       6.032   0.669  25.134  0.00  0.00    +0.001 C 
BRANCH  11  12
ATOM     12  C   UNL     1       7.194   1.264  25.930  0.00  0.00    +0.003 C 
BRANCH  12  13
ATOM     13  C   UNL     1       6.957   2.761  26.252  0.00  0.00    -0.014 C 
ATOM     14  C   UNL     1       6.928   3.017  27.766  0.00  0.00    +0.007 C 
BRANCH  13  15
ATOM     15  C   UNL     1       8.016   3.676  25.600  0.00  0.00    +0.003 C 
BRANCH  15  16
ATOM     16  C   UNL     1       9.022   2.976  24.675  0.00  0.00    +0.001 C 
BRANCH  16  17
ATOM     17  C   UNL     1       8.806   3.270  23.185  0.00  0.00    +0.003 C 
BRANCH  17  18
ATOM     18  C   UNL     1       7.337   3.555  22.796  0.00  0.00    -0.014 C 
ATOM     19  C   UNL     1       6.855   2.426  21.871  0.00  0.00    +0.007 C 
BRANCH  18  20
ATOM     20  C   UNL     1       7.161   4.939  22.129  0.00  0.00    +0.003 C 
BRANCH  20  21
ATOM     21  C   UNL     1       6.423   5.949  23.018  0.00  0.00    +0.001 C 
BRANCH  21  22
ATOM     22  C   UNL     1       4.900   5.823  22.891  0.00  0.00    +0.003 C 
BRANCH  22  23
ATOM     23  C   UNL     1       4.219   5.342  24.189  0.00  0.00    -0.017 C 
ATOM     24  C   UNL     1       4.968   5.789  25.445  0.00  0.00    +0.007 C 
ATOM     25  C   UNL     1       4.087   3.817  24.177  0.00  0.00    +0.007 C 
ENDBRANCH  22  23
ENDBRANCH  21  22
ENDBRANCH  20  21
ENDBRANCH  18  20
ENDBRANCH  17  18
ENDBRANCH  16  17
ENDBRANCH  15  16
ENDBRANCH  13  15
ENDBRANCH  12  13
ENDBRANCH  11  12
ENDBRANCH  10  11
ENDBRANCH   8  10
ENDBRANCH   7   8
ENDBRANCH   6   7
ENDBRANCH   5   6
ENDBRANCH   1   5
BRANCH   1  26
ATOM     26  C   UNL     1       7.535  -5.660  26.369  0.00  0.00    +0.193 C 
BRANCH  26  27
ATOM     27  O   UNL     1       7.566  -5.762  27.801  0.00  0.00    -0.377 OA
BRANCH  27  28
ATOM     28  C   UNL     1       6.241  -5.705  28.339  0.00  0.00    +0.160 C 
BRANCH  28  29
ATOM     29  C   UNL     1       5.214  -6.012  27.248  0.00  0.00    +0.031 C 
BRANCH  29  30
ATOM     30  C   UNL     1       3.775  -5.580  27.619  0.00  0.00    -0.012 C 
ATOM     31  C   UNL     1       3.672  -5.172  29.093  0.00  0.00    +0.007 C 
BRANCH  30  32
ATOM     32  C   UNL     1       2.777  -6.707  27.271  0.00  0.00    +0.003 C 
BRANCH  32  33
ATOM     33  C   UNL     1       2.342  -6.673  25.797  0.00  0.00    +0.001 C 
BRANCH  33  34
ATOM     34  C   UNL     1       1.404  -5.504  25.494  0.00  0.00    +0.003 C 
BRANCH  34  35
ATOM     35  C   UNL     1       2.036  -4.466  24.536  0.00  0.00    -0.014 C 
ATOM     36  C   UNL     1       2.706  -3.323  25.305  0.00  0.00    +0.007 C 
BRANCH  35  37
ATOM     37  C   UNL     1       3.061  -5.103  23.572  0.00  0.00    +0.003 C 
BRANCH  37  38
ATOM     38  C   UNL     1       4.470  -4.542  23.785  0.00  0.00    +0.001 C 
BRANCH  38  39
ATOM     39  C   UNL     1       5.565  -5.540  23.419  0.00  0.00    +0.003 C 
BRANCH  39  40
ATOM     40  C   UNL     1       6.540  -4.959  22.367  0.00  0.00    -0.014 C 
ATOM     41  C   UNL     1       6.337  -5.612  20.994  0.00  0.00    +0.007 C 
BRANCH  40  42
ATOM     42  C   UNL     1       6.417  -3.428  22.229  0.00  0.00    +0.003 C 
BRANCH  42  43
ATOM     43  C   UNL     1       7.728  -2.707  22.541  0.00  0.00    +0.001 C 
BRANCH  43  44
ATOM     44  C   UNL     1       7.551  -1.201  22.719  0.00  0.00    +0.003 C 
BRANCH  44  46
ATOM     45  C   UNL     1       9.868  -1.349  23.684  0.00  0.00    +0.007 C 
ATOM     46  C   UNL     1       8.899  -0.472  22.893  0.00  0.00    -0.017 C 
ATOM     47  C   UNL     1       9.538  -0.078  21.557  0.00  0.00    +0.007 C 
ENDBRANCH  44  46
ENDBRANCH  43  44
ENDBRANCH  42  43
ENDBRANCH  40  42
ENDBRANCH  39  40
ENDBRANCH  38  39
ENDBRANCH  37  38
ENDBRANCH  35  37
ENDBRANCH  34  35
ENDBRANCH  33  34
ENDBRANCH  32  33
ENDBRANCH  30  32
ENDBRANCH  29  30
ENDBRANCH  28  29
ENDBRANCH  27  28
ENDBRANCH  26  27
ENDBRANCH   1  26
TORSDOF 35
ENDMDL
MODEL 7
REMARK VINA RESULT:      -4.0      1.614      4.235
REMARK  Name = 
REMARK  45 active torsions:
REMARK  status: ('A' for Active; 'I' for Inactive)
REMARK    1  A    between atoms: C_1  and  C_2
REMARK    2  A    between atoms: C_2  and  C_3
REMARK    3  A    between atoms: C_2  and  C_4
REMARK    4  A    between atoms: C_4  and  C_5
REMARK    5  A    between atoms: C_5  and  C_6
REMARK    6  A    between atoms: C_6  and  C_7
REMARK    7  A    between atoms: C_7  and  C_9
REMARK    8  A    between atoms: C_7  and  C_10
REMARK    9  A    between atoms: C_10  and  C_11
REMARK   10  A    between atoms: C_11  and  C_12
REMARK   11  A    between atoms: C_12  and  C_13
REMARK   12  A    between atoms: C_13  and  C_15
REMARK   13  A    between atoms: C_13  and  C_16
REMARK   14  A    between atoms: C_16  and  C_17
REMARK   15  A    between atoms: C_17  and  C_18
REMARK   16  A    between atoms: C_18  and  C_19
REMARK   17  A    between atoms: C_19  and  C_21
REMARK   18  A    between atoms: C_19  and  C_22
REMARK   19  A    between atoms: C_22  and  C_23
REMARK   20  A    between atoms: C_23  and  O_24
REMARK   21  A    between atoms: O_24  and  C_25
REMARK   22  A    between atoms: C_25  and  C_26
REMARK   23  A    between atoms: C_26  and  C_28
REMARK   24  A    between atoms: C_26  and  O_30
REMARK   25  A    between atoms: C_28  and  O_29
REMARK   26  A    between atoms: O_30  and  C_31
REMARK   27  A    between atoms: C_31  and  C_32
REMARK   28  A    between atoms: C_32  and  C_33
REMARK   29  A    between atoms: C_33  and  C_35
REMARK   30  A    between atoms: C_33  and  C_36
REMARK   31  A    between atoms: C_36  and  C_37
REMARK   32  A    between atoms: C_37  and  C_38
REMARK   33  A    between atoms: C_38  and  C_39
REMARK   34  A    between atoms: C_39  and  C_41
REMARK   35  A    between atoms: C_39  and  C_42
REMARK   36  A    between atoms: C_42  and  C_43
REMARK   37  A    between atoms: C_43  and  C_44
REMARK   38  A    between atoms: C_44  and  C_45
REMARK   39  A    between atoms: C_45  and  C_47
REMARK   40  A    between atoms: C_45  and  C_48
REMARK   41  A    between atoms: C_48  and  C_49
REMARK   42  A    between atoms: C_49  and  C_50
REMARK   43  A    between atoms: C_50  and  C_51
REMARK   44  A    between atoms: C_51  and  C_52
REMARK   45  A    between atoms: C_51  and  C_53
REMARK                            x       y       z     vdW  Elec       q    Type
REMARK                         _______ _______ _______ _____ _____    ______ ____
ROOT
ATOM      1  C   UNL     1      10.238  -1.209  23.430  0.00  0.00    +0.169 C 
ENDROOT
BRANCH   1   2
ATOM      2  C   UNL     1       9.398  -1.893  22.329  0.00  0.00    +0.189 C 
BRANCH   2   3
ATOM      3  O   UNL     1       9.404  -1.140  21.119  0.00  0.00    -0.392 OA
ATOM      4  H   UNL     1      10.181  -0.554  21.166  0.00  0.00    +0.210 HD
ENDBRANCH   2   3
ENDBRANCH   1   2
BRANCH   1   5
ATOM      5  O   UNL     1       9.688  -1.394  24.763  0.00  0.00    -0.372 OA
BRANCH   5   6
ATOM      6  C   UNL     1       9.007  -2.645  24.851  0.00  0.00    +0.160 C 
BRANCH   6   7
ATOM      7  C   UNL     1       8.531  -3.043  26.253  0.00  0.00    +0.031 C 
BRANCH   7   8
ATOM      8  C   UNL     1       8.720  -4.575  26.443  0.00  0.00    -0.012 C 
ATOM      9  C   UNL     1       9.478  -5.196  25.255  0.00  0.00    +0.007 C 
BRANCH   8  10
ATOM     10  C   UNL     1       7.387  -5.320  26.691  0.00  0.00    +0.003 C 
BRANCH  10  11
ATOM     11  C   UNL     1       6.241  -4.324  26.934  0.00  0.00    +0.001 C 
BRANCH  11  12
ATOM     12  C   UNL     1       5.470  -4.558  28.234  0.00  0.00    +0.003 C 
BRANCH  12  13
ATOM     13  C   UNL     1       5.327  -6.067  28.549  0.00  0.00    -0.014 C 
ATOM     14  C   UNL     1       5.968  -6.429  29.897  0.00  0.00    +0.007 C 
BRANCH  13  15
ATOM     15  C   UNL     1       3.854  -6.531  28.544  0.00  0.00    +0.003 C 
BRANCH  15  16
ATOM     16  C   UNL     1       2.834  -5.503  28.032  0.00  0.00    +0.001 C 
BRANCH  16  17
ATOM     17  C   UNL     1       2.281  -5.818  26.637  0.00  0.00    +0.003 C 
BRANCH  17  18
ATOM     18  C   UNL     1       3.088  -5.195  25.473  0.00  0.00    -0.014 C 
ATOM     19  C   UNL     1       2.702  -3.711  25.360  0.00  0.00    +0.007 C 
BRANCH  18  20
ATOM     20  C   UNL     1       2.861  -5.936  24.135  0.00  0.00    +0.003 C 
BRANCH  20  21
ATOM     21  C   UNL     1       3.950  -5.649  23.094  0.00  0.00    +0.001 C 
BRANCH  21  22
ATOM     22  C   UNL     1       5.352  -5.984  23.619  0.00  0.00    +0.003 C 
BRANCH  22  23
ATOM     23  C   UNL     1       6.426  -4.968  23.177  0.00  0.00    -0.017 C 
ATOM     24  C   UNL     1       5.853  -3.567  22.955  0.00  0.00    +0.007 C 
ATOM     25  C   UNL     1       7.115  -5.457  21.900  0.00  0.00    +0.007 C 
ENDBRANCH  22  23
ENDBRANCH  21  22
ENDBRANCH  20  21
ENDBRANCH  18  20
ENDBRANCH  17  18
ENDBRANCH  16  17
ENDBRANCH  15  16
ENDBRANCH  13  15
ENDBRANCH  12  13
ENDBRANCH  11  12
ENDBRANCH  10  11
ENDBRANCH   8  10
ENDBRANCH   7   8
ENDBRANCH   6   7
ENDBRANCH   5   6
ENDBRANCH   1   5
BRANCH   1  26
ATOM     26  C   UNL     1      10.439   0.287  23.124  0.00  0.00    +0.193 C 
BRANCH  26  27
ATOM     27  O   UNL     1      10.517   1.089  24.313  0.00  0.00    -0.377 OA
BRANCH  27  28
ATOM     28  C   UNL     1      10.168   2.448  24.028  0.00  0.00    +0.160 C 
BRANCH  28  29
ATOM     29  C   UNL     1       9.190   2.507  22.853  0.00  0.00    +0.031 C 
BRANCH  29  30
ATOM     30  C   UNL     1       7.928   3.353  23.146  0.00  0.00    -0.012 C 
ATOM     31  C   UNL     1       6.912   3.264  22.002  0.00  0.00    +0.007 C 
BRANCH  30  32
ATOM     32  C   UNL     1       8.328   4.817  23.437  0.00  0.00    +0.003 C 
BRANCH  32  33
ATOM     33  C   UNL     1       7.358   5.510  24.407  0.00  0.00    +0.001 C 
BRANCH  33  34
ATOM     34  C   UNL     1       7.234   4.768  25.737  0.00  0.00    +0.003 C 
BRANCH  34  35
ATOM     35  C   UNL     1       5.800   4.246  25.998  0.00  0.00    -0.014 C 
ATOM     36  C   UNL     1       4.844   4.635  24.866  0.00  0.00    +0.007 C 
BRANCH  35  37
ATOM     37  C   UNL     1       5.760   2.715  26.198  0.00  0.00    +0.003 C 
BRANCH  37  38
ATOM     38  C   UNL     1       7.143   2.145  26.522  0.00  0.00    +0.001 C 
BRANCH  38  39
ATOM     39  C   UNL     1       7.324   0.713  26.023  0.00  0.00    +0.003 C 
BRANCH  39  40
ATOM     40  C   UNL     1       6.129   0.255  25.154  0.00  0.00    -0.014 C 
ATOM     41  C   UNL     1       6.556  -0.006  23.705  0.00  0.00    +0.007 C 
BRANCH  40  42
ATOM     42  C   UNL     1       5.436  -1.003  25.718  0.00  0.00    +0.003 C 
BRANCH  42  43
ATOM     43  C   UNL     1       4.341  -0.663  26.729  0.00  0.00    +0.001 C 
BRANCH  43  44
ATOM     44  C   UNL     1       4.810  -0.779  28.177  0.00  0.00    +0.003 C 
BRANCH  44  46
ATOM     45  C   UNL     1       3.730  -0.951  30.440  0.00  0.00    +0.007 C 
ATOM     46  C   UNL     1       3.820  -1.577  29.049  0.00  0.00    -0.017 C 
ATOM     47  C   UNL     1       2.419  -1.660  28.434  0.00  0.00    +0.007 C 
ENDBRANCH  44  46
ENDBRANCH  43  44
ENDBRANCH  42  43
ENDBRANCH  40  42
ENDBRANCH  39  40
ENDBRANCH  38  39
ENDBRANCH  37  38
ENDBRANCH  35  37
ENDBRANCH  34  35
ENDBRANCH  33  34
ENDBRANCH  32  33
ENDBRANCH  30  32
ENDBRANCH  29  30
ENDBRANCH  28  29
ENDBRANCH  27  28
ENDBRANCH  26  27
ENDBRANCH   1  26
TORSDOF 35
ENDMDL
MODEL 8
REMARK VINA RESULT:      -3.9      1.894      4.358
REMARK  Name = 
REMARK  45 active torsions:
REMARK  status: ('A' for Active; 'I' for Inactive)
REMARK    1  A    between atoms: C_1  and  C_2
REMARK    2  A    between atoms: C_2  and  C_3
REMARK    3  A    between atoms: C_2  and  C_4
REMARK    4  A    between atoms: C_4  and  C_5
REMARK    5  A    between atoms: C_5  and  C_6
REMARK    6  A    between atoms: C_6  and  C_7
REMARK    7  A    between atoms: C_7  and  C_9
REMARK    8  A    between atoms: C_7  and  C_10
REMARK    9  A    between atoms: C_10  and  C_11
REMARK   10  A    between atoms: C_11  and  C_12
REMARK   11  A    between atoms: C_12  and  C_13
REMARK   12  A    between atoms: C_13  and  C_15
REMARK   13  A    between atoms: C_13  and  C_16
REMARK   14  A    between atoms: C_16  and  C_17
REMARK   15  A    between atoms: C_17  and  C_18
REMARK   16  A    between atoms: C_18  and  C_19
REMARK   17  A    between atoms: C_19  and  C_21
REMARK   18  A    between atoms: C_19  and  C_22
REMARK   19  A    between atoms: C_22  and  C_23
REMARK   20  A    between atoms: C_23  and  O_24
REMARK   21  A    between atoms: O_24  and  C_25
REMARK   22  A    between atoms: C_25  and  C_26
REMARK   23  A    between atoms: C_26  and  C_28
REMARK   24  A    between atoms: C_26  and  O_30
REMARK   25  A    between atoms: C_28  and  O_29
REMARK   26  A    between atoms: O_30  and  C_31
REMARK   27  A    between atoms: C_31  and  C_32
REMARK   28  A    between atoms: C_32  and  C_33
REMARK   29  A    between atoms: C_33  and  C_35
REMARK   30  A    between atoms: C_33  and  C_36
REMARK   31  A    between atoms: C_36  and  C_37
REMARK   32  A    between atoms: C_37  and  C_38
REMARK   33  A    between atoms: C_38  and  C_39
REMARK   34  A    between atoms: C_39  and  C_41
REMARK   35  A    between atoms: C_39  and  C_42
REMARK   36  A    between atoms: C_42  and  C_43
REMARK   37  A    between atoms: C_43  and  C_44
REMARK   38  A    between atoms: C_44  and  C_45
REMARK   39  A    between atoms: C_45  and  C_47
REMARK   40  A    between atoms: C_45  and  C_48
REMARK   41  A    between atoms: C_48  and  C_49
REMARK   42  A    between atoms: C_49  and  C_50
REMARK   43  A    between atoms: C_50  and  C_51
REMARK   44  A    between atoms: C_51  and  C_52
REMARK   45  A    between atoms: C_51  and  C_53
REMARK                            x       y       z     vdW  Elec       q    Type
REMARK                         _______ _______ _______ _____ _____    ______ ____
ROOT
ATOM      1  C   UNL     1       5.638  -5.429  22.986  0.00  0.00    +0.169 C 
ENDROOT
BRANCH   1   2
ATOM      2  C   UNL     1       6.294  -6.231  21.841  0.00  0.00    +0.189 C 
BRANCH   2   3
ATOM      3  O   UNL     1       7.557  -5.683  21.472  0.00  0.00    -0.392 OA
ATOM      4  H   UNL     1       7.464  -5.379  20.551  0.00  0.00    +0.210 HD
ENDBRANCH   2   3
ENDBRANCH   1   2
BRANCH   1   5
ATOM      5  O   UNL     1       4.386  -4.801  22.597  0.00  0.00    -0.372 OA
BRANCH   5   6
ATOM      6  C   UNL     1       3.387  -5.027  23.591  0.00  0.00    +0.160 C 
BRANCH   6   7
ATOM      7  C   UNL     1       2.755  -6.425  23.590  0.00  0.00    +0.031 C 
BRANCH   7   8
ATOM      8  C   UNL     1       3.047  -7.120  24.950  0.00  0.00    -0.012 C 
ATOM      9  C   UNL     1       1.786  -7.801  25.512  0.00  0.00    +0.007 C 
BRANCH   8  10
ATOM     10  C   UNL     1       3.663  -6.162  25.997  0.00  0.00    +0.003 C 
BRANCH  10  11
ATOM     11  C   UNL     1       4.955  -6.753  26.586  0.00  0.00    +0.001 C 
BRANCH  11  12
ATOM     12  C   UNL     1       4.990  -6.788  28.115  0.00  0.00    +0.003 C 
BRANCH  12  13
ATOM     13  C   UNL     1       3.671  -6.256  28.728  0.00  0.00    -0.014 C 
ATOM     14  C   UNL     1       2.944  -7.341  29.536  0.00  0.00    +0.007 C 
BRANCH  13  15
ATOM     15  C   UNL     1       3.897  -5.018  29.622  0.00  0.00    +0.003 C 
BRANCH  15  16
ATOM     16  C   UNL     1       2.788  -3.956  29.582  0.00  0.00    +0.001 C 
BRANCH  16  17
ATOM     17  C   UNL     1       1.843  -4.089  28.382  0.00  0.00    +0.003 C 
BRANCH  17  18
ATOM     18  C   UNL     1       1.503  -2.751  27.684  0.00  0.00    -0.014 C 
ATOM     19  C   UNL     1       1.853  -2.881  26.193  0.00  0.00    +0.007 C 
BRANCH  18  20
ATOM     20  C   UNL     1       2.233  -1.548  28.327  0.00  0.00    +0.003 C 
BRANCH  20  21
ATOM     21  C   UNL     1       3.271  -0.904  27.399  0.00  0.00    +0.001 C 
BRANCH  21  22
ATOM     22  C   UNL     1       4.702  -1.096  27.914  0.00  0.00    +0.003 C 
BRANCH  22  23
ATOM     23  C   UNL     1       5.645  -1.729  26.870  0.00  0.00    -0.017 C 
ATOM     24  C   UNL     1       5.195  -1.460  25.433  0.00  0.00    +0.007 C 
ATOM     25  C   UNL     1       5.751  -3.238  27.108  0.00  0.00    +0.007 C 
ENDBRANCH  22  23
ENDBRANCH  21  22
ENDBRANCH  20  21
ENDBRANCH  18  20
ENDBRANCH  17  18
ENDBRANCH  16  17
ENDBRANCH  15  16
ENDBRANCH  13  15
ENDBRANCH  12  13
ENDBRANCH  11  12
ENDBRANCH  10  11
ENDBRANCH   8  10
ENDBRANCH   7   8
ENDBRANCH   6   7
ENDBRANCH   5   6
ENDBRANCH   1   5
BRANCH   1  26
ATOM     26  C   UNL     1       6.615  -4.387  23.563  0.00  0.00    +0.193 C 
BRANCH  26  27
ATOM     27  O   UNL     1       7.647  -4.982  24.365  0.00  0.00    -0.377 OA
BRANCH  27  28
ATOM     28  C   UNL     1       8.841  -4.193  24.318  0.00  0.00    +0.160 C 
BRANCH  28  29
ATOM     29  C   UNL     1       8.692  -2.955  25.205  0.00  0.00    +0.031 C 
BRANCH  29  30
ATOM     30  C   UNL     1       9.178  -1.651  24.528  0.00  0.00    -0.012 C 
ATOM     31  C   UNL     1       9.321  -0.510  25.541  0.00  0.00    +0.007 C 
BRANCH  30  32
ATOM     32  C   UNL     1       8.226  -1.269  23.372  0.00  0.00    +0.003 C 
BRANCH  32  33
ATOM     33  C   UNL     1       8.936  -1.238  22.010  0.00  0.00    +0.001 C 
BRANCH  33  34
ATOM     34  C   UNL     1       9.822  -0.004  21.844  0.00  0.00    +0.003 C 
BRANCH  34  35
ATOM     35  C   UNL     1       9.177   1.277  22.427  0.00  0.00    -0.014 C 
ATOM     36  C   UNL     1      10.228   2.351  22.725  0.00  0.00    +0.007 C 
BRANCH  35  37
ATOM     37  C   UNL     1       8.094   1.866  21.497  0.00  0.00    +0.003 C 
BRANCH  37  38
ATOM     38  C   UNL     1       6.830   2.256  22.268  0.00  0.00    +0.001 C 
BRANCH  38  39
ATOM     39  C   UNL     1       6.744   1.588  23.638  0.00  0.00    +0.003 C 
BRANCH  39  40
ATOM     40  C   UNL     1       6.567   2.627  24.771  0.00  0.00    -0.014 C 
ATOM     41  C   UNL     1       5.574   2.137  25.831  0.00  0.00    +0.007 C 
BRANCH  40  42
ATOM     42  C   UNL     1       7.902   2.993  25.451  0.00  0.00    +0.003 C 
BRANCH  42  43
ATOM     43  C   UNL     1       8.089   4.503  25.594  0.00  0.00    +0.001 C 
BRANCH  43  44
ATOM     44  C   UNL     1       7.384   5.297  24.497  0.00  0.00    +0.003 C 
BRANCH  44  46
ATOM     45  C   UNL     1       7.423   6.001  22.084  0.00  0.00    +0.007 C 
ATOM     46  C   UNL     1       8.265   5.471  23.244  0.00  0.00    -0.017 C 
ATOM     47  C   UNL     1       9.457   6.405  23.480  0.00  0.00    +0.007 C 
ENDBRANCH  44  46
ENDBRANCH  43  44
ENDBRANCH  42  43
ENDBRANCH  40  42
ENDBRANCH  39  40
ENDBRANCH  38  39
ENDBRANCH  37  38
ENDBRANCH  35  37
ENDBRANCH  34  35
ENDBRANCH  33  34
ENDBRANCH  32  33
ENDBRANCH  30  32
ENDBRANCH  29  30
ENDBRANCH  28  29
ENDBRANCH  27  28
ENDBRANCH  26  27
ENDBRANCH   1  26
TORSDOF 35
ENDMDL
MODEL 9
REMARK VINA RESULT:      -3.9      1.958      6.548
REMARK  Name = 
REMARK  45 active torsions:
REMARK  status: ('A' for Active; 'I' for Inactive)
REMARK    1  A    between atoms: C_1  and  C_2
REMARK    2  A    between atoms: C_2  and  C_3
REMARK    3  A    between atoms: C_2  and  C_4
REMARK    4  A    between atoms: C_4  and  C_5
REMARK    5  A    between atoms: C_5  and  C_6
REMARK    6  A    between atoms: C_6  and  C_7
REMARK    7  A    between atoms: C_7  and  C_9
REMARK    8  A    between atoms: C_7  and  C_10
REMARK    9  A    between atoms: C_10  and  C_11
REMARK   10  A    between atoms: C_11  and  C_12
REMARK   11  A    between atoms: C_12  and  C_13
REMARK   12  A    between atoms: C_13  and  C_15
REMARK   13  A    between atoms: C_13  and  C_16
REMARK   14  A    between atoms: C_16  and  C_17
REMARK   15  A    between atoms: C_17  and  C_18
REMARK   16  A    between atoms: C_18  and  C_19
REMARK   17  A    between atoms: C_19  and  C_21
REMARK   18  A    between atoms: C_19  and  C_22
REMARK   19  A    between atoms: C_22  and  C_23
REMARK   20  A    between atoms: C_23  and  O_24
REMARK   21  A    between atoms: O_24  and  C_25
REMARK   22  A    between atoms: C_25  and  C_26
REMARK   23  A    between atoms: C_26  and  C_28
REMARK   24  A    between atoms: C_26  and  O_30
REMARK   25  A    between atoms: C_28  and  O_29
REMARK   26  A    between atoms: O_30  and  C_31
REMARK   27  A    between atoms: C_31  and  C_32
REMARK   28  A    between atoms: C_32  and  C_33
REMARK   29  A    between atoms: C_33  and  C_35
REMARK   30  A    between atoms: C_33  and  C_36
REMARK   31  A    between atoms: C_36  and  C_37
REMARK   32  A    between atoms: C_37  and  C_38
REMARK   33  A    between atoms: C_38  and  C_39
REMARK   34  A    between atoms: C_39  and  C_41
REMARK   35  A    between atoms: C_39  and  C_42
REMARK   36  A    between atoms: C_42  and  C_43
REMARK   37  A    between atoms: C_43  and  C_44
REMARK   38  A    between atoms: C_44  and  C_45
REMARK   39  A    between atoms: C_45  and  C_47
REMARK   40  A    between atoms: C_45  and  C_48
REMARK   41  A    between atoms: C_48  and  C_49
REMARK   42  A    between atoms: C_49  and  C_50
REMARK   43  A    between atoms: C_50  and  C_51
REMARK   44  A    between atoms: C_51  and  C_52
REMARK   45  A    between atoms: C_51  and  C_53
REMARK                            x       y       z     vdW  Elec       q    Type
REMARK                         _______ _______ _______ _____ _____    ______ ____
ROOT
ATOM      1  C   UNL     1       4.680  -6.960  26.868  0.00  0.00    +0.169 C 
ENDROOT
BRANCH   1   2
ATOM      2  C   UNL     1       3.605  -6.779  27.962  0.00  0.00    +0.189 C 
BRANCH   2   3
ATOM      3  O   UNL     1       3.925  -7.514  29.141  0.00  0.00    -0.392 OA
ATOM      4  H   UNL     1       3.402  -8.335  29.101  0.00  0.00    +0.210 HD
ENDBRANCH   2   3
ENDBRANCH   1   2
BRANCH   1   5
ATOM      5  O   UNL     1       5.985  -6.459  27.265  0.00  0.00    -0.372 OA
BRANCH   5   6
ATOM      6  C   UNL     1       5.861  -5.175  27.874  0.00  0.00    +0.160 C 
BRANCH   6   7
ATOM      7  C   UNL     1       6.446  -4.003  27.077  0.00  0.00    +0.031 C 
BRANCH   7   8
ATOM      8  C   UNL     1       5.482  -2.786  27.171  0.00  0.00    -0.012 C 
ATOM      9  C   UNL     1       4.065  -3.226  27.582  0.00  0.00    +0.007 C 
BRANCH   8  10
ATOM     10  C   UNL     1       5.439  -1.948  25.871  0.00  0.00    +0.003 C 
BRANCH  10  11
ATOM     11  C   UNL     1       5.309  -0.449  26.190  0.00  0.00    +0.001 C 
BRANCH  11  12
ATOM     12  C   UNL     1       5.759  -0.066  27.600  0.00  0.00    +0.003 C 
BRANCH  12  13
ATOM     13  C   UNL     1       6.953   0.921  27.569  0.00  0.00    -0.014 C 
ATOM     14  C   UNL     1       6.792   1.970  26.459  0.00  0.00    +0.007 C 
BRANCH  13  15
ATOM     15  C   UNL     1       7.157   1.637  28.922  0.00  0.00    +0.003 C 
BRANCH  15  16
ATOM     16  C   UNL     1       6.821   3.136  28.940  0.00  0.00    +0.001 C 
BRANCH  16  17
ATOM     17  C   UNL     1       5.504   3.469  29.650  0.00  0.00    +0.003 C 
BRANCH  17  18
ATOM     18  C   UNL     1       4.422   4.089  28.735  0.00  0.00    -0.014 C 
ATOM     19  C   UNL     1       3.559   2.951  28.169  0.00  0.00    +0.007 C 
BRANCH  18  20
ATOM     20  C   UNL     1       5.030   4.948  27.602  0.00  0.00    +0.003 C 
BRANCH  20  21
ATOM     21  C   UNL     1       4.221   4.892  26.300  0.00  0.00    +0.001 C 
BRANCH  21  22
ATOM     22  C   UNL     1       5.115   5.002  25.059  0.00  0.00    +0.003 C 
BRANCH  22  23
ATOM     23  C   UNL     1       4.905   3.851  24.053  0.00  0.00    -0.017 C 
ATOM     24  C   UNL     1       4.655   4.355  22.630  0.00  0.00    +0.007 C 
ATOM     25  C   UNL     1       3.740   2.967  24.504  0.00  0.00    +0.007 C 
ENDBRANCH  22  23
ENDBRANCH  21  22
ENDBRANCH  20  21
ENDBRANCH  18  20
ENDBRANCH  17  18
ENDBRANCH  16  17
ENDBRANCH  15  16
ENDBRANCH  13  15
ENDBRANCH  12  13
ENDBRANCH  11  12
ENDBRANCH  10  11
ENDBRANCH   8  10
ENDBRANCH   7   8
ENDBRANCH   6   7
ENDBRANCH   5   6
ENDBRANCH   1   5
BRANCH   1  26
ATOM     26  C   UNL     1       4.230  -6.323  25.539  0.00  0.00    +0.193 C 
BRANCH  26  27
ATOM     27  O   UNL     1       4.571  -7.126  24.398  0.00  0.00    -0.377 OA
BRANCH  27  28
ATOM     28  C   UNL     1       4.742  -6.306  23.238  0.00  0.00    +0.160 C 
BRANCH  28  29
ATOM     29  C   UNL     1       5.505  -5.030  23.600  0.00  0.00    +0.031 C 
BRANCH  29  30
ATOM     30  C   UNL     1       6.890  -4.928  22.917  0.00  0.00    -0.012 C 
ATOM     31  C   UNL     1       7.077  -6.019  21.857  0.00  0.00    +0.007 C 
BRANCH  30  32
ATOM     32  C   UNL     1       8.009  -4.974  23.982  0.00  0.00    +0.003 C 
BRANCH  32  33
ATOM     33  C   UNL     1       8.760  -3.638  24.104  0.00  0.00    +0.001 C 
BRANCH  33  34
ATOM     34  C   UNL     1       8.384  -2.656  22.995  0.00  0.00    +0.003 C 
BRANCH  34  35
ATOM     35  C   UNL     1       8.504  -1.178  23.441  0.00  0.00    -0.014 C 
ATOM     36  C   UNL     1       7.243  -0.381  23.097  0.00  0.00    +0.007 C 
BRANCH  35  37
ATOM     37  C   UNL     1       8.798  -1.042  24.951  0.00  0.00    +0.003 C 
BRANCH  37  38
ATOM     38  C   UNL     1       9.812   0.069  25.238  0.00  0.00    +0.001 C 
BRANCH  38  39
ATOM     39  C   UNL     1      10.729   0.352  24.051  0.00  0.00    +0.003 C 
BRANCH  39  40
ATOM     40  C   UNL     1      10.530   1.786  23.504  0.00  0.00    -0.014 C 
ATOM     41  C   UNL     1      10.192   1.775  22.009  0.00  0.00    +0.007 C 
BRANCH  40  42
ATOM     42  C   UNL     1       9.441   2.565  24.269  0.00  0.00    +0.003 C 
BRANCH  42  43
ATOM     43  C   UNL     1       8.426   3.222  23.333  0.00  0.00    +0.001 C 
BRANCH  43  44
ATOM     44  C   UNL     1       8.417   4.745  23.439  0.00  0.00    +0.003 C 
BRANCH  44  46
ATOM     45  C   UNL     1      10.533   6.067  23.748  0.00  0.00    +0.007 C 
ATOM     46  C   UNL     1       9.447   5.264  24.463  0.00  0.00    -0.017 C 
ATOM     47  C   UNL     1       8.813   6.124  25.561  0.00  0.00    +0.007 C 
ENDBRANCH  44  46
ENDBRANCH  43  44
ENDBRANCH  42  43
ENDBRANCH  40  42
ENDBRANCH  39  40
ENDBRANCH  38  39
ENDBRANCH  37  38
ENDBRANCH  35  37
ENDBRANCH  34  35
ENDBRANCH  33  34
ENDBRANCH  32  33
ENDBRANCH  30  32
ENDBRANCH  29  30
ENDBRANCH  28  29
ENDBRANCH  27  28
ENDBRANCH  26  27
ENDBRANCH   1  26
TORSDOF 35
ENDMDL
