MODEL 1
REMARK VINA RESULT:      -7.3      0.000      0.000
REMARK  Name = 
REMARK  7 active torsions:
REMARK  status: ('A' for Active; 'I' for Inactive)
REMARK    1  A    between atoms: C_1  and  C_2
REMARK    2  A    between atoms: C_2  and  C_3
REMARK    3  A    between atoms: C_3  and  C_4
REMARK    4  A    between atoms: C_4  and  N_5
REMARK    5  A    between atoms: C_8  and  C_9
REMARK    6  A    between atoms: C_9  and  N_10
REMARK    7  A    between atoms: C_11  and  C_13
REMARK                            x       y       z     vdW  Elec       q    Type
REMARK                         _______ _______ _______ _____ _____    ______ ____
ROOT
ATOM      1  N   UNL     1       7.193  -0.418  22.798  0.00  0.00    -0.311 N 
ATOM      2  H   UNL     1       7.803  -0.859  22.117  0.00  0.00    +0.149 HD
ATOM      3  C   UNL     1       6.731  -1.203  23.831  0.00  0.00    +0.250 C 
ATOM      4  O   UNL     1       6.033  -0.758  24.737  0.00  0.00    -0.270 OA
ENDROOT
BRANCH   3   5
ATOM      5  C   UNL     1       7.138  -2.609  23.759  0.00  0.00    +0.105 A 
ATOM      6  C   UNL     1       6.800  -3.555  22.727  0.00  0.00    +0.016 A 
ATOM      7  C   UNL     1       7.404  -4.775  23.048  0.00  0.00    +0.053 A 
ATOM      8  C   UNL     1       7.263  -5.918  22.244  0.00  0.00    +0.026 A 
ATOM      9  C   UNL     1       6.496  -5.812  21.079  0.00  0.00    +0.002 A 
ATOM     10  C   UNL     1       5.896  -4.609  20.728  0.00  0.00    +0.001 A 
ATOM     11  N   UNL     1       8.097  -4.573  24.216  0.00  0.00    -0.311 N 
ATOM     12  C   UNL     1       8.921  -5.556  24.896  0.00  0.00    +0.128 C 
ATOM     13  C   UNL     1       9.833  -4.885  25.911  0.00  0.00    +0.063 C 
ATOM     14  C   UNL     1       9.022  -3.859  26.686  0.00  0.00    +0.232 C 
ATOM     15  O   UNL     1       8.486  -2.854  25.816  0.00  0.00    -0.477 OA
ATOM     16  C   UNL     1       6.041  -3.479  21.539  0.00  0.00    +0.011 A 
ATOM     17  C   UNL     1       7.920  -3.293  24.681  0.00  0.00    +0.209 A 
ENDBRANCH   3   5
BRANCH   1  18
ATOM     18  C   UNL     1       6.947   1.002  22.710  0.00  0.00    +0.108 C 
BRANCH  18  22
ATOM     19  N   UNL     1       9.941   2.875  23.989  0.00  0.00    -0.302 NA
ATOM     20  C   UNL     1       9.954   1.443  23.646  0.00  0.00    +0.085 C 
ATOM     21  C   UNL     1       9.438   1.120  22.239  0.00  0.00    +0.020 C 
ATOM     22  C   UNL     1       8.063   1.748  21.954  0.00  0.00    +0.009 C 
ATOM     23  C   UNL     1       8.116   3.242  22.307  0.00  0.00    +0.020 C 
ATOM     24  C   UNL     1       8.620   3.467  23.733  0.00  0.00    +0.085 C 
BRANCH  19  25
ATOM     25  C   UNL     1      11.050   3.607  23.358  0.00  0.00    +0.084 C 
BRANCH  25  26
ATOM     26  C   UNL     1      11.053   5.117  23.650  0.00  0.00    +0.015 C 
BRANCH  26  28
ATOM     27  C   UNL     1      13.197   5.480  22.372  0.00  0.00    +0.004 C 
ATOM     28  C   UNL     1      12.462   5.717  23.682  0.00  0.00    -0.002 C 
ENDBRANCH  26  28
ENDBRANCH  25  26
ENDBRANCH  19  25
ENDBRANCH  18  22
ENDBRANCH   1  18
TORSDOF 6
ENDMDL
MODEL 2
REMARK VINA RESULT:      -7.3      2.023      2.855
REMARK  Name = 
REMARK  7 active torsions:
REMARK  status: ('A' for Active; 'I' for Inactive)
REMARK    1  A    between atoms: C_1  and  C_2
REMARK    2  A    between atoms: C_2  and  C_3
REMARK    3  A    between atoms: C_3  and  C_4
REMARK    4  A    between atoms: C_4  and  N_5
REMARK    5  A    between atoms: C_8  and  C_9
REMARK    6  A    between atoms: C_9  and  N_10
REMARK    7  A    between atoms: C_11  and  C_13
REMARK                            x       y       z     vdW  Elec       q    Type
REMARK                         _______ _______ _______ _____ _____    ______ ____
ROOT
ATOM      1  N   UNL     1       8.873  -2.240  24.057  0.00  0.00    -0.311 N 
ATOM      2  H   UNL     1       7.925  -1.938  23.858  0.00  0.00    +0.149 HD
ATOM      3  C   UNL     1       9.057  -3.568  24.372  0.00  0.00    +0.250 C 
ATOM      4  O   UNL     1      10.167  -4.051  24.575  0.00  0.00    -0.270 OA
ENDROOT
BRANCH   3   5
ATOM      5  C   UNL     1       7.823  -4.355  24.446  0.00  0.00    +0.105 A 
ATOM      6  C   UNL     1       7.104  -4.942  23.346  0.00  0.00    +0.016 A 
ATOM      7  C   UNL     1       5.994  -5.613  23.866  0.00  0.00    +0.053 A 
ATOM      8  C   UNL     1       5.073  -6.290  23.049  0.00  0.00    +0.026 A 
ATOM      9  C   UNL     1       5.296  -6.292  21.669  0.00  0.00    +0.002 A 
ATOM     10  C   UNL     1       6.399  -5.646  21.124  0.00  0.00    +0.001 A 
ATOM     11  N   UNL     1       6.046  -5.457  25.229  0.00  0.00    -0.311 N 
ATOM     12  C   UNL     1       5.119  -6.032  26.187  0.00  0.00    +0.128 C 
ATOM     13  C   UNL     1       5.698  -5.987  27.592  0.00  0.00    +0.063 C 
ATOM     14  C   UNL     1       6.320  -4.618  27.815  0.00  0.00    +0.232 C 
ATOM     15  O   UNL     1       7.373  -4.364  26.876  0.00  0.00    -0.477 OA
ATOM     16  C   UNL     1       7.307  -4.972  21.948  0.00  0.00    +0.011 A 
ATOM     17  C   UNL     1       7.113  -4.674  25.597  0.00  0.00    +0.209 A 
ENDBRANCH   3   5
BRANCH   1  18
ATOM     18  C   UNL     1       9.963  -1.308  23.885  0.00  0.00    +0.108 C 
BRANCH  18  22
ATOM     19  N   UNL     1       9.012   2.308  23.524  0.00  0.00    -0.302 NA
ATOM     20  C   UNL     1       8.065   1.245  23.899  0.00  0.00    +0.085 C 
ATOM     21  C   UNL     1       8.509   0.387  25.091  0.00  0.00    +0.020 C 
ATOM     22  C   UNL     1       9.933  -0.169  24.922  0.00  0.00    +0.009 C 
ATOM     23  C   UNL     1      10.877   0.986  24.556  0.00  0.00    +0.020 C 
ATOM     24  C   UNL     1      10.368   1.769  23.345  0.00  0.00    +0.085 C 
BRANCH  19  25
ATOM     25  C   UNL     1       8.947   3.457  24.441  0.00  0.00    +0.084 C 
BRANCH  25  26
ATOM     26  C   UNL     1       9.056   4.824  23.743  0.00  0.00    +0.015 C 
BRANCH  26  28
ATOM     27  C   UNL     1      11.509   5.373  23.531  0.00  0.00    +0.004 C 
ATOM     28  C   UNL     1      10.215   5.673  24.272  0.00  0.00    -0.002 C 
ENDBRANCH  26  28
ENDBRANCH  25  26
ENDBRANCH  19  25
ENDBRANCH  18  22
ENDBRANCH   1  18
TORSDOF 6
ENDMDL
MODEL 3
REMARK VINA RESULT:      -7.1      1.805      2.421
REMARK  Name = 
REMARK  7 active torsions:
REMARK  status: ('A' for Active; 'I' for Inactive)
REMARK    1  A    between atoms: C_1  and  C_2
REMARK    2  A    between atoms: C_2  and  C_3
REMARK    3  A    between atoms: C_3  and  C_4
REMARK    4  A    between atoms: C_4  and  N_5
REMARK    5  A    between atoms: C_8  and  C_9
REMARK    6  A    between atoms: C_9  and  N_10
REMARK    7  A    between atoms: C_11  and  C_13
REMARK                            x       y       z     vdW  Elec       q    Type
REMARK                         _______ _______ _______ _____ _____    ______ ____
ROOT
ATOM      1  N   UNL     1       8.680  -1.426  22.821  0.00  0.00    -0.311 N 
ATOM      2  H   UNL     1       7.723  -1.210  22.564  0.00  0.00    +0.149 HD
ATOM      3  C   UNL     1       8.891  -2.576  23.548  0.00  0.00    +0.250 C 
ATOM      4  O   UNL     1      10.013  -2.961  23.865  0.00  0.00    -0.270 OA
ENDROOT
BRANCH   3   5
ATOM      5  C   UNL     1       7.671  -3.301  23.915  0.00  0.00    +0.105 A 
ATOM      6  C   UNL     1       7.006  -4.320  23.144  0.00  0.00    +0.016 A 
ATOM      7  C   UNL     1       5.890  -4.748  23.869  0.00  0.00    +0.053 A 
ATOM      8  C   UNL     1       5.015  -5.736  23.388  0.00  0.00    +0.026 A 
ATOM      9  C   UNL     1       5.290  -6.308  22.143  0.00  0.00    +0.002 A 
ATOM     10  C   UNL     1       6.400  -5.913  21.406  0.00  0.00    +0.001 A 
ATOM     11  N   UNL     1       5.888  -4.033  25.041  0.00  0.00    -0.311 N 
ATOM     12  C   UNL     1       4.937  -4.185  26.127  0.00  0.00    +0.128 C 
ATOM     13  C   UNL     1       5.462  -3.535  27.398  0.00  0.00    +0.063 C 
ATOM     14  C   UNL     1       6.047  -2.179  27.042  0.00  0.00    +0.232 C 
ATOM     15  O   UNL     1       7.129  -2.306  26.111  0.00  0.00    -0.477 OA
ATOM     16  C   UNL     1       7.262  -4.925  21.894  0.00  0.00    +0.011 A 
ATOM     17  C   UNL     1       6.925  -3.132  25.074  0.00  0.00    +0.209 A 
ENDBRANCH   3   5
BRANCH   1  18
ATOM     18  C   UNL     1       9.751  -0.597  22.320  0.00  0.00    +0.108 C 
BRANCH  18  22
ATOM     19  N   UNL     1       9.149   2.634  24.138  0.00  0.00    -0.302 NA
ATOM     20  C   UNL     1      10.426   2.280  23.496  0.00  0.00    +0.085 C 
ATOM     21  C   UNL     1      10.305   1.862  22.026  0.00  0.00    +0.020 C 
ATOM     22  C   UNL     1       9.249   0.766  21.806  0.00  0.00    +0.009 C 
ATOM     23  C   UNL     1       7.936   1.200  22.475  0.00  0.00    +0.020 C 
ATOM     24  C   UNL     1       8.148   1.576  23.943  0.00  0.00    +0.085 C 
BRANCH  19  25
ATOM     25  C   UNL     1       8.682   3.972  23.743  0.00  0.00    +0.084 C 
BRANCH  25  26
ATOM     26  C   UNL     1       9.326   5.122  24.536  0.00  0.00    +0.015 C 
BRANCH  26  28
ATOM     27  C   UNL     1      11.634   5.760  23.742  0.00  0.00    +0.004 C 
ATOM     28  C   UNL     1      10.147   6.068  23.655  0.00  0.00    -0.002 C 
ENDBRANCH  26  28
ENDBRANCH  25  26
ENDBRANCH  19  25
ENDBRANCH  18  22
ENDBRANCH   1  18
TORSDOF 6
ENDMDL
MODEL 4
REMARK VINA RESULT:      -7.1      2.365      4.325
REMARK  Name = 
REMARK  7 active torsions:
REMARK  status: ('A' for Active; 'I' for Inactive)
REMARK    1  A    between atoms: C_1  and  C_2
REMARK    2  A    between atoms: C_2  and  C_3
REMARK    3  A    between atoms: C_3  and  C_4
REMARK    4  A    between atoms: C_4  and  N_5
REMARK    5  A    between atoms: C_8  and  C_9
REMARK    6  A    between atoms: C_9  and  N_10
REMARK    7  A    between atoms: C_11  and  C_13
REMARK                            x       y       z     vdW  Elec       q    Type
REMARK                         _______ _______ _______ _____ _____    ______ ____
ROOT
ATOM      1  N   UNL     1       8.781  -2.178  24.349  0.00  0.00    -0.311 N 
ATOM      2  H   UNL     1       7.805  -1.913  24.263  0.00  0.00    +0.149 HD
ATOM      3  C   UNL     1       9.060  -3.522  24.460  0.00  0.00    +0.250 C 
ATOM      4  O   UNL     1      10.207  -3.956  24.514  0.00  0.00    -0.270 OA
ENDROOT
BRANCH   3   5
ATOM      5  C   UNL     1       7.880  -4.390  24.510  0.00  0.00    +0.105 A 
ATOM      6  C   UNL     1       7.173  -4.819  25.688  0.00  0.00    +0.016 A 
ATOM      7  C   UNL     1       6.106  -5.625  25.280  0.00  0.00    +0.053 A 
ATOM      8  C   UNL     1       5.218  -6.218  26.194  0.00  0.00    +0.026 A 
ATOM      9  C   UNL     1       5.416  -5.972  27.555  0.00  0.00    +0.002 A 
ATOM     10  C   UNL     1       6.459  -5.163  27.991  0.00  0.00    +0.001 A 
ATOM     11  N   UNL     1       6.152  -5.669  23.909  0.00  0.00    -0.311 N 
ATOM     12  C   UNL     1       5.202  -6.350  23.048  0.00  0.00    +0.128 C 
ATOM     13  C   UNL     1       5.330  -5.864  21.613  0.00  0.00    +0.063 C 
ATOM     14  C   UNL     1       6.806  -5.785  21.258  0.00  0.00    +0.232 C 
ATOM     15  O   UNL     1       7.500  -4.870  22.116  0.00  0.00    -0.477 OA
ATOM     16  C   UNL     1       7.339  -4.583  27.071  0.00  0.00    +0.011 A 
ATOM     17  C   UNL     1       7.230  -4.967  23.427  0.00  0.00    +0.209 A 
ENDBRANCH   3   5
BRANCH   1  18
ATOM     18  C   UNL     1       9.802  -1.163  24.233  0.00  0.00    +0.108 C 
BRANCH  18  22
ATOM     19  N   UNL     1       8.814   1.969  22.411  0.00  0.00    -0.302 NA
ATOM     20  C   UNL     1       7.865   0.914  22.800  0.00  0.00    +0.085 C 
ATOM     21  C   UNL     1       7.912   0.530  24.284  0.00  0.00    +0.020 C 
ATOM     22  C   UNL     1       9.335   0.205  24.767  0.00  0.00    +0.009 C 
ATOM     23  C   UNL     1      10.273   1.349  24.355  0.00  0.00    +0.020 C 
ATOM     24  C   UNL     1      10.177   1.646  22.857  0.00  0.00    +0.085 C 
BRANCH  19  25
ATOM     25  C   UNL     1       8.357   3.306  22.823  0.00  0.00    +0.084 C 
BRANCH  25  26
ATOM     26  C   UNL     1       7.014   3.729  22.203  0.00  0.00    +0.015 C 
BRANCH  26  28
ATOM     27  C   UNL     1       7.362   6.210  21.910  0.00  0.00    +0.004 C 
ATOM     28  C   UNL     1       6.573   5.131  22.634  0.00  0.00    -0.002 C 
ENDBRANCH  26  28
ENDBRANCH  25  26
ENDBRANCH  19  25
ENDBRANCH  18  22
ENDBRANCH   1  18
TORSDOF 6
ENDMDL
MODEL 5
REMARK VINA RESULT:      -7.1      2.479      8.584
REMARK  Name = 
REMARK  7 active torsions:
REMARK  status: ('A' for Active; 'I' for Inactive)
REMARK    1  A    between atoms: C_1  and  C_2
REMARK    2  A    between atoms: C_2  and  C_3
REMARK    3  A    between atoms: C_3  and  C_4
REMARK    4  A    between atoms: C_4  and  N_5
REMARK    5  A    between atoms: C_8  and  C_9
REMARK    6  A    between atoms: C_9  and  N_10
REMARK    7  A    between atoms: C_11  and  C_13
REMARK                            x       y       z     vdW  Elec       q    Type
REMARK                         _______ _______ _______ _____ _____    ______ ____
ROOT
ATOM      1  N   UNL     1      10.124   0.914  24.119  0.00  0.00    -0.311 N 
ATOM      2  H   UNL     1      10.094   1.251  25.075  0.00  0.00    +0.149 HD
ATOM      3  C   UNL     1      10.020   1.853  23.118  0.00  0.00    +0.250 C 
ATOM      4  O   UNL     1      10.099   1.562  21.928  0.00  0.00    -0.270 OA
ENDROOT
BRANCH   3   5
ATOM      5  C   UNL     1       9.807   3.225  23.586  0.00  0.00    +0.105 A 
ATOM      6  C   UNL     1       8.569   3.800  24.045  0.00  0.00    +0.016 A 
ATOM      7  C   UNL     1       8.818   5.127  24.406  0.00  0.00    +0.053 A 
ATOM      8  C   UNL     1       7.809   5.977  24.889  0.00  0.00    +0.026 A 
ATOM      9  C   UNL     1       6.517   5.458  25.017  0.00  0.00    +0.002 A 
ATOM     10  C   UNL     1       6.242   4.138  24.679  0.00  0.00    +0.001 A 
ATOM     11  N   UNL     1      10.157   5.345  24.195  0.00  0.00    -0.311 N 
ATOM     12  C   UNL     1      10.874   6.574  24.483  0.00  0.00    +0.128 C 
ATOM     13  C   UNL     1      12.375   6.331  24.501  0.00  0.00    +0.063 C 
ATOM     14  C   UNL     1      12.739   5.462  23.308  0.00  0.00    +0.232 C 
ATOM     15  O   UNL     1      12.068   4.197  23.360  0.00  0.00    -0.477 OA
ATOM     16  C   UNL     1       7.255   3.303  24.195  0.00  0.00    +0.011 A 
ATOM     17  C   UNL     1      10.762   4.231  23.667  0.00  0.00    +0.209 A 
ENDBRANCH   3   5
BRANCH   1  18
ATOM     18  C   UNL     1      10.385  -0.485  23.870  0.00  0.00    +0.108 C 
BRANCH  18  22
ATOM     19  N   UNL     1       7.128  -1.867  22.610  0.00  0.00    -0.302 NA
ATOM     20  C   UNL     1       8.421  -2.556  22.467  0.00  0.00    +0.085 C 
ATOM     21  C   UNL     1       9.200  -2.727  23.777  0.00  0.00    +0.020 C 
ATOM     22  C   UNL     1       9.355  -1.407  24.551  0.00  0.00    +0.009 C 
ATOM     23  C   UNL     1       7.975  -0.746  24.688  0.00  0.00    +0.020 C 
ATOM     24  C   UNL     1       7.283  -0.596  23.332  0.00  0.00    +0.085 C 
BRANCH  19  25
ATOM     25  C   UNL     1       6.090  -2.745  23.172  0.00  0.00    +0.084 C 
BRANCH  25  26
ATOM     26  C   UNL     1       5.701  -3.921  22.260  0.00  0.00    +0.015 C 
BRANCH  26  28
ATOM     27  C   UNL     1       7.046  -6.017  21.860  0.00  0.00    +0.004 C 
ATOM     28  C   UNL     1       6.128  -5.280  22.822  0.00  0.00    -0.002 C 
ENDBRANCH  26  28
ENDBRANCH  25  26
ENDBRANCH  19  25
ENDBRANCH  18  22
ENDBRANCH   1  18
TORSDOF 6
ENDMDL
MODEL 6
REMARK VINA RESULT:      -7.0      2.383      3.457
REMARK  Name = 
REMARK  7 active torsions:
REMARK  status: ('A' for Active; 'I' for Inactive)
REMARK    1  A    between atoms: C_1  and  C_2
REMARK    2  A    between atoms: C_2  and  C_3
REMARK    3  A    between atoms: C_3  and  C_4
REMARK    4  A    between atoms: C_4  and  N_5
REMARK    5  A    between atoms: C_8  and  C_9
REMARK    6  A    between atoms: C_9  and  N_10
REMARK    7  A    between atoms: C_11  and  C_13
REMARK                            x       y       z     vdW  Elec       q    Type
REMARK                         _______ _______ _______ _____ _____    ______ ____
ROOT
ATOM      1  N   UNL     1       8.893  -2.172  24.188  0.00  0.00    -0.311 N 
ATOM      2  H   UNL     1       7.938  -1.859  24.048  0.00  0.00    +0.149 HD
ATOM      3  C   UNL     1       9.089  -3.517  24.402  0.00  0.00    +0.250 C 
ATOM      4  O   UNL     1      10.206  -4.010  24.529  0.00  0.00    -0.270 OA
ENDROOT
BRANCH   3   5
ATOM      5  C   UNL     1       7.859  -4.312  24.468  0.00  0.00    +0.105 A 
ATOM      6  C   UNL     1       7.151  -4.903  23.363  0.00  0.00    +0.016 A 
ATOM      7  C   UNL     1       6.041  -5.580  23.876  0.00  0.00    +0.053 A 
ATOM      8  C   UNL     1       5.129  -6.262  23.052  0.00  0.00    +0.026 A 
ATOM      9  C   UNL     1       5.363  -6.263  21.674  0.00  0.00    +0.002 A 
ATOM     10  C   UNL     1       6.466  -5.611  21.136  0.00  0.00    +0.001 A 
ATOM     11  N   UNL     1       6.083  -5.424  25.239  0.00  0.00    -0.311 N 
ATOM     12  C   UNL     1       5.153  -6.005  26.190  0.00  0.00    +0.128 C 
ATOM     13  C   UNL     1       5.722  -5.956  27.599  0.00  0.00    +0.063 C 
ATOM     14  C   UNL     1       6.334  -4.583  27.827  0.00  0.00    +0.232 C 
ATOM     15  O   UNL     1       7.392  -4.323  26.895  0.00  0.00    -0.477 OA
ATOM     16  C   UNL     1       7.363  -4.931  21.966  0.00  0.00    +0.011 A 
ATOM     17  C   UNL     1       7.143  -4.634  25.614  0.00  0.00    +0.209 A 
ENDBRANCH   3   5
BRANCH   1  18
ATOM     18  C   UNL     1       9.975  -1.226  24.041  0.00  0.00    +0.108 C 
BRANCH  18  22
ATOM     19  N   UNL     1       8.574   1.586  21.983  0.00  0.00    -0.302 NA
ATOM     20  C   UNL     1       7.745   0.597  22.691  0.00  0.00    +0.085 C 
ATOM     21  C   UNL     1       8.069   0.444  24.182  0.00  0.00    +0.020 C 
ATOM     22  C   UNL     1       9.565   0.205  24.442  0.00  0.00    +0.009 C 
ATOM     23  C   UNL     1      10.376   1.278  23.700  0.00  0.00    +0.020 C 
ATOM     24  C   UNL     1      10.004   1.343  22.218  0.00  0.00    +0.085 C 
BRANCH  19  25
ATOM     25  C   UNL     1       8.153   2.967  22.268  0.00  0.00    +0.084 C 
BRANCH  25  26
ATOM     26  C   UNL     1       6.652   3.224  22.051  0.00  0.00    +0.015 C 
BRANCH  26  28
ATOM     27  C   UNL     1       6.687   4.126  24.406  0.00  0.00    +0.004 C 
ATOM     28  C   UNL     1       6.077   4.262  23.019  0.00  0.00    -0.002 C 
ENDBRANCH  26  28
ENDBRANCH  25  26
ENDBRANCH  19  25
ENDBRANCH  18  22
ENDBRANCH   1  18
TORSDOF 6
ENDMDL
MODEL 7
REMARK VINA RESULT:      -6.9      2.652      4.275
REMARK  Name = 
REMARK  7 active torsions:
REMARK  status: ('A' for Active; 'I' for Inactive)
REMARK    1  A    between atoms: C_1  and  C_2
REMARK    2  A    between atoms: C_2  and  C_3
REMARK    3  A    between atoms: C_3  and  C_4
REMARK    4  A    between atoms: C_4  and  N_5
REMARK    5  A    between atoms: C_8  and  C_9
REMARK    6  A    between atoms: C_9  and  N_10
REMARK    7  A    between atoms: C_11  and  C_13
REMARK                            x       y       z     vdW  Elec       q    Type
REMARK                         _______ _______ _______ _____ _____    ______ ____
ROOT
ATOM      1  N   UNL     1       8.262  -2.829  24.877  0.00  0.00    -0.311 N 
ATOM      2  H   UNL     1       7.321  -2.555  24.614  0.00  0.00    +0.149 HD
ATOM      3  C   UNL     1       8.447  -4.132  25.282  0.00  0.00    +0.250 C 
ATOM      4  O   UNL     1       9.552  -4.584  25.568  0.00  0.00    -0.270 OA
ENDROOT
BRANCH   3   5
ATOM      5  C   UNL     1       7.222  -4.933  25.345  0.00  0.00    +0.105 A 
ATOM      6  C   UNL     1       6.633  -5.521  26.520  0.00  0.00    +0.016 A 
ATOM      7  C   UNL     1       5.468  -6.189  26.128  0.00  0.00    +0.053 A 
ATOM      8  C   UNL     1       4.657  -6.883  27.042  0.00  0.00    +0.026 A 
ATOM      9  C   UNL     1       5.036  -6.886  28.388  0.00  0.00    +0.002 A 
ATOM     10  C   UNL     1       6.180  -6.219  28.808  0.00  0.00    +0.001 A 
ATOM     11  N   UNL     1       5.344  -5.998  24.775  0.00  0.00    -0.311 N 
ATOM     12  C   UNL     1       4.249  -6.471  23.947  0.00  0.00    +0.128 C 
ATOM     13  C   UNL     1       4.237  -5.752  22.607  0.00  0.00    +0.063 C 
ATOM     14  C   UNL     1       5.661  -5.690  22.079  0.00  0.00    +0.232 C 
ATOM     15  O   UNL     1       6.520  -4.974  22.975  0.00  0.00    -0.477 OA
ATOM     16  C   UNL     1       6.982  -5.535  27.888  0.00  0.00    +0.011 A 
ATOM     17  C   UNL     1       6.404  -5.281  24.277  0.00  0.00    +0.209 A 
ENDBRANCH   3   5
BRANCH   1  18
ATOM     18  C   UNL     1       9.346  -1.892  24.701  0.00  0.00    +0.108 C 
BRANCH  18  22
ATOM     19  N   UNL     1       9.795   1.833  24.523  0.00  0.00    -0.302 NA
ATOM     20  C   UNL     1      10.836   0.863  24.147  0.00  0.00    +0.085 C 
ATOM     21  C   UNL     1      10.387  -0.192  23.129  0.00  0.00    +0.020 C 
ATOM     22  C   UNL     1       9.089  -0.903  23.547  0.00  0.00    +0.009 C 
ATOM     23  C   UNL     1       8.035   0.156  23.904  0.00  0.00    +0.020 C 
ATOM     24  C   UNL     1       8.562   1.150  24.940  0.00  0.00    +0.085 C 
BRANCH  19  25
ATOM     25  C   UNL     1       9.584   2.852  23.482  0.00  0.00    +0.084 C 
BRANCH  25  26
ATOM     26  C   UNL     1      10.262   4.201  23.778  0.00  0.00    +0.015 C 
BRANCH  26  28
ATOM     27  C   UNL     1      12.383   5.563  23.685  0.00  0.00    +0.004 C 
ATOM     28  C   UNL     1      11.696   4.279  23.246  0.00  0.00    -0.002 C 
ENDBRANCH  26  28
ENDBRANCH  25  26
ENDBRANCH  19  25
ENDBRANCH  18  22
ENDBRANCH   1  18
TORSDOF 6
ENDMDL
MODEL 8
REMARK VINA RESULT:      -6.7      3.570      4.455
REMARK  Name = 
REMARK  7 active torsions:
REMARK  status: ('A' for Active; 'I' for Inactive)
REMARK    1  A    between atoms: C_1  and  C_2
REMARK    2  A    between atoms: C_2  and  C_3
REMARK    3  A    between atoms: C_3  and  C_4
REMARK    4  A    between atoms: C_4  and  N_5
REMARK    5  A    between atoms: C_8  and  C_9
REMARK    6  A    between atoms: C_9  and  N_10
REMARK    7  A    between atoms: C_11  and  C_13
REMARK                            x       y       z     vdW  Elec       q    Type
REMARK                         _______ _______ _______ _____ _____    ______ ____
ROOT
ATOM      1  N   UNL     1       7.314  -4.102  24.458  0.00  0.00    -0.311 N 
ATOM      2  H   UNL     1       6.995  -3.691  25.330  0.00  0.00    +0.149 HD
ATOM      3  C   UNL     1       6.582  -5.152  23.952  0.00  0.00    +0.250 C 
ATOM      4  O   UNL     1       6.847  -5.685  22.879  0.00  0.00    -0.270 OA
ENDROOT
BRANCH   3   5
ATOM      5  C   UNL     1       5.465  -5.583  24.797  0.00  0.00    +0.105 A 
ATOM      6  C   UNL     1       4.099  -5.783  24.389  0.00  0.00    +0.016 A 
ATOM      7  C   UNL     1       3.373  -6.203  25.507  0.00  0.00    +0.053 A 
ATOM      8  C   UNL     1       1.996  -6.478  25.450  0.00  0.00    +0.026 A 
ATOM      9  C   UNL     1       1.347  -6.331  24.220  0.00  0.00    +0.002 A 
ATOM     10  C   UNL     1       2.046  -5.929  23.088  0.00  0.00    +0.001 A 
ATOM     11  N   UNL     1       4.264  -6.274  26.548  0.00  0.00    -0.311 N 
ATOM     12  C   UNL     1       3.962  -6.718  27.897  0.00  0.00    +0.128 C 
ATOM     13  C   UNL     1       5.239  -7.042  28.657  0.00  0.00    +0.063 C 
ATOM     14  C   UNL     1       6.252  -5.939  28.393  0.00  0.00    +0.232 C 
ATOM     15  O   UNL     1       6.561  -5.837  26.998  0.00  0.00    -0.477 OA
ATOM     16  C   UNL     1       3.415  -5.654  23.159  0.00  0.00    +0.011 A 
ATOM     17  C   UNL     1       5.517  -5.869  26.156  0.00  0.00    +0.209 A 
ENDBRANCH   3   5
BRANCH   1  18
ATOM     18  C   UNL     1       8.422  -3.497  23.757  0.00  0.00    +0.108 C 
BRANCH  18  22
ATOM     19  N   UNL     1      10.437  -0.345  23.415  0.00  0.00    -0.302 NA
ATOM     20  C   UNL     1      10.387  -1.401  22.391  0.00  0.00    +0.085 C 
ATOM     21  C   UNL     1       8.972  -1.798  21.954  0.00  0.00    +0.020 C 
ATOM     22  C   UNL     1       8.056  -2.132  23.143  0.00  0.00    +0.009 C 
ATOM     23  C   UNL     1       8.131  -0.987  24.165  0.00  0.00    +0.020 C 
ATOM     24  C   UNL     1       9.576  -0.677  24.559  0.00  0.00    +0.085 C 
BRANCH  19  25
ATOM     25  C   UNL     1      10.183   0.989  22.850  0.00  0.00    +0.084 C 
BRANCH  25  26
ATOM     26  C   UNL     1      10.516   2.149  23.804  0.00  0.00    +0.015 C 
BRANCH  26  28
ATOM     27  C   UNL     1       8.167   2.790  23.146  0.00  0.00    +0.004 C 
ATOM     28  C   UNL     1       9.299   3.016  24.137  0.00  0.00    -0.002 C 
ENDBRANCH  26  28
ENDBRANCH  25  26
ENDBRANCH  19  25
ENDBRANCH  18  22
ENDBRANCH   1  18
TORSDOF 6
ENDMDL
MODEL 9
REMARK VINA RESULT:      -6.7      2.073      8.762
REMARK  Name = 
REMARK  7 active torsions:
REMARK  status: ('A' for Active; 'I' for Inactive)
REMARK    1  A    between atoms: C_1  and  C_2
REMARK    2  A    between atoms: C_2  and  C_3
REMARK    3  A    between atoms: C_3  and  C_4
REMARK    4  A    between atoms: C_4  and  N_5
REMARK    5  A    between atoms: C_8  and  C_9
REMARK    6  A    between atoms: C_9  and  N_10
REMARK    7  A    between atoms: C_11  and  C_13
REMARK                            x       y       z     vdW  Elec       q    Type
REMARK                         _______ _______ _______ _____ _____    ______ ____
ROOT
ATOM      1  N   UNL     1       8.425   0.398  24.828  0.00  0.00    -0.311 N 
ATOM      2  H   UNL     1       7.989   0.935  25.571  0.00  0.00    +0.149 HD
ATOM      3  C   UNL     1       9.039   1.104  23.818  0.00  0.00    +0.250 C 
ATOM      4  O   UNL     1       9.642   0.556  22.901  0.00  0.00    -0.270 OA
ENDROOT
BRANCH   3   5
ATOM      5  C   UNL     1       8.911   2.560  23.926  0.00  0.00    +0.105 A 
ATOM      6  C   UNL     1       9.953   3.536  23.734  0.00  0.00    +0.016 A 
ATOM      7  C   UNL     1       9.394   4.804  23.920  0.00  0.00    +0.053 A 
ATOM      8  C   UNL     1      10.152   5.982  23.813  0.00  0.00    +0.026 A 
ATOM      9  C   UNL     1      11.509   5.865  23.497  0.00  0.00    +0.002 A 
ATOM     10  C   UNL     1      12.089   4.619  23.292  0.00  0.00    +0.001 A 
ATOM     11  N   UNL     1       8.064   4.608  24.195  0.00  0.00    -0.311 N 
ATOM     12  C   UNL     1       7.078   5.652  24.408  0.00  0.00    +0.128 C 
ATOM     13  C   UNL     1       5.668   5.094  24.290  0.00  0.00    +0.063 C 
ATOM     14  C   UNL     1       5.604   3.777  25.046  0.00  0.00    +0.232 C 
ATOM     15  O   UNL     1       6.523   2.820  24.506  0.00  0.00    -0.477 OA
ATOM     16  C   UNL     1      11.325   3.452  23.406  0.00  0.00    +0.011 A 
ATOM     17  C   UNL     1       7.759   3.269  24.241  0.00  0.00    +0.209 A 
ENDBRANCH   3   5
BRANCH   1  18
ATOM     18  C   UNL     1       8.476  -1.042  24.934  0.00  0.00    +0.108 C 
BRANCH  18  22
ATOM     19  N   UNL     1       7.759  -3.843  22.537  0.00  0.00    -0.302 NA
ATOM     20  C   UNL     1       8.028  -4.039  23.970  0.00  0.00    +0.085 C 
ATOM     21  C   UNL     1       7.146  -3.203  24.905  0.00  0.00    +0.020 C 
ATOM     22  C   UNL     1       7.145  -1.709  24.539  0.00  0.00    +0.009 C 
ATOM     23  C   UNL     1       6.836  -1.565  23.041  0.00  0.00    +0.020 C 
ATOM     24  C   UNL     1       7.777  -2.415  22.186  0.00  0.00    +0.085 C 
BRANCH  19  25
ATOM     25  C   UNL     1       6.541  -4.544  22.099  0.00  0.00    +0.084 C 
BRANCH  25  26
ATOM     26  C   UNL     1       6.433  -5.991  22.610  0.00  0.00    +0.015 C 
BRANCH  26  28
ATOM     27  C   UNL     1       4.210  -5.065  23.361  0.00  0.00    +0.004 C 
ATOM     28  C   UNL     1       5.178  -6.235  23.453  0.00  0.00    -0.002 C 
ENDBRANCH  26  28
ENDBRANCH  25  26
ENDBRANCH  19  25
ENDBRANCH  18  22
ENDBRANCH   1  18
TORSDOF 6
ENDMDL
