MODEL 1
REMARK VINA RESULT:      -8.0      0.000      0.000
REMARK  Name = 
REMARK  16 active torsions:
REMARK  status: ('A' for Active; 'I' for Inactive)
REMARK    1  A    between atoms: C_2  and  C_4
REMARK    2  A    between atoms: C_8  and  C_11
REMARK    3  A    between atoms: C_14  and  C_16
REMARK    4  A    between atoms: C_16  and  O_17
REMARK    5  A    between atoms: O_17  and  P_18
REMARK    6  A    between atoms: P_18  and  O_21
REMARK    7  A    between atoms: O_21  and  P_22
REMARK    8  A    between atoms: P_22  and  O_23
REMARK    9  A    between atoms: P_22  and  O_25
REMARK   10  A    between atoms: O_25  and  C_26
REMARK   11  A    between atoms: C_26  and  C_27
REMARK   12  A    between atoms: C_30  and  N_38
REMARK   13  A    between atoms: C_32  and  O_34
REMARK   14  A    between atoms: C_35  and  O_37
REMARK   15  A    between atoms: C_48  and  O_50
REMARK   16  A    between atoms: C_51  and  O_53
REMARK                            x       y       z     vdW  Elec       q    Type
REMARK                         _______ _______ _______ _____ _____    ______ ____
ROOT
ATOM      1  O   UNL     1       8.021  -5.842  23.273  0.00  0.00    -0.229 OA
ENDROOT
BRANCH   1   2
ATOM      2  P   UNL     1       7.047  -5.149  22.024  0.00  0.00    +0.222 P 
ATOM      3  O   UNL     1       6.072  -4.457  20.773  0.00  0.00    -0.437 OA
ATOM      4  O   UNL     1       6.470  -6.570  21.848  0.00  0.00    -0.517 OA
BRANCH   2   5
ATOM      5  O   UNL     1       6.137  -4.473  23.266  0.00  0.00    -0.324 OA
BRANCH   5   6
ATOM      6  C   UNL     1       4.753  -4.223  23.088  0.00  0.00    +0.202 C 
BRANCH   6  10
ATOM      7  C   UNL     1       3.804  -7.130  25.085  0.00  0.00    +0.245 C 
ATOM      8  C   UNL     1       2.552  -6.951  24.216  0.00  0.00    +0.185 C 
ATOM      9  C   UNL     1       2.644  -5.538  23.650  0.00  0.00    +0.177 C 
ATOM     10  C   UNL     1       3.984  -4.994  24.161  0.00  0.00    +0.176 C 
ATOM     11  O   UNL     1       4.745  -6.119  24.662  0.00  0.00    -0.355 OA
BRANCH   7  15
ATOM     12  C   UNL     1       4.826  -6.721  28.610  0.00  0.00    +0.268 A 
ATOM     13  N   UNL     1       4.796  -6.854  27.277  0.00  0.00    -0.202 N 
ATOM     14  H   UNL     1       5.694  -6.857  26.770  0.00  0.00    +0.453 HD
ATOM     15  C   UNL     1       3.650  -6.962  26.571  0.00  0.00    +0.214 A 
ATOM     16  C   UNL     1       2.440  -6.976  27.277  0.00  0.00    +0.076 A 
ATOM     17  C   UNL     1       2.444  -6.839  28.665  0.00  0.00    +0.013 A 
ATOM     18  C   UNL     1       3.652  -6.712  29.345  0.00  0.00    +0.084 A 
BRANCH  12  22
ATOM     19  N   UNL     1       6.378  -6.997  30.485  0.00  0.00    -0.320 N 
ATOM     20  H   UNL     1       5.640  -7.115  31.168  0.00  0.00    +0.145 HD
ATOM     21  H   UNL     1       7.315  -6.878  30.860  0.00  0.00    +0.145 HD
ATOM     22  C   UNL     1       6.183  -6.659  29.176  0.00  0.00    +0.306 C 
ATOM     23  O   UNL     1       7.082  -6.279  28.438  0.00  0.00    -0.264 OA
ENDBRANCH  12  22
ENDBRANCH   7  15
BRANCH   9  24
ATOM     24  O   UNL     1       1.566  -4.754  24.173  0.00  0.00    -0.386 OA
ATOM     25  H   UNL     1       0.930  -5.415  24.525  0.00  0.00    +0.210 HD
ENDBRANCH   9  24
BRANCH   8  26
ATOM     26  O   UNL     1       2.561  -7.952  23.188  0.00  0.00    -0.386 OA
ATOM     27  H   UNL     1       2.404  -7.527  22.323  0.00  0.00    +0.210 HD
ENDBRANCH   8  26
ENDBRANCH   6  10
ENDBRANCH   5   6
ENDBRANCH   2   5
ENDBRANCH   1   2
BRANCH   1  28
ATOM     28  P   UNL     1       8.232  -4.690  24.546  0.00  0.00    +0.480 P 
ATOM     29  O   UNL     1       9.681  -5.067  24.860  0.00  0.00    -0.227 OA
BRANCH  28  30
ATOM     30  O   UNL     1       7.329  -5.641  25.522  0.00  0.00    -0.302 OA
ATOM     31  H   UNL     1       7.878  -5.959  26.262  0.00  0.00    +0.222 HD
ENDBRANCH  28  30
BRANCH  28  32
ATOM     32  O   UNL     1       8.443  -3.538  25.819  0.00  0.00    -0.284 OA
BRANCH  32  33
ATOM     33  C   UNL     1       8.113  -2.206  25.412  0.00  0.00    +0.206 C 
BRANCH  33  34
ATOM     34  C   UNL     1       8.922  -1.734  24.204  0.00  0.00    +0.178 C 
ATOM     35  C   UNL     1       8.059  -1.502  22.969  0.00  0.00    +0.178 C 
ATOM     36  C   UNL     1       7.727  -0.009  23.002  0.00  0.00    +0.195 C 
ATOM     37  C   UNL     1       8.505   0.537  24.204  0.00  0.00    +0.253 C 
ATOM     38  O   UNL     1       9.519  -0.445  24.494  0.00  0.00    -0.346 OA
BRANCH  37  39
ATOM     39  N   UNL     1       9.100   1.837  23.960  0.00  0.00    -0.286 N 
ATOM     40  C   UNL     1       8.412   3.021  24.031  0.00  0.00    +0.167 A 
ATOM     41  N   UNL     1       7.113   3.197  24.337  0.00  0.00    -0.216 NA
ATOM     42  C   UNL     1       6.791   4.509  24.290  0.00  0.00    +0.225 A 
ATOM     43  N   UNL     1       7.579   5.557  23.965  0.00  0.00    -0.219 NA
ATOM     44  C   UNL     1       8.869   5.317  23.636  0.00  0.00    +0.147 A 
ATOM     45  N   UNL     1       9.662   6.394  23.266  0.00  0.00    -0.341 N 
ATOM     46  H   UNL     1      10.657   6.222  23.352  0.00  0.00    +0.144 HD
ATOM     47  H   UNL     1       9.301   7.278  23.598  0.00  0.00    +0.144 HD
ATOM     48  C   UNL     1       9.337   3.993  23.689  0.00  0.00    +0.147 A 
ATOM     49  N   UNL     1      10.574   3.425  23.459  0.00  0.00    -0.231 NA
ATOM     50  C   UNL     1      10.396   2.132  23.646  0.00  0.00    +0.203 A 
ENDBRANCH  37  39
BRANCH  36  51
ATOM     51  O   UNL     1       6.322   0.205  23.166  0.00  0.00    -0.385 OA
ATOM     52  H   UNL     1       6.039   0.743  22.394  0.00  0.00    +0.210 HD
ENDBRANCH  36  51
BRANCH  35  53
ATOM     53  O   UNL     1       8.821  -1.783  21.784  0.00  0.00    -0.386 OA
ATOM     54  H   UNL     1       8.566  -1.149  21.090  0.00  0.00    +0.210 HD
ENDBRANCH  35  53
ENDBRANCH  33  34
ENDBRANCH  32  33
ENDBRANCH  28  32
ENDBRANCH   1  28
TORSDOF 16
ENDMDL
MODEL 2
REMARK VINA RESULT:      -7.9      2.184      3.693
REMARK  Name = 
REMARK  16 active torsions:
REMARK  status: ('A' for Active; 'I' for Inactive)
REMARK    1  A    between atoms: C_2  and  C_4
REMARK    2  A    between atoms: C_8  and  C_11
REMARK    3  A    between atoms: C_14  and  C_16
REMARK    4  A    between atoms: C_16  and  O_17
REMARK    5  A    between atoms: O_17  and  P_18
REMARK    6  A    between atoms: P_18  and  O_21
REMARK    7  A    between atoms: O_21  and  P_22
REMARK    8  A    between atoms: P_22  and  O_23
REMARK    9  A    between atoms: P_22  and  O_25
REMARK   10  A    between atoms: O_25  and  C_26
REMARK   11  A    between atoms: C_26  and  C_27
REMARK   12  A    between atoms: C_30  and  N_38
REMARK   13  A    between atoms: C_32  and  O_34
REMARK   14  A    between atoms: C_35  and  O_37
REMARK   15  A    between atoms: C_48  and  O_50
REMARK   16  A    between atoms: C_51  and  O_53
REMARK                            x       y       z     vdW  Elec       q    Type
REMARK                         _______ _______ _______ _____ _____    ______ ____
ROOT
ATOM      1  O   UNL     1       3.683  -5.620  22.722  0.00  0.00    -0.229 OA
ENDROOT
BRANCH   1   2
ATOM      2  P   UNL     1       2.202  -5.712  23.610  0.00  0.00    +0.222 P 
ATOM      3  O   UNL     1       0.720  -5.802  24.498  0.00  0.00    -0.437 OA
ATOM      4  O   UNL     1       1.509  -5.649  22.232  0.00  0.00    -0.517 OA
BRANCH   2   5
ATOM      5  O   UNL     1       2.566  -7.340  23.826  0.00  0.00    -0.324 OA
BRANCH   5   6
ATOM      6  C   UNL     1       2.690  -7.879  25.131  0.00  0.00    +0.202 C 
BRANCH   6  10
ATOM      7  C   UNL     1       5.215  -6.814  27.546  0.00  0.00    +0.245 C 
ATOM      8  C   UNL     1       3.928  -6.597  28.354  0.00  0.00    +0.185 C 
ATOM      9  C   UNL     1       2.797  -6.597  27.330  0.00  0.00    +0.177 C 
ATOM     10  C   UNL     1       3.478  -6.888  25.988  0.00  0.00    +0.176 C 
ATOM     11  O   UNL     1       4.812  -7.371  26.275  0.00  0.00    -0.355 OA
BRANCH   7  15
ATOM     12  C   UNL     1       7.990  -4.852  26.103  0.00  0.00    +0.268 A 
ATOM     13  N   UNL     1       7.136  -5.822  26.456  0.00  0.00    -0.202 N 
ATOM     14  H   UNL     1       7.315  -6.776  26.105  0.00  0.00    +0.453 HD
ATOM     15  C   UNL     1       6.050  -5.605  27.227  0.00  0.00    +0.214 A 
ATOM     16  C   UNL     1       5.833  -4.309  27.711  0.00  0.00    +0.076 A 
ATOM     17  C   UNL     1       6.708  -3.281  27.359  0.00  0.00    +0.013 A 
ATOM     18  C   UNL     1       7.804  -3.552  26.545  0.00  0.00    +0.084 A 
BRANCH  12  22
ATOM     19  N   UNL     1      10.374  -5.353  25.845  0.00  0.00    -0.320 N 
ATOM     20  H   UNL     1      10.633  -4.911  26.718  0.00  0.00    +0.145 HD
ATOM     21  H   UNL     1      11.144  -5.615  25.236  0.00  0.00    +0.145 HD
ATOM     22  C   UNL     1       9.126  -5.318  25.292  0.00  0.00    +0.306 C 
ATOM     23  O   UNL     1       8.894  -5.635  24.133  0.00  0.00    -0.264 OA
ENDBRANCH  12  22
ENDBRANCH   7  15
BRANCH   9  24
ATOM     24  O   UNL     1       2.194  -5.299  27.302  0.00  0.00    -0.386 OA
ATOM     25  H   UNL     1       2.315  -4.991  26.378  0.00  0.00    +0.210 HD
ENDBRANCH   9  24
BRANCH   8  26
ATOM     26  O   UNL     1       3.800  -7.661  29.307  0.00  0.00    -0.386 OA
ATOM     27  H   UNL     1       3.289  -8.391  28.910  0.00  0.00    +0.210 HD
ENDBRANCH   8  26
ENDBRANCH   6  10
ENDBRANCH   5   6
ENDBRANCH   2   5
ENDBRANCH   1   2
BRANCH   1  28
ATOM     28  P   UNL     1       4.601  -4.260  23.269  0.00  0.00    +0.480 P 
ATOM     29  O   UNL     1       5.011  -3.777  21.877  0.00  0.00    -0.227 OA
BRANCH  28  30
ATOM     30  O   UNL     1       5.792  -5.281  23.728  0.00  0.00    -0.302 OA
ATOM     31  H   UNL     1       6.430  -4.803  24.289  0.00  0.00    +0.222 HD
ENDBRANCH  28  30
BRANCH  28  32
ATOM     32  O   UNL     1       5.519  -2.900  23.816  0.00  0.00    -0.284 OA
BRANCH  32  33
ATOM     33  C   UNL     1       6.609  -2.589  22.942  0.00  0.00    +0.206 C 
BRANCH  33  34
ATOM     34  C   UNL     1       7.883  -2.202  23.692  0.00  0.00    +0.178 C 
ATOM     35  C   UNL     1       9.146  -2.422  22.865  0.00  0.00    +0.178 C 
ATOM     36  C   UNL     1       9.426  -1.066  22.215  0.00  0.00    +0.195 C 
ATOM     37  C   UNL     1       8.359  -0.130  22.792  0.00  0.00    +0.253 C 
ATOM     38  O   UNL     1       7.864  -0.780  23.977  0.00  0.00    -0.346 OA
BRANCH  37  39
ATOM     39  N   UNL     1       8.865   1.194  23.101  0.00  0.00    -0.286 N 
ATOM     40  C   UNL     1       8.174   2.355  22.863  0.00  0.00    +0.167 A 
ATOM     41  N   UNL     1       6.945   2.482  22.329  0.00  0.00    -0.216 NA
ATOM     42  C   UNL     1       6.605   3.788  22.236  0.00  0.00    +0.225 A 
ATOM     43  N   UNL     1       7.335   4.873  22.573  0.00  0.00    -0.219 NA
ATOM     44  C   UNL     1       8.577   4.684  23.077  0.00  0.00    +0.147 A 
ATOM     45  N   UNL     1       9.335   5.805  23.385  0.00  0.00    -0.341 N 
ATOM     46  H   UNL     1      10.086   5.626  24.042  0.00  0.00    +0.144 HD
ATOM     47  H   UNL     1       8.772   6.634  23.519  0.00  0.00    +0.144 HD
ATOM     48  C   UNL     1       9.030   3.368  23.263  0.00  0.00    +0.147 A 
ATOM     49  N   UNL     1      10.198   2.841  23.777  0.00  0.00    -0.231 NA
ATOM     50  C   UNL     1      10.056   1.533  23.678  0.00  0.00    +0.203 A 
ENDBRANCH  37  39
BRANCH  36  51
ATOM     51  O   UNL     1       9.320  -1.143  20.790  0.00  0.00    -0.385 OA
ATOM     52  H   UNL     1       8.360  -1.210  20.596  0.00  0.00    +0.210 HD
ENDBRANCH  36  51
BRANCH  35  53
ATOM     53  O   UNL     1      10.241  -2.759  23.732  0.00  0.00    -0.386 OA
ATOM     54  H   UNL     1      10.949  -2.100  23.612  0.00  0.00    +0.210 HD
ENDBRANCH  35  53
ENDBRANCH  33  34
ENDBRANCH  32  33
ENDBRANCH  28  32
ENDBRANCH   1  28
TORSDOF 16
ENDMDL
MODEL 3
REMARK VINA RESULT:      -7.8      2.380      4.632
REMARK  Name = 
REMARK  16 active torsions:
REMARK  status: ('A' for Active; 'I' for Inactive)
REMARK    1  A    between atoms: C_2  and  C_4
REMARK    2  A    between atoms: C_8  and  C_11
REMARK    3  A    between atoms: C_14  and  C_16
REMARK    4  A    between atoms: C_16  and  O_17
REMARK    5  A    between atoms: O_17  and  P_18
REMARK    6  A    between atoms: P_18  and  O_21
REMARK    7  A    between atoms: O_21  and  P_22
REMARK    8  A    between atoms: P_22  and  O_23
REMARK    9  A    between atoms: P_22  and  O_25
REMARK   10  A    between atoms: O_25  and  C_26
REMARK   11  A    between atoms: C_26  and  C_27
REMARK   12  A    between atoms: C_30  and  N_38
REMARK   13  A    between atoms: C_32  and  O_34
REMARK   14  A    between atoms: C_35  and  O_37
REMARK   15  A    between atoms: C_48  and  O_50
REMARK   16  A    between atoms: C_51  and  O_53
REMARK                            x       y       z     vdW  Elec       q    Type
REMARK                         _______ _______ _______ _____ _____    ______ ____
ROOT
ATOM      1  O   UNL     1       7.018  -6.182  27.471  0.00  0.00    -0.229 OA
ENDROOT
BRANCH   1   2
ATOM      2  P   UNL     1       5.908  -5.873  28.760  0.00  0.00    +0.222 P 
ATOM      3  O   UNL     1       4.799  -5.562  30.051  0.00  0.00    -0.437 OA
ATOM      4  O   UNL     1       5.740  -4.477  28.123  0.00  0.00    -0.517 OA
BRANCH   2   5
ATOM      5  O   UNL     1       4.834  -6.856  27.918  0.00  0.00    -0.324 OA
BRANCH   5   6
ATOM      6  C   UNL     1       3.680  -6.301  27.310  0.00  0.00    +0.202 C 
BRANCH   6  10
ATOM      7  C   UNL     1       3.475  -4.922  23.934  0.00  0.00    +0.245 C 
ATOM      8  C   UNL     1       2.507  -6.108  23.825  0.00  0.00    +0.185 C 
ATOM      9  C   UNL     1       2.823  -7.005  25.016  0.00  0.00    +0.177 C 
ATOM     10  C   UNL     1       3.909  -6.257  25.799  0.00  0.00    +0.176 C 
ATOM     11  O   UNL     1       3.942  -4.898  25.300  0.00  0.00    -0.355 OA
BRANCH   7  15
ATOM     12  C   UNL     1       6.550  -3.668  22.319  0.00  0.00    +0.268 A 
ATOM     13  N   UNL     1       5.439  -3.812  23.054  0.00  0.00    -0.202 N 
ATOM     14  H   UNL     1       5.143  -3.019  23.645  0.00  0.00    +0.453 HD
ATOM     15  C   UNL     1       4.706  -4.945  23.071  0.00  0.00    +0.214 A 
ATOM     16  C   UNL     1       5.110  -6.004  22.248  0.00  0.00    +0.076 A 
ATOM     17  C   UNL     1       6.263  -5.880  21.473  0.00  0.00    +0.013 A 
ATOM     18  C   UNL     1       6.995  -4.696  21.505  0.00  0.00    +0.084 A 
BRANCH  12  22
ATOM     19  N   UNL     1       6.379  -1.245  22.641  0.00  0.00    -0.320 N 
ATOM     20  H   UNL     1       5.369  -1.236  22.559  0.00  0.00    +0.145 HD
ATOM     21  H   UNL     1       6.831  -0.336  22.638  0.00  0.00    +0.145 HD
ATOM     22  C   UNL     1       7.169  -2.337  22.421  0.00  0.00    +0.306 C 
ATOM     23  O   UNL     1       8.383  -2.271  22.277  0.00  0.00    -0.264 OA
ENDBRANCH  12  22
ENDBRANCH   7  15
BRANCH   9  24
ATOM     24  O   UNL     1       3.337  -8.253  24.537  0.00  0.00    -0.386 OA
ATOM     25  H   UNL     1       4.231  -8.322  24.938  0.00  0.00    +0.210 HD
ENDBRANCH   9  24
BRANCH   8  26
ATOM     26  O   UNL     1       1.163  -5.608  23.860  0.00  0.00    -0.386 OA
ATOM     27  H   UNL     1       1.149  -4.697  23.510  0.00  0.00    +0.210 HD
ENDBRANCH   8  26
ENDBRANCH   6  10
ENDBRANCH   5   6
ENDBRANCH   2   5
ENDBRANCH   1   2
BRANCH   1  28
ATOM     28  P   UNL     1       7.332  -4.713  26.615  0.00  0.00    +0.480 P 
ATOM     29  O   UNL     1       7.331  -5.341  25.220  0.00  0.00    -0.227 OA
BRANCH  28  30
ATOM     30  O   UNL     1       8.889  -4.788  27.108  0.00  0.00    -0.302 OA
ATOM     31  H   UNL     1       9.462  -4.369  26.439  0.00  0.00    +0.222 HD
ENDBRANCH  28  30
BRANCH  28  32
ATOM     32  O   UNL     1       7.647  -3.243  25.758  0.00  0.00    -0.284 OA
BRANCH  32  33
ATOM     33  C   UNL     1       6.710  -2.210  26.081  0.00  0.00    +0.206 C 
BRANCH  33  34
ATOM     34  C   UNL     1       7.367  -0.989  26.722  0.00  0.00    +0.178 C 
ATOM     35  C   UNL     1       8.886  -1.105  26.797  0.00  0.00    +0.178 C 
ATOM     36  C   UNL     1       9.392  -0.394  25.540  0.00  0.00    +0.195 C 
ATOM     37  C   UNL     1       8.131   0.170  24.877  0.00  0.00    +0.253 C 
ATOM     38  O   UNL     1       7.119   0.181  25.902  0.00  0.00    -0.346 OA
BRANCH  37  39
ATOM     39  N   UNL     1       8.319   1.497  24.323  0.00  0.00    -0.286 N 
ATOM     40  C   UNL     1       7.346   2.197  23.657  0.00  0.00    +0.167 A 
ATOM     41  N   UNL     1       6.082   1.807  23.409  0.00  0.00    -0.216 NA
ATOM     42  C   UNL     1       5.423   2.760  22.712  0.00  0.00    +0.225 A 
ATOM     43  N   UNL     1       5.890   3.944  22.259  0.00  0.00    -0.219 NA
ATOM     44  C   UNL     1       7.178   4.269  22.512  0.00  0.00    +0.147 A 
ATOM     45  N   UNL     1       7.661   5.470  22.011  0.00  0.00    -0.341 N 
ATOM     46  H   UNL     1       8.488   5.813  22.487  0.00  0.00    +0.144 HD
ATOM     47  H   UNL     1       6.925   6.130  21.799  0.00  0.00    +0.144 HD
ATOM     48  C   UNL     1       7.957   3.377  23.268  0.00  0.00    +0.147 A 
ATOM     49  N   UNL     1       9.259   3.422  23.724  0.00  0.00    -0.231 NA
ATOM     50  C   UNL     1       9.436   2.283  24.366  0.00  0.00    +0.203 A 
ENDBRANCH  37  39
BRANCH  36  51
ATOM     51  O   UNL     1      10.063  -1.305  24.665  0.00  0.00    -0.385 OA
ATOM     52  H   UNL     1      10.282  -2.091  25.210  0.00  0.00    +0.210 HD
ENDBRANCH  36  51
BRANCH  35  53
ATOM     53  O   UNL     1       9.371  -0.406  27.955  0.00  0.00    -0.386 OA
ATOM     54  H   UNL     1       9.136  -0.918  28.750  0.00  0.00    +0.210 HD
ENDBRANCH  35  53
ENDBRANCH  33  34
ENDBRANCH  32  33
ENDBRANCH  28  32
ENDBRANCH   1  28
TORSDOF 16
ENDMDL
MODEL 4
REMARK VINA RESULT:      -7.8      3.701      6.392
REMARK  Name = 
REMARK  16 active torsions:
REMARK  status: ('A' for Active; 'I' for Inactive)
REMARK    1  A    between atoms: C_2  and  C_4
REMARK    2  A    between atoms: C_8  and  C_11
REMARK    3  A    between atoms: C_14  and  C_16
REMARK    4  A    between atoms: C_16  and  O_17
REMARK    5  A    between atoms: O_17  and  P_18
REMARK    6  A    between atoms: P_18  and  O_21
REMARK    7  A    between atoms: O_21  and  P_22
REMARK    8  A    between atoms: P_22  and  O_23
REMARK    9  A    between atoms: P_22  and  O_25
REMARK   10  A    between atoms: O_25  and  C_26
REMARK   11  A    between atoms: C_26  and  C_27
REMARK   12  A    between atoms: C_30  and  N_38
REMARK   13  A    between atoms: C_32  and  O_34
REMARK   14  A    between atoms: C_35  and  O_37
REMARK   15  A    between atoms: C_48  and  O_50
REMARK   16  A    between atoms: C_51  and  O_53
REMARK                            x       y       z     vdW  Elec       q    Type
REMARK                         _______ _______ _______ _____ _____    ______ ____
ROOT
ATOM      1  O   UNL     1       4.890  -4.627  26.780  0.00  0.00    -0.229 OA
ENDROOT
BRANCH   1   2
ATOM      2  P   UNL     1       5.865  -5.565  27.856  0.00  0.00    +0.222 P 
ATOM      3  O   UNL     1       6.840  -6.505  28.932  0.00  0.00    -0.437 OA
ATOM      4  O   UNL     1       5.854  -6.635  26.744  0.00  0.00    -0.517 OA
BRANCH   2   5
ATOM      5  O   UNL     1       7.122  -4.530  27.435  0.00  0.00    -0.324 OA
BRANCH   5   6
ATOM      6  C   UNL     1       8.231  -5.012  26.695  0.00  0.00    +0.202 C 
BRANCH   6  10
ATOM      7  C   UNL     1       7.157  -2.610  24.163  0.00  0.00    +0.245 C 
ATOM      8  C   UNL     1       6.658  -3.924  23.549  0.00  0.00    +0.185 C 
ATOM      9  C   UNL     1       7.407  -5.030  24.285  0.00  0.00    +0.177 C 
ATOM     10  C   UNL     1       8.248  -4.304  25.341  0.00  0.00    +0.176 C 
ATOM     11  O   UNL     1       7.746  -2.949  25.437  0.00  0.00    -0.355 OA
BRANCH   7  15
ATOM     12  C   UNL     1       9.739  -0.044  23.540  0.00  0.00    +0.268 A 
ATOM     13  N   UNL     1       8.801  -0.834  24.081  0.00  0.00    -0.202 N 
ATOM     14  H   UNL     1       8.536  -0.667  25.064  0.00  0.00    +0.453 HD
ATOM     15  C   UNL     1       8.207  -1.842  23.408  0.00  0.00    +0.214 A 
ATOM     16  C   UNL     1       8.564  -2.042  22.069  0.00  0.00    +0.076 A 
ATOM     17  C   UNL     1       9.538  -1.234  21.482  0.00  0.00    +0.013 A 
ATOM     18  C   UNL     1      10.135  -0.219  22.224  0.00  0.00    +0.084 A 
BRANCH  12  22
ATOM     19  N   UNL     1       9.322   1.743  25.163  0.00  0.00    -0.320 N 
ATOM     20  H   UNL     1       8.321   1.746  25.006  0.00  0.00    +0.145 HD
ATOM     21  H   UNL     1       9.685   2.510  25.720  0.00  0.00    +0.145 HD
ATOM     22  C   UNL     1      10.222   1.016  24.438  0.00  0.00    +0.306 C 
ATOM     23  O   UNL     1      11.430   1.213  24.473  0.00  0.00    -0.264 OA
ENDBRANCH  12  22
ENDBRANCH   7  15
BRANCH   9  24
ATOM     24  O   UNL     1       8.263  -5.710  23.360  0.00  0.00    -0.386 OA
ATOM     25  H   UNL     1       9.121  -5.788  23.830  0.00  0.00    +0.210 HD
ENDBRANCH   9  24
BRANCH   8  26
ATOM     26  O   UNL     1       5.238  -4.009  23.736  0.00  0.00    -0.386 OA
ATOM     27  H   UNL     1       4.975  -3.425  24.473  0.00  0.00    +0.210 HD
ENDBRANCH   8  26
ENDBRANCH   6  10
ENDBRANCH   5   6
ENDBRANCH   2   5
ENDBRANCH   1   2
BRANCH   1  28
ATOM     28  P   UNL     1       4.367  -3.186  27.583  0.00  0.00    +0.480 P 
ATOM     29  O   UNL     1       2.913  -3.264  27.113  0.00  0.00    -0.227 OA
BRANCH  28  30
ATOM     30  O   UNL     1       5.131  -2.302  26.440  0.00  0.00    -0.302 OA
ATOM     31  H   UNL     1       5.838  -2.838  26.034  0.00  0.00    +0.222 HD
ENDBRANCH  28  30
BRANCH  28  32
ATOM     32  O   UNL     1       3.845  -1.746  28.385  0.00  0.00    -0.284 OA
BRANCH  32  33
ATOM     33  C   UNL     1       3.537  -0.690  27.468  0.00  0.00    +0.206 C 
BRANCH  33  34
ATOM     34  C   UNL     1       4.100   0.661  27.905  0.00  0.00    +0.178 C 
ATOM     35  C   UNL     1       5.586   0.601  28.245  0.00  0.00    +0.178 C 
ATOM     36  C   UNL     1       6.297   1.014  26.955  0.00  0.00    +0.195 C 
ATOM     37  C   UNL     1       5.166   1.380  25.987  0.00  0.00    +0.253 C 
ATOM     38  O   UNL     1       4.004   1.604  26.807  0.00  0.00    -0.346 OA
BRANCH  37  39
ATOM     39  N   UNL     1       5.460   2.547  25.176  0.00  0.00    -0.286 N 
ATOM     40  C   UNL     1       6.105   2.499  23.967  0.00  0.00    +0.167 A 
ATOM     41  N   UNL     1       6.562   1.407  23.325  0.00  0.00    -0.216 NA
ATOM     42  C   UNL     1       7.157   1.760  22.163  0.00  0.00    +0.225 A 
ATOM     43  N   UNL     1       7.344   2.997  21.656  0.00  0.00    -0.219 NA
ATOM     44  C   UNL     1       6.891   4.059  22.361  0.00  0.00    +0.147 A 
ATOM     45  N   UNL     1       7.120   5.329  21.851  0.00  0.00    -0.341 N 
ATOM     46  H   UNL     1       6.500   6.040  22.221  0.00  0.00    +0.144 HD
ATOM     47  H   UNL     1       7.300   5.325  20.856  0.00  0.00    +0.144 HD
ATOM     48  C   UNL     1       6.214   3.820  23.568  0.00  0.00    +0.147 A 
ATOM     49  N   UNL     1       5.608   4.655  24.486  0.00  0.00    -0.231 NA
ATOM     50  C   UNL     1       5.154   3.853  25.429  0.00  0.00    +0.203 A 
ENDBRANCH  37  39
BRANCH  36  51
ATOM     51  O   UNL     1       7.086  -0.059  26.432  0.00  0.00    -0.385 OA
ATOM     52  H   UNL     1       6.475  -0.822  26.339  0.00  0.00    +0.210 HD
ENDBRANCH  36  51
BRANCH  35  53
ATOM     53  O   UNL     1       5.889   1.560  29.271  0.00  0.00    -0.386 OA
ATOM     54  H   UNL     1       5.861   1.112  30.136  0.00  0.00    +0.210 HD
ENDBRANCH  35  53
ENDBRANCH  33  34
ENDBRANCH  32  33
ENDBRANCH  28  32
ENDBRANCH   1  28
TORSDOF 16
ENDMDL
MODEL 5
REMARK VINA RESULT:      -7.8      3.218      6.096
REMARK  Name = 
REMARK  16 active torsions:
REMARK  status: ('A' for Active; 'I' for Inactive)
REMARK    1  A    between atoms: C_2  and  C_4
REMARK    2  A    between atoms: C_8  and  C_11
REMARK    3  A    between atoms: C_14  and  C_16
REMARK    4  A    between atoms: C_16  and  O_17
REMARK    5  A    between atoms: O_17  and  P_18
REMARK    6  A    between atoms: P_18  and  O_21
REMARK    7  A    between atoms: O_21  and  P_22
REMARK    8  A    between atoms: P_22  and  O_23
REMARK    9  A    between atoms: P_22  and  O_25
REMARK   10  A    between atoms: O_25  and  C_26
REMARK   11  A    between atoms: C_26  and  C_27
REMARK   12  A    between atoms: C_30  and  N_38
REMARK   13  A    between atoms: C_32  and  O_34
REMARK   14  A    between atoms: C_35  and  O_37
REMARK   15  A    between atoms: C_48  and  O_50
REMARK   16  A    between atoms: C_51  and  O_53
REMARK                            x       y       z     vdW  Elec       q    Type
REMARK                         _______ _______ _______ _____ _____    ______ ____
ROOT
ATOM      1  O   UNL     1       9.066  -0.280  21.571  0.00  0.00    -0.229 OA
ENDROOT
BRANCH   1   2
ATOM      2  P   UNL     1       9.805  -1.481  22.572  0.00  0.00    +0.222 P 
ATOM      3  O   UNL     1      10.546  -2.682  23.572  0.00  0.00    -0.437 OA
ATOM      4  O   UNL     1      10.530  -0.300  23.251  0.00  0.00    -0.517 OA
BRANCH   2   5
ATOM      5  O   UNL     1       8.321  -1.576  23.357  0.00  0.00    -0.324 OA
BRANCH   5   6
ATOM      6  C   UNL     1       7.283  -2.386  22.833  0.00  0.00    +0.202 C 
BRANCH   6  10
ATOM      7  C   UNL     1       7.934  -4.502  25.738  0.00  0.00    +0.245 C 
ATOM      8  C   UNL     1       8.539  -5.354  24.614  0.00  0.00    +0.185 C 
ATOM      9  C   UNL     1       7.961  -4.793  23.319  0.00  0.00    +0.177 C 
ATOM     10  C   UNL     1       7.108  -3.595  23.752  0.00  0.00    +0.176 C 
ATOM     11  O   UNL     1       7.462  -3.284  25.121  0.00  0.00    -0.355 OA
BRANCH   7  15
ATOM     12  C   UNL     1       4.857  -6.461  26.314  0.00  0.00    +0.268 A 
ATOM     13  N   UNL     1       5.952  -5.893  25.792  0.00  0.00    -0.202 N 
ATOM     14  H   UNL     1       6.190  -6.112  24.812  0.00  0.00    +0.453 HD
ATOM     15  C   UNL     1       6.763  -5.070  26.491  0.00  0.00    +0.214 A 
ATOM     16  C   UNL     1       6.414  -4.769  27.813  0.00  0.00    +0.076 A 
ATOM     17  C   UNL     1       5.279  -5.346  28.381  0.00  0.00    +0.013 A 
ATOM     18  C   UNL     1       4.485  -6.203  27.624  0.00  0.00    +0.084 A 
BRANCH  12  22
ATOM     19  N   UNL     1       2.990  -7.961  25.796  0.00  0.00    -0.320 N 
ATOM     20  H   UNL     1       2.736  -8.092  26.767  0.00  0.00    +0.145 HD
ATOM     21  H   UNL     1       2.532  -8.576  25.131  0.00  0.00    +0.145 HD
ATOM     22  C   UNL     1       4.098  -7.290  25.364  0.00  0.00    +0.306 C 
ATOM     23  O   UNL     1       4.520  -7.355  24.217  0.00  0.00    -0.264 OA
ENDBRANCH  12  22
ENDBRANCH   7  15
BRANCH   9  24
ATOM     24  O   UNL     1       7.133  -5.789  22.707  0.00  0.00    -0.386 OA
ATOM     25  H   UNL     1       7.522  -5.918  21.815  0.00  0.00    +0.210 HD
ENDBRANCH   9  24
BRANCH   8  26
ATOM     26  O   UNL     1       9.967  -5.239  24.669  0.00  0.00    -0.386 OA
ATOM     27  H   UNL     1      10.367  -6.116  24.514  0.00  0.00    +0.210 HD
ENDBRANCH   8  26
ENDBRANCH   6  10
ENDBRANCH   5   6
ENDBRANCH   2   5
ENDBRANCH   1   2
BRANCH   1  28
ATOM     28  P   UNL     1       8.802   1.158  22.496  0.00  0.00    +0.480 P 
ATOM     29  O   UNL     1       7.411   1.454  21.933  0.00  0.00    -0.227 OA
BRANCH  28  30
ATOM     30  O   UNL     1       9.833   1.953  21.507  0.00  0.00    -0.302 OA
ATOM     31  H   UNL     1       9.762   1.589  20.605  0.00  0.00    +0.222 HD
ENDBRANCH  28  30
BRANCH  28  32
ATOM     32  O   UNL     1       8.539   2.597  23.420  0.00  0.00    -0.284 OA
BRANCH  32  33
ATOM     33  C   UNL     1       8.759   2.396  24.820  0.00  0.00    +0.206 C 
BRANCH  33  34
ATOM     34  C   UNL     1       7.613   2.919  25.685  0.00  0.00    +0.178 C 
ATOM     35  C   UNL     1       6.325   3.130  24.896  0.00  0.00    +0.178 C 
ATOM     36  C   UNL     1       5.535   1.834  25.090  0.00  0.00    +0.195 C 
ATOM     37  C   UNL     1       6.381   1.003  26.061  0.00  0.00    +0.253 C 
ATOM     38  O   UNL     1       7.279   1.934  26.695  0.00  0.00    -0.346 OA
BRANCH  37  39
ATOM     39  N   UNL     1       5.590   0.293  27.048  0.00  0.00    -0.286 N 
ATOM     40  C   UNL     1       4.856  -0.833  26.778  0.00  0.00    +0.167 A 
ATOM     41  N   UNL     1       4.741  -1.473  25.599  0.00  0.00    -0.216 NA
ATOM     42  C   UNL     1       3.916  -2.537  25.720  0.00  0.00    +0.225 A 
ATOM     43  N   UNL     1       3.237  -2.956  26.810  0.00  0.00    -0.219 NA
ATOM     44  C   UNL     1       3.367  -2.255  27.960  0.00  0.00    +0.147 A 
ATOM     45  N   UNL     1       2.638  -2.669  29.066  0.00  0.00    -0.341 N 
ATOM     46  H   UNL     1       3.006  -2.338  29.950  0.00  0.00    +0.144 HD
ATOM     47  H   UNL     1       2.346  -3.635  29.002  0.00  0.00    +0.144 HD
ATOM     48  C   UNL     1       4.234  -1.149  27.974  0.00  0.00    +0.147 A 
ATOM     49  N   UNL     1       4.614  -0.266  28.966  0.00  0.00    -0.231 NA
ATOM     50  C   UNL     1       5.440   0.575  28.376  0.00  0.00    +0.203 A 
ENDBRANCH  37  39
BRANCH  36  51
ATOM     51  O   UNL     1       5.359   1.144  23.849  0.00  0.00    -0.385 OA
ATOM     52  H   UNL     1       6.176   1.311  23.330  0.00  0.00    +0.210 HD
ENDBRANCH  36  51
BRANCH  35  53
ATOM     53  O   UNL     1       5.580   4.219  25.463  0.00  0.00    -0.386 OA
ATOM     54  H   UNL     1       6.074   4.573  26.224  0.00  0.00    +0.210 HD
ENDBRANCH  35  53
ENDBRANCH  33  34
ENDBRANCH  32  33
ENDBRANCH  28  32
ENDBRANCH   1  28
TORSDOF 16
ENDMDL
MODEL 6
REMARK VINA RESULT:      -7.8      4.190      8.242
REMARK  Name = 
REMARK  16 active torsions:
REMARK  status: ('A' for Active; 'I' for Inactive)
REMARK    1  A    between atoms: C_2  and  C_4
REMARK    2  A    between atoms: C_8  and  C_11
REMARK    3  A    between atoms: C_14  and  C_16
REMARK    4  A    between atoms: C_16  and  O_17
REMARK    5  A    between atoms: O_17  and  P_18
REMARK    6  A    between atoms: P_18  and  O_21
REMARK    7  A    between atoms: O_21  and  P_22
REMARK    8  A    between atoms: P_22  and  O_23
REMARK    9  A    between atoms: P_22  and  O_25
REMARK   10  A    between atoms: O_25  and  C_26
REMARK   11  A    between atoms: C_26  and  C_27
REMARK   12  A    between atoms: C_30  and  N_38
REMARK   13  A    between atoms: C_32  and  O_34
REMARK   14  A    between atoms: C_35  and  O_37
REMARK   15  A    between atoms: C_48  and  O_50
REMARK   16  A    between atoms: C_51  and  O_53
REMARK                            x       y       z     vdW  Elec       q    Type
REMARK                         _______ _______ _______ _____ _____    ______ ____
ROOT
ATOM      1  O   UNL     1       8.105   2.047  24.772  0.00  0.00    -0.229 OA
ENDROOT
BRANCH   1   2
ATOM      2  P   UNL     1       7.840   3.114  23.437  0.00  0.00    +0.222 P 
ATOM      3  O   UNL     1       7.577   4.182  22.102  0.00  0.00    -0.437 OA
ATOM      4  O   UNL     1       9.378   3.149  23.313  0.00  0.00    -0.517 OA
BRANCH   2   5
ATOM      5  O   UNL     1       7.377   1.742  22.581  0.00  0.00    -0.324 OA
BRANCH   5   6
ATOM      6  C   UNL     1       8.339   0.984  21.866  0.00  0.00    +0.202 C 
BRANCH   6  10
ATOM      7  C   UNL     1       7.690  -1.610  24.354  0.00  0.00    +0.245 C 
ATOM      8  C   UNL     1       9.194  -1.382  24.555  0.00  0.00    +0.185 C 
ATOM      9  C   UNL     1       9.666  -0.645  23.306  0.00  0.00    +0.177 C 
ATOM     10  C   UNL     1       8.397  -0.416  22.477  0.00  0.00    +0.176 C 
ATOM     11  O   UNL     1       7.264  -0.671  23.341  0.00  0.00    -0.355 OA
BRANCH   7  15
ATOM     12  C   UNL     1       5.373  -4.379  23.580  0.00  0.00    +0.268 A 
ATOM     13  N   UNL     1       5.921  -3.211  23.944  0.00  0.00    -0.202 N 
ATOM     14  H   UNL     1       5.291  -2.463  24.274  0.00  0.00    +0.453 HD
ATOM     15  C   UNL     1       7.247  -2.966  23.880  0.00  0.00    +0.214 A 
ATOM     16  C   UNL     1       8.088  -3.999  23.449  0.00  0.00    +0.076 A 
ATOM     17  C   UNL     1       7.543  -5.224  23.064  0.00  0.00    +0.013 A 
ATOM     18  C   UNL     1       6.167  -5.421  23.130  0.00  0.00    +0.084 A 
BRANCH  12  22
ATOM     19  N   UNL     1       3.355  -3.857  24.867  0.00  0.00    -0.320 N 
ATOM     20  H   UNL     1       3.871  -3.532  25.675  0.00  0.00    +0.145 HD
ATOM     21  H   UNL     1       2.355  -3.979  24.999  0.00  0.00    +0.145 HD
ATOM     22  C   UNL     1       3.915  -4.443  23.768  0.00  0.00    +0.306 C 
ATOM     23  O   UNL     1       3.267  -5.050  22.925  0.00  0.00    -0.264 OA
ENDBRANCH  12  22
ENDBRANCH   7  15
BRANCH   9  24
ATOM     24  O   UNL     1      10.577  -1.483  22.585  0.00  0.00    -0.386 OA
ATOM     25  H   UNL     1      11.339  -0.900  22.380  0.00  0.00    +0.210 HD
ENDBRANCH   9  24
BRANCH   8  26
ATOM     26  O   UNL     1       9.387  -0.612  25.749  0.00  0.00    -0.386 OA
ATOM     27  H   UNL     1      10.230  -0.125  25.686  0.00  0.00    +0.210 HD
ENDBRANCH   8  26
ENDBRANCH   6  10
ENDBRANCH   5   6
ENDBRANCH   2   5
ENDBRANCH   1   2
BRANCH   1  28
ATOM     28  P   UNL     1       6.785   2.176  25.884  0.00  0.00    +0.480 P 
ATOM     29  O   UNL     1       7.253   1.054  26.813  0.00  0.00    -0.227 OA
BRANCH  28  30
ATOM     30  O   UNL     1       5.823   1.438  24.787  0.00  0.00    -0.302 OA
ATOM     31  H   UNL     1       6.302   0.689  24.387  0.00  0.00    +0.222 HD
ENDBRANCH  28  30
BRANCH  28  32
ATOM     32  O   UNL     1       5.466   2.303  26.995  0.00  0.00    -0.284 OA
BRANCH  32  33
ATOM     33  C   UNL     1       5.605   1.421  28.113  0.00  0.00    +0.206 C 
BRANCH  33  34
ATOM     34  C   UNL     1       4.317   0.669  28.444  0.00  0.00    +0.178 C 
ATOM     35  C   UNL     1       3.468   0.379  27.210  0.00  0.00    +0.178 C 
ATOM     36  C   UNL     1       3.875  -1.032  26.781  0.00  0.00    +0.195 C 
ATOM     37  C   UNL     1       4.861  -1.497  27.859  0.00  0.00    +0.253 C 
ATOM     38  O   UNL     1       4.642  -0.634  28.990  0.00  0.00    -0.346 OA
BRANCH  37  39
ATOM     39  N   UNL     1       4.690  -2.889  28.229  0.00  0.00    -0.286 N 
ATOM     40  C   UNL     1       5.543  -3.894  27.851  0.00  0.00    +0.167 A 
ATOM     41  N   UNL     1       6.657  -3.785  27.103  0.00  0.00    -0.216 NA
ATOM     42  C   UNL     1       7.226  -4.999  26.927  0.00  0.00    +0.225 A 
ATOM     43  N   UNL     1       6.798  -6.201  27.369  0.00  0.00    -0.219 NA
ATOM     44  C   UNL     1       5.654  -6.253  28.090  0.00  0.00    +0.147 A 
ATOM     45  N   UNL     1       5.199  -7.496  28.509  0.00  0.00    -0.341 N 
ATOM     46  H   UNL     1       4.557  -7.458  29.292  0.00  0.00    +0.144 HD
ATOM     47  H   UNL     1       5.930  -8.195  28.524  0.00  0.00    +0.144 HD
ATOM     48  C   UNL     1       4.990  -5.049  28.378  0.00  0.00    +0.147 A 
ATOM     49  N   UNL     1       3.852  -4.754  29.102  0.00  0.00    -0.231 NA
ATOM     50  C   UNL     1       3.713  -3.447  29.003  0.00  0.00    +0.203 A 
ENDBRANCH  37  39
BRANCH  36  51
ATOM     51  O   UNL     1       4.497  -1.023  25.493  0.00  0.00    -0.385 OA
ATOM     52  H   UNL     1       5.322  -0.500  25.596  0.00  0.00    +0.210 HD
ENDBRANCH  36  51
BRANCH  35  53
ATOM     53  O   UNL     1       2.077   0.374  27.567  0.00  0.00    -0.386 OA
ATOM     54  H   UNL     1       2.002   0.403  28.538  0.00  0.00    +0.210 HD
ENDBRANCH  35  53
ENDBRANCH  33  34
ENDBRANCH  32  33
ENDBRANCH  28  32
ENDBRANCH   1  28
TORSDOF 16
ENDMDL
MODEL 7
REMARK VINA RESULT:      -7.7      2.968      9.440
REMARK  Name = 
REMARK  16 active torsions:
REMARK  status: ('A' for Active; 'I' for Inactive)
REMARK    1  A    between atoms: C_2  and  C_4
REMARK    2  A    between atoms: C_8  and  C_11
REMARK    3  A    between atoms: C_14  and  C_16
REMARK    4  A    between atoms: C_16  and  O_17
REMARK    5  A    between atoms: O_17  and  P_18
REMARK    6  A    between atoms: P_18  and  O_21
REMARK    7  A    between atoms: O_21  and  P_22
REMARK    8  A    between atoms: P_22  and  O_23
REMARK    9  A    between atoms: P_22  and  O_25
REMARK   10  A    between atoms: O_25  and  C_26
REMARK   11  A    between atoms: C_26  and  C_27
REMARK   12  A    between atoms: C_30  and  N_38
REMARK   13  A    between atoms: C_32  and  O_34
REMARK   14  A    between atoms: C_35  and  O_37
REMARK   15  A    between atoms: C_48  and  O_50
REMARK   16  A    between atoms: C_51  and  O_53
REMARK                            x       y       z     vdW  Elec       q    Type
REMARK                         _______ _______ _______ _____ _____    ______ ____
ROOT
ATOM      1  O   UNL     1       6.464   0.967  27.659  0.00  0.00    -0.229 OA
ENDROOT
BRANCH   1   2
ATOM      2  P   UNL     1       5.047   1.254  26.712  0.00  0.00    +0.222 P 
ATOM      3  O   UNL     1       3.628   1.540  25.764  0.00  0.00    -0.437 OA
ATOM      4  O   UNL     1       4.262   0.805  27.963  0.00  0.00    -0.517 OA
BRANCH   2   5
ATOM      5  O   UNL     1       5.349   2.889  26.965  0.00  0.00    -0.324 OA
BRANCH   5   6
ATOM      6  C   UNL     1       5.472   3.775  25.864  0.00  0.00    +0.202 C 
BRANCH   6  10
ATOM      7  C   UNL     1       8.163   3.599  23.401  0.00  0.00    +0.245 C 
ATOM      8  C   UNL     1       6.929   3.523  22.492  0.00  0.00    +0.185 C 
ATOM      9  C   UNL     1       5.766   3.159  23.410  0.00  0.00    +0.177 C 
ATOM     10  C   UNL     1       6.371   3.117  24.818  0.00  0.00    +0.176 C 
ATOM     11  O   UNL     1       7.670   3.754  24.750  0.00  0.00    -0.355 OA
BRANCH   7  15
ATOM     12  C   UNL     1       9.250   0.097  22.971  0.00  0.00    +0.268 A 
ATOM     13  N   UNL     1       8.563   1.247  22.989  0.00  0.00    -0.202 N 
ATOM     14  H   UNL     1       7.593   1.238  22.636  0.00  0.00    +0.453 HD
ATOM     15  C   UNL     1       9.085   2.412  23.427  0.00  0.00    +0.214 A 
ATOM     16  C   UNL     1      10.395   2.403  23.921  0.00  0.00    +0.076 A 
ATOM     17  C   UNL     1      11.132   1.218  23.913  0.00  0.00    +0.013 A 
ATOM     18  C   UNL     1      10.555   0.047  23.434  0.00  0.00    +0.084 A 
BRANCH  12  22
ATOM     19  N   UNL     1       7.209  -1.259  22.964  0.00  0.00    -0.320 N 
ATOM     20  H   UNL     1       6.809  -0.785  23.764  0.00  0.00    +0.145 HD
ATOM     21  H   UNL     1       6.730  -2.102  22.662  0.00  0.00    +0.145 HD
ATOM     22  C   UNL     1       8.474  -1.058  22.491  0.00  0.00    +0.306 C 
ATOM     23  O   UNL     1       9.022  -1.809  21.693  0.00  0.00    -0.264 OA
ENDBRANCH  12  22
ENDBRANCH   7  15
BRANCH   9  24
ATOM     24  O   UNL     1       5.274   1.864  23.049  0.00  0.00    -0.386 OA
ATOM     25  H   UNL     1       6.064   1.383  22.719  0.00  0.00    +0.210 HD
ENDBRANCH   9  24
BRANCH   8  26
ATOM     26  O   UNL     1       6.747   4.796  21.858  0.00  0.00    -0.386 OA
ATOM     27  H   UNL     1       7.530   5.001  21.314  0.00  0.00    +0.210 HD
ENDBRANCH   8  26
ENDBRANCH   6  10
ENDBRANCH   5   6
ENDBRANCH   2   5
ENDBRANCH   1   2
BRANCH   1  28
ATOM     28  P   UNL     1       7.546  -0.060  26.783  0.00  0.00    +0.480 P 
ATOM     29  O   UNL     1       6.755  -1.350  27.008  0.00  0.00    -0.227 OA
BRANCH  28  30
ATOM     30  O   UNL     1       8.593   0.016  28.036  0.00  0.00    -0.302 OA
ATOM     31  H   UNL     1       8.652  -0.860  28.462  0.00  0.00    +0.222 HD
ENDBRANCH  28  30
BRANCH  28  32
ATOM     32  O   UNL     1       8.628  -1.087  25.907  0.00  0.00    -0.284 OA
BRANCH  32  33
ATOM     33  C   UNL     1       8.744  -2.387  26.494  0.00  0.00    +0.206 C 
BRANCH  33  34
ATOM     34  C   UNL     1       8.967  -3.490  25.461  0.00  0.00    +0.178 C 
ATOM     35  C   UNL     1       9.322  -4.831  26.095  0.00  0.00    +0.178 C 
ATOM     36  C   UNL     1       7.988  -5.570  26.214  0.00  0.00    +0.195 C 
ATOM     37  C   UNL     1       6.967  -4.641  25.548  0.00  0.00    +0.253 C 
ATOM     38  O   UNL     1       7.734  -3.732  24.736  0.00  0.00    -0.346 OA
BRANCH  37  39
ATOM     39  N   UNL     1       5.986  -5.348  24.746  0.00  0.00    -0.286 N 
ATOM     40  C   UNL     1       4.894  -5.995  25.265  0.00  0.00    +0.167 A 
ATOM     41  N   UNL     1       4.534  -6.087  26.559  0.00  0.00    -0.216 NA
ATOM     42  C   UNL     1       3.404  -6.820  26.682  0.00  0.00    +0.225 A 
ATOM     43  N   UNL     1       2.691  -7.435  25.714  0.00  0.00    -0.219 NA
ATOM     44  C   UNL     1       3.119  -7.334  24.435  0.00  0.00    +0.147 A 
ATOM     45  N   UNL     1       2.402  -8.000  23.450  0.00  0.00    -0.341 N 
ATOM     46  H   UNL     1       2.551  -7.638  22.515  0.00  0.00    +0.144 HD
ATOM     47  H   UNL     1       1.455  -8.214  23.733  0.00  0.00    +0.144 HD
ATOM     48  C   UNL     1       4.261  -6.560  24.170  0.00  0.00    +0.147 A 
ATOM     49  N   UNL     1       4.921  -6.228  23.004  0.00  0.00    -0.231 NA
ATOM     50  C   UNL     1       5.942  -5.487  23.388  0.00  0.00    +0.203 A 
ENDBRANCH  37  39
BRANCH  36  51
ATOM     51  O   UNL     1       7.645  -5.803  27.583  0.00  0.00    -0.385 OA
ATOM     52  H   UNL     1       6.929  -5.166  27.794  0.00  0.00    +0.210 HD
ENDBRANCH  36  51
BRANCH  35  53
ATOM     53  O   UNL     1      10.187  -5.570  25.218  0.00  0.00    -0.386 OA
ATOM     54  H   UNL     1      10.027  -6.522  25.349  0.00  0.00    +0.210 HD
ENDBRANCH  35  53
ENDBRANCH  33  34
ENDBRANCH  32  33
ENDBRANCH  28  32
ENDBRANCH   1  28
TORSDOF 16
ENDMDL
MODEL 8
REMARK VINA RESULT:      -7.7      2.137      3.239
REMARK  Name = 
REMARK  16 active torsions:
REMARK  status: ('A' for Active; 'I' for Inactive)
REMARK    1  A    between atoms: C_2  and  C_4
REMARK    2  A    between atoms: C_8  and  C_11
REMARK    3  A    between atoms: C_14  and  C_16
REMARK    4  A    between atoms: C_16  and  O_17
REMARK    5  A    between atoms: O_17  and  P_18
REMARK    6  A    between atoms: P_18  and  O_21
REMARK    7  A    between atoms: O_21  and  P_22
REMARK    8  A    between atoms: P_22  and  O_23
REMARK    9  A    between atoms: P_22  and  O_25
REMARK   10  A    between atoms: O_25  and  C_26
REMARK   11  A    between atoms: C_26  and  C_27
REMARK   12  A    between atoms: C_30  and  N_38
REMARK   13  A    between atoms: C_32  and  O_34
REMARK   14  A    between atoms: C_35  and  O_37
REMARK   15  A    between atoms: C_48  and  O_50
REMARK   16  A    between atoms: C_51  and  O_53
REMARK                            x       y       z     vdW  Elec       q    Type
REMARK                         _______ _______ _______ _____ _____    ______ ____
ROOT
ATOM      1  O   UNL     1       7.135  -5.399  22.704  0.00  0.00    -0.229 OA
ENDROOT
BRANCH   1   2
ATOM      2  P   UNL     1       5.413  -5.252  22.672  0.00  0.00    +0.222 P 
ATOM      3  O   UNL     1       3.689  -5.105  22.640  0.00  0.00    -0.437 OA
ATOM      4  O   UNL     1       5.498  -5.924  21.285  0.00  0.00    -0.517 OA
BRANCH   2   5
ATOM      5  O   UNL     1       5.399  -6.533  23.763  0.00  0.00    -0.324 OA
BRANCH   5   6
ATOM      6  C   UNL     1       4.198  -6.901  24.421  0.00  0.00    +0.202 C 
BRANCH   6  10
ATOM      7  C   UNL     1       5.444  -5.386  27.503  0.00  0.00    +0.245 C 
ATOM      8  C   UNL     1       4.622  -6.555  28.063  0.00  0.00    +0.185 C 
ATOM      9  C   UNL     1       3.716  -7.002  26.921  0.00  0.00    +0.177 C 
ATOM     10  C   UNL     1       4.111  -6.119  25.732  0.00  0.00    +0.176 C 
ATOM     11  O   UNL     1       5.370  -5.485  26.064  0.00  0.00    -0.355 OA
BRANCH   7  15
ATOM     12  C   UNL     1       5.146  -1.716  27.221  0.00  0.00    +0.268 A 
ATOM     13  N   UNL     1       5.437  -3.011  27.033  0.00  0.00    -0.202 N 
ATOM     14  H   UNL     1       6.010  -3.264  26.213  0.00  0.00    +0.453 HD
ATOM     15  C   UNL     1       5.000  -3.992  27.850  0.00  0.00    +0.214 A 
ATOM     16  C   UNL     1       4.240  -3.629  28.968  0.00  0.00    +0.076 A 
ATOM     17  C   UNL     1       3.923  -2.288  29.187  0.00  0.00    +0.013 A 
ATOM     18  C   UNL     1       4.382  -1.315  28.304  0.00  0.00    +0.084 A 
BRANCH  12  22
ATOM     19  N   UNL     1       7.118  -0.692  26.188  0.00  0.00    -0.320 N 
ATOM     20  H   UNL     1       7.752  -1.030  26.901  0.00  0.00    +0.145 HD
ATOM     21  H   UNL     1       7.501  -0.010  25.541  0.00  0.00    +0.145 HD
ATOM     22  C   UNL     1       5.758  -0.814  26.233  0.00  0.00    +0.306 C 
ATOM     23  O   UNL     1       5.002  -0.188  25.501  0.00  0.00    -0.264 OA
ENDBRANCH  12  22
ENDBRANCH   7  15
BRANCH   9  24
ATOM     24  O   UNL     1       2.353  -6.756  27.283  0.00  0.00    -0.386 OA
ATOM     25  H   UNL     1       2.119  -5.927  26.812  0.00  0.00    +0.210 HD
ENDBRANCH   9  24
BRANCH   8  26
ATOM     26  O   UNL     1       5.523  -7.590  28.482  0.00  0.00    -0.386 OA
ATOM     27  H   UNL     1       5.842  -8.076  27.699  0.00  0.00    +0.210 HD
ENDBRANCH   8  26
ENDBRANCH   6  10
ENDBRANCH   5   6
ENDBRANCH   2   5
ENDBRANCH   1   2
BRANCH   1  28
ATOM     28  P   UNL     1       7.819  -4.005  23.465  0.00  0.00    +0.480 P 
ATOM     29  O   UNL     1       8.544  -4.771  24.573  0.00  0.00    -0.227 OA
BRANCH  28  30
ATOM     30  O   UNL     1       6.349  -3.656  24.089  0.00  0.00    -0.302 OA
ATOM     31  H   UNL     1       5.704  -4.325  23.793  0.00  0.00    +0.222 HD
ENDBRANCH  28  30
BRANCH  28  32
ATOM     32  O   UNL     1       8.503  -2.611  24.228  0.00  0.00    -0.284 OA
BRANCH  32  33
ATOM     33  C   UNL     1       9.901  -2.469  23.957  0.00  0.00    +0.206 C 
BRANCH  33  34
ATOM     34  C   UNL     1      10.197  -1.436  22.871  0.00  0.00    +0.178 C 
ATOM     35  C   UNL     1       8.976  -1.108  22.018  0.00  0.00    +0.178 C 
ATOM     36  C   UNL     1       8.367   0.134  22.672  0.00  0.00    +0.195 C 
ATOM     37  C   UNL     1       9.339   0.496  23.801  0.00  0.00    +0.253 C 
ATOM     38  O   UNL     1      10.573  -0.178  23.488  0.00  0.00    -0.346 OA
BRANCH  37  39
ATOM     39  N   UNL     1       9.551   1.924  23.939  0.00  0.00    -0.286 N 
ATOM     40  C   UNL     1       8.781   2.742  24.725  0.00  0.00    +0.167 A 
ATOM     41  N   UNL     1       7.732   2.391  25.491  0.00  0.00    -0.216 NA
ATOM     42  C   UNL     1       7.215   3.477  26.108  0.00  0.00    +0.225 A 
ATOM     43  N   UNL     1       7.604   4.766  26.008  0.00  0.00    -0.219 NA
ATOM     44  C   UNL     1       8.646   5.064  25.197  0.00  0.00    +0.147 A 
ATOM     45  N   UNL     1       9.016   6.396  25.070  0.00  0.00    -0.341 N 
ATOM     46  H   UNL     1       9.964   6.530  24.737  0.00  0.00    +0.144 HD
ATOM     47  H   UNL     1       8.696   6.967  25.840  0.00  0.00    +0.144 HD
ATOM     48  C   UNL     1       9.297   4.012  24.532  0.00  0.00    +0.147 A 
ATOM     49  N   UNL     1      10.388   3.969  23.686  0.00  0.00    -0.231 NA
ATOM     50  C   UNL     1      10.519   2.697  23.363  0.00  0.00    +0.203 A 
ENDBRANCH  37  39
BRANCH  36  51
ATOM     51  O   UNL     1       7.063  -0.140  23.192  0.00  0.00    -0.385 OA
ATOM     52  H   UNL     1       6.468  -0.193  22.413  0.00  0.00    +0.210 HD
ENDBRANCH  36  51
BRANCH  35  53
ATOM     53  O   UNL     1       9.390  -0.777  20.683  0.00  0.00    -0.386 OA
ATOM     54  H   UNL     1       8.862  -1.300  20.053  0.00  0.00    +0.210 HD
ENDBRANCH  35  53
ENDBRANCH  33  34
ENDBRANCH  32  33
ENDBRANCH  28  32
ENDBRANCH   1  28
TORSDOF 16
ENDMDL
MODEL 9
REMARK VINA RESULT:      -7.7      2.513      4.249
REMARK  Name = 
REMARK  16 active torsions:
REMARK  status: ('A' for Active; 'I' for Inactive)
REMARK    1  A    between atoms: C_2  and  C_4
REMARK    2  A    between atoms: C_8  and  C_11
REMARK    3  A    between atoms: C_14  and  C_16
REMARK    4  A    between atoms: C_16  and  O_17
REMARK    5  A    between atoms: O_17  and  P_18
REMARK    6  A    between atoms: P_18  and  O_21
REMARK    7  A    between atoms: O_21  and  P_22
REMARK    8  A    between atoms: P_22  and  O_23
REMARK    9  A    between atoms: P_22  and  O_25
REMARK   10  A    between atoms: O_25  and  C_26
REMARK   11  A    between atoms: C_26  and  C_27
REMARK   12  A    between atoms: C_30  and  N_38
REMARK   13  A    between atoms: C_32  and  O_34
REMARK   14  A    between atoms: C_35  and  O_37
REMARK   15  A    between atoms: C_48  and  O_50
REMARK   16  A    between atoms: C_51  and  O_53
REMARK                            x       y       z     vdW  Elec       q    Type
REMARK                         _______ _______ _______ _____ _____    ______ ____
ROOT
ATOM      1  O   UNL     1       3.546  -1.207  26.609  0.00  0.00    -0.229 OA
ENDROOT
BRANCH   1   2
ATOM      2  P   UNL     1       3.325  -2.027  28.116  0.00  0.00    +0.222 P 
ATOM      3  O   UNL     1       3.105  -2.846  29.624  0.00  0.00    -0.437 OA
ATOM      4  O   UNL     1       2.148  -1.054  28.338  0.00  0.00    -0.517 OA
BRANCH   2   5
ATOM      5  O   UNL     1       2.672  -3.282  27.206  0.00  0.00    -0.324 OA
BRANCH   5   6
ATOM      6  C   UNL     1       2.883  -4.630  27.589  0.00  0.00    +0.202 C 
BRANCH   6  10
ATOM      7  C   UNL     1       4.018  -6.267  24.527  0.00  0.00    +0.245 C 
ATOM      8  C   UNL     1       4.187  -7.403  25.545  0.00  0.00    +0.185 C 
ATOM      9  C   UNL     1       4.156  -6.732  26.915  0.00  0.00    +0.177 C 
ATOM     10  C   UNL     1       3.895  -5.250  26.624  0.00  0.00    +0.176 C 
ATOM     11  O   UNL     1       3.455  -5.149  25.249  0.00  0.00    -0.355 OA
BRANCH   7  15
ATOM     12  C   UNL     1       7.555  -5.280  24.147  0.00  0.00    +0.268 A 
ATOM     13  N   UNL     1       6.378  -5.734  24.599  0.00  0.00    -0.202 N 
ATOM     14  H   UNL     1       6.339  -6.102  25.562  0.00  0.00    +0.453 HD
ATOM     15  C   UNL     1       5.255  -5.748  23.850  0.00  0.00    +0.214 A 
ATOM     16  C   UNL     1       5.321  -5.225  22.553  0.00  0.00    +0.076 A 
ATOM     17  C   UNL     1       6.535  -4.747  22.058  0.00  0.00    +0.013 A 
ATOM     18  C   UNL     1       7.669  -4.771  22.863  0.00  0.00    +0.084 A 
BRANCH  12  22
ATOM     19  N   UNL     1       8.356  -5.704  26.423  0.00  0.00    -0.320 N 
ATOM     20  H   UNL     1       7.424  -5.792  26.808  0.00  0.00    +0.145 HD
ATOM     21  H   UNL     1       9.112  -5.655  27.099  0.00  0.00    +0.145 HD
ATOM     22  C   UNL     1       8.637  -5.320  25.143  0.00  0.00    +0.306 C 
ATOM     23  O   UNL     1       9.753  -4.979  24.773  0.00  0.00    -0.264 OA
ENDBRANCH  12  22
ENDBRANCH   7  15
BRANCH   9  24
ATOM     24  O   UNL     1       5.433  -6.891  27.542  0.00  0.00    -0.386 OA
ATOM     25  H   UNL     1       5.393  -6.313  28.334  0.00  0.00    +0.210 HD
ENDBRANCH   9  24
BRANCH   8  26
ATOM     26  O   UNL     1       3.114  -8.339  25.372  0.00  0.00    -0.386 OA
ATOM     27  H   UNL     1       2.441  -8.190  26.063  0.00  0.00    +0.210 HD
ENDBRANCH   8  26
ENDBRANCH   6  10
ENDBRANCH   5   6
ENDBRANCH   2   5
ENDBRANCH   1   2
BRANCH   1  28
ATOM     28  P   UNL     1       5.074  -1.649  25.931  0.00  0.00    +0.480 P 
ATOM     29  O   UNL     1       5.328  -0.311  25.233  0.00  0.00    -0.227 OA
BRANCH  28  30
ATOM     30  O   UNL     1       4.291  -2.558  24.821  0.00  0.00    -0.302 OA
ATOM     31  H   UNL     1       3.698  -1.989  24.296  0.00  0.00    +0.222 HD
ENDBRANCH  28  30
BRANCH  28  32
ATOM     32  O   UNL     1       6.603  -2.090  25.251  0.00  0.00    -0.284 OA
BRANCH  32  33
ATOM     33  C   UNL     1       7.696  -1.800  26.129  0.00  0.00    +0.206 C 
BRANCH  33  34
ATOM     34  C   UNL     1       9.007  -1.548  25.386  0.00  0.00    +0.178 C 
ATOM     35  C   UNL     1       8.894  -1.799  23.886  0.00  0.00    +0.178 C 
ATOM     36  C   UNL     1       8.591  -0.425  23.284  0.00  0.00    +0.195 C 
ATOM     37  C   UNL     1       8.648   0.541  24.472  0.00  0.00    +0.253 C 
ATOM     38  O   UNL     1       9.372  -0.150  25.507  0.00  0.00    -0.346 OA
BRANCH  37  39
ATOM     39  N   UNL     1       9.284   1.806  24.152  0.00  0.00    -0.286 N 
ATOM     40  C   UNL     1       8.657   3.022  24.234  0.00  0.00    +0.167 A 
ATOM     41  N   UNL     1       7.390   3.267  24.618  0.00  0.00    -0.216 NA
ATOM     42  C   UNL     1       7.127   4.592  24.555  0.00  0.00    +0.225 A 
ATOM     43  N   UNL     1       7.938   5.592  24.149  0.00  0.00    -0.219 NA
ATOM     44  C   UNL     1       9.191   5.283  23.744  0.00  0.00    +0.147 A 
ATOM     45  N   UNL     1      10.007   6.311  23.292  0.00  0.00    -0.341 N 
ATOM     46  H   UNL     1      10.996   6.094  23.319  0.00  0.00    +0.144 HD
ATOM     47  H   UNL     1       9.709   7.220  23.621  0.00  0.00    +0.144 HD
ATOM     48  C   UNL     1       9.601   3.940  23.804  0.00  0.00    +0.147 A 
ATOM     49  N   UNL     1      10.793   3.308  23.511  0.00  0.00    -0.231 NA
ATOM     50  C   UNL     1      10.568   2.030  23.747  0.00  0.00    +0.203 A 
ENDBRANCH  37  39
BRANCH  36  51
ATOM     51  O   UNL     1       7.298  -0.402  22.671  0.00  0.00    -0.385 OA
ATOM     52  H   UNL     1       7.388  -0.906  21.834  0.00  0.00    +0.210 HD
ENDBRANCH  36  51
BRANCH  35  53
ATOM     53  O   UNL     1      10.153  -2.264  23.374  0.00  0.00    -0.386 OA
ATOM     54  H   UNL     1       9.996  -3.056  22.830  0.00  0.00    +0.210 HD
ENDBRANCH  35  53
ENDBRANCH  33  34
ENDBRANCH  32  33
ENDBRANCH  28  32
ENDBRANCH   1  28
TORSDOF 16
ENDMDL
