MODEL 1
REMARK VINA RESULT:      -7.0      0.000      0.000
REMARK  Name = 
REMARK  6 active torsions:
REMARK  status: ('A' for Active; 'I' for Inactive)
REMARK    1  A    between atoms: C_2  and  C_5
REMARK    2  A    between atoms: C_8  and  S_10
REMARK    3  A    between atoms: S_10  and  C_11
REMARK    4  A    between atoms: C_11  and  C_13
REMARK    5  A    between atoms: C_16  and  C_18
REMARK    6  A    between atoms: C_19  and  C_20
REMARK                            x       y       z     vdW  Elec       q    Type
REMARK                         _______ _______ _______ _____ _____    ______ ____
ROOT
ATOM      1  C   UNL     1       4.046  -5.670  23.387  0.00  0.00    +0.262 C 
ATOM      2  O   UNL     1       2.938  -5.405  22.934  0.00  0.00    -0.276 OA
ENDROOT
BRANCH   1   3
ATOM      3  C   UNL     1       5.296  -5.291  22.755  0.00  0.00    +0.183 A 
ATOM      4  O   UNL     1       5.903  -4.077  22.999  0.00  0.00    -0.443 OA
ATOM      5  C   UNL     1       7.051  -4.057  22.269  0.00  0.00    +0.179 A 
ATOM      6  C   UNL     1       7.205  -5.222  21.559  0.00  0.00    +0.059 A 
ATOM      7  C   UNL     1       6.081  -6.019  21.874  0.00  0.00    +0.055 A 
BRANCH   5   8
ATOM      8  C   UNL     1       7.889  -2.916  22.334  0.00  0.00    -0.023 C 
ATOM      9  C   UNL     1       8.515  -1.898  22.471  0.00  0.00    -0.058 C 
BRANCH   9  10
ATOM     10  C   UNL     1       9.190  -0.653  22.701  0.00  0.00    +0.025 A 
ATOM     11  C   UNL     1       9.234   0.326  21.706  0.00  0.00    +0.017 A 
ATOM     12  C   UNL     1       9.885   1.540  21.945  0.00  0.00    +0.001 A 
ATOM     13  C   UNL     1      10.491   1.779  23.178  0.00  0.00    +0.000 A 
ATOM     14  C   UNL     1      10.447   0.806  24.175  0.00  0.00    +0.001 A 
ATOM     15  C   UNL     1       9.797  -0.409  23.937  0.00  0.00    +0.017 A 
ENDBRANCH   9  10
ENDBRANCH   5   8
ENDBRANCH   1   3
BRANCH   1  16
ATOM     16  S   UNL     1       4.190  -6.646  24.848  0.00  0.00    -0.004 S 
BRANCH  16  20
ATOM     17  C   UNL     1       7.164  -4.621  26.149  0.00  0.00    +0.236 A 
ATOM     18  N   UNL     1       6.611  -5.626  25.396  0.00  0.00    -0.313 N 
ATOM     19  H   UNL     1       7.074  -6.210  24.714  0.00  0.00    +0.169 HD
ATOM     20  C   UNL     1       5.284  -5.629  25.696  0.00  0.00    +0.197 A 
ATOM     21  N   UNL     1       5.036  -4.746  26.629  0.00  0.00    -0.122 NA
ATOM     22  N   UNL     1       6.222  -4.109  26.921  0.00  0.00    -0.124 NA
BRANCH  17  24
ATOM     23  F   UNL     1       9.364  -4.650  27.039  0.00  0.00    -0.163 F 
ATOM     24  C   UNL     1       8.583  -4.224  26.017  0.00  0.00    +0.452 C 
ATOM     25  F   UNL     1       9.130  -4.704  24.868  0.00  0.00    -0.163 F 
ATOM     26  F   UNL     1       8.708  -2.871  25.957  0.00  0.00    -0.163 F 
ENDBRANCH  17  24
ENDBRANCH  16  20
ENDBRANCH   1  16
TORSDOF 6
ENDMDL
MODEL 2
REMARK VINA RESULT:      -7.0      3.092      4.505
REMARK  Name = 
REMARK  6 active torsions:
REMARK  status: ('A' for Active; 'I' for Inactive)
REMARK    1  A    between atoms: C_2  and  C_5
REMARK    2  A    between atoms: C_8  and  S_10
REMARK    3  A    between atoms: S_10  and  C_11
REMARK    4  A    between atoms: C_11  and  C_13
REMARK    5  A    between atoms: C_16  and  C_18
REMARK    6  A    between atoms: C_19  and  C_20
REMARK                            x       y       z     vdW  Elec       q    Type
REMARK                         _______ _______ _______ _____ _____    ______ ____
ROOT
ATOM      1  C   UNL     1       8.893  -3.911  24.585  0.00  0.00    +0.262 C 
ATOM      2  O   UNL     1       9.009  -5.038  24.118  0.00  0.00    -0.276 OA
ENDROOT
BRANCH   1   3
ATOM      3  C   UNL     1       8.953  -2.694  23.798  0.00  0.00    +0.183 A 
ATOM      4  O   UNL     1       9.376  -1.495  24.332  0.00  0.00    -0.443 OA
ATOM      5  C   UNL     1       9.329  -0.578  23.328  0.00  0.00    +0.179 A 
ATOM      6  C   UNL     1       8.887  -1.146  22.161  0.00  0.00    +0.059 A 
ATOM      7  C   UNL     1       8.650  -2.508  22.457  0.00  0.00    +0.055 A 
BRANCH   5   8
ATOM      8  C   UNL     1       9.722   0.758  23.597  0.00  0.00    -0.023 C 
ATOM      9  C   UNL     1      10.008   1.920  23.708  0.00  0.00    -0.058 C 
BRANCH   9  10
ATOM     10  C   UNL     1      10.307   3.323  23.750  0.00  0.00    +0.025 A 
ATOM     11  C   UNL     1      11.564   3.794  23.365  0.00  0.00    +0.017 A 
ATOM     12  C   UNL     1      11.841   5.164  23.400  0.00  0.00    +0.001 A 
ATOM     13  C   UNL     1      10.862   6.066  23.816  0.00  0.00    +0.000 A 
ATOM     14  C   UNL     1       9.605   5.601  24.198  0.00  0.00    +0.001 A 
ATOM     15  C   UNL     1       9.327   4.231  24.165  0.00  0.00    +0.017 A 
ENDBRANCH   9  10
ENDBRANCH   5   8
ENDBRANCH   1   3
BRANCH   1  16
ATOM     16  S   UNL     1       8.727  -3.692  26.326  0.00  0.00    -0.004 S 
BRANCH  16  20
ATOM     17  C   UNL     1       5.702  -6.024  26.116  0.00  0.00    +0.236 A 
ATOM     18  N   UNL     1       6.446  -4.953  25.687  0.00  0.00    -0.313 N 
ATOM     19  H   UNL     1       6.309  -4.403  24.852  0.00  0.00    +0.169 HD
ATOM     20  C   UNL     1       7.465  -4.828  26.581  0.00  0.00    +0.197 A 
ATOM     21  N   UNL     1       7.324  -5.703  27.544  0.00  0.00    -0.122 NA
ATOM     22  N   UNL     1       6.209  -6.459  27.256  0.00  0.00    -0.124 NA
BRANCH  17  24
ATOM     23  F   UNL     1       3.642  -5.613  25.011  0.00  0.00    -0.163 F 
ATOM     24  C   UNL     1       4.561  -6.554  25.337  0.00  0.00    +0.452 C 
ATOM     25  F   UNL     1       4.973  -7.130  24.177  0.00  0.00    -0.163 F 
ATOM     26  F   UNL     1       3.907  -7.525  26.029  0.00  0.00    -0.163 F 
ENDBRANCH  17  24
ENDBRANCH  16  20
ENDBRANCH   1  16
TORSDOF 6
ENDMDL
MODEL 3
REMARK VINA RESULT:      -7.0      2.520      3.759
REMARK  Name = 
REMARK  6 active torsions:
REMARK  status: ('A' for Active; 'I' for Inactive)
REMARK    1  A    between atoms: C_2  and  C_5
REMARK    2  A    between atoms: C_8  and  S_10
REMARK    3  A    between atoms: S_10  and  C_11
REMARK    4  A    between atoms: C_11  and  C_13
REMARK    5  A    between atoms: C_16  and  C_18
REMARK    6  A    between atoms: C_19  and  C_20
REMARK                            x       y       z     vdW  Elec       q    Type
REMARK                         _______ _______ _______ _____ _____    ______ ____
ROOT
ATOM      1  C   UNL     1       6.883  -5.428  27.271  0.00  0.00    +0.262 C 
ATOM      2  O   UNL     1       7.087  -6.068  28.297  0.00  0.00    -0.276 OA
ENDROOT
BRANCH   1   3
ATOM      3  C   UNL     1       7.925  -4.997  26.359  0.00  0.00    +0.183 A 
ATOM      4  O   UNL     1       7.974  -3.715  25.852  0.00  0.00    -0.443 OA
ATOM      5  C   UNL     1       9.076  -3.648  25.056  0.00  0.00    +0.179 A 
ATOM      6  C   UNL     1       9.741  -4.848  25.032  0.00  0.00    +0.059 A 
ATOM      7  C   UNL     1       9.007  -5.716  25.872  0.00  0.00    +0.055 A 
BRANCH   5   8
ATOM      8  C   UNL     1       9.379  -2.427  24.402  0.00  0.00    -0.023 C 
ATOM      9  C   UNL     1       9.613  -1.334  23.960  0.00  0.00    -0.058 C 
BRANCH   9  10
ATOM     10  C   UNL     1       9.874   0.008  23.525  0.00  0.00    +0.025 A 
ATOM     11  C   UNL     1      10.340   0.969  24.425  0.00  0.00    +0.017 A 
ATOM     12  C   UNL     1      10.602   2.271  23.988  0.00  0.00    +0.001 A 
ATOM     13  C   UNL     1      10.402   2.614  22.651  0.00  0.00    +0.000 A 
ATOM     14  C   UNL     1       9.940   1.657  21.749  0.00  0.00    +0.001 A 
ATOM     15  C   UNL     1       9.677   0.355  22.185  0.00  0.00    +0.017 A 
ENDBRANCH   9  10
ENDBRANCH   5   8
ENDBRANCH   1   3
BRANCH   1  16
ATOM     16  S   UNL     1       5.250  -4.894  26.877  0.00  0.00    -0.004 S 
BRANCH  16  20
ATOM     17  C   UNL     1       5.735  -4.929  23.082  0.00  0.00    +0.236 A 
ATOM     18  N   UNL     1       5.678  -4.292  24.297  0.00  0.00    -0.313 N 
ATOM     19  H   UNL     1       5.924  -3.334  24.502  0.00  0.00    +0.169 HD
ATOM     20  C   UNL     1       5.295  -5.241  25.195  0.00  0.00    +0.197 A 
ATOM     21  N   UNL     1       5.051  -6.367  24.577  0.00  0.00    -0.122 NA
ATOM     22  N   UNL     1       5.324  -6.174  23.241  0.00  0.00    -0.124 NA
BRANCH  17  24
ATOM     23  F   UNL     1       7.527  -3.878  21.934  0.00  0.00    -0.163 F 
ATOM     24  C   UNL     1       6.227  -4.254  21.860  0.00  0.00    +0.452 C 
ATOM     25  F   UNL     1       6.102  -5.051  20.766  0.00  0.00    -0.163 F 
ATOM     26  F   UNL     1       5.503  -3.134  21.596  0.00  0.00    -0.163 F 
ENDBRANCH  17  24
ENDBRANCH  16  20
ENDBRANCH   1  16
TORSDOF 6
ENDMDL
MODEL 4
REMARK VINA RESULT:      -7.0      3.388      5.230
REMARK  Name = 
REMARK  6 active torsions:
REMARK  status: ('A' for Active; 'I' for Inactive)
REMARK    1  A    between atoms: C_2  and  C_5
REMARK    2  A    between atoms: C_8  and  S_10
REMARK    3  A    between atoms: S_10  and  C_11
REMARK    4  A    between atoms: C_11  and  C_13
REMARK    5  A    between atoms: C_16  and  C_18
REMARK    6  A    between atoms: C_19  and  C_20
REMARK                            x       y       z     vdW  Elec       q    Type
REMARK                         _______ _______ _______ _____ _____    ______ ____
ROOT
ATOM      1  C   UNL     1       9.483  -2.773  24.216  0.00  0.00    +0.262 C 
ATOM      2  O   UNL     1      10.198  -3.765  24.129  0.00  0.00    -0.276 OA
ENDROOT
BRANCH   1   3
ATOM      3  C   UNL     1       9.595  -1.611  23.354  0.00  0.00    +0.183 A 
ATOM      4  O   UNL     1       9.909  -0.361  23.845  0.00  0.00    -0.443 OA
ATOM      5  C   UNL     1       9.950   0.483  22.778  0.00  0.00    +0.179 A 
ATOM      6  C   UNL     1       9.672  -0.184  21.611  0.00  0.00    +0.059 A 
ATOM      7  C   UNL     1       9.449  -1.531  21.977  0.00  0.00    +0.055 A 
BRANCH   5   8
ATOM      8  C   UNL     1      10.260   1.849  22.991  0.00  0.00    -0.023 C 
ATOM      9  C   UNL     1      10.497   2.988  23.296  0.00  0.00    -0.058 C 
BRANCH   9  10
ATOM     10  C   UNL     1      10.760   4.321  23.757  0.00  0.00    +0.025 A 
ATOM     11  C   UNL     1       9.743   5.089  24.329  0.00  0.00    +0.017 A 
ATOM     12  C   UNL     1      10.014   6.383  24.784  0.00  0.00    +0.001 A 
ATOM     13  C   UNL     1      11.300   6.911  24.672  0.00  0.00    +0.000 A 
ATOM     14  C   UNL     1      12.318   6.146  24.105  0.00  0.00    +0.001 A 
ATOM     15  C   UNL     1      12.049   4.853  23.648  0.00  0.00    +0.017 A 
ENDBRANCH   9  10
ENDBRANCH   5   8
ENDBRANCH   1   3
BRANCH   1  16
ATOM     16  S   UNL     1       8.288  -2.658  25.506  0.00  0.00    -0.004 S 
BRANCH  16  20
ATOM     17  C   UNL     1       6.245  -5.226  23.539  0.00  0.00    +0.236 A 
ATOM     18  N   UNL     1       6.993  -4.080  23.633  0.00  0.00    -0.313 N 
ATOM     19  H   UNL     1       7.341  -3.508  22.877  0.00  0.00    +0.169 HD
ATOM     20  C   UNL     1       7.242  -3.907  24.961  0.00  0.00    +0.197 A 
ATOM     21  N   UNL     1       6.627  -4.831  25.653  0.00  0.00    -0.122 NA
ATOM     22  N   UNL     1       5.992  -5.665  24.760  0.00  0.00    -0.124 NA
BRANCH  17  24
ATOM     23  F   UNL     1       6.518  -6.971  21.953  0.00  0.00    -0.163 F 
ATOM     24  C   UNL     1       5.867  -5.817  22.236  0.00  0.00    +0.452 C 
ATOM     25  F   UNL     1       4.535  -6.083  22.176  0.00  0.00    -0.163 F 
ATOM     26  F   UNL     1       6.125  -4.954  21.217  0.00  0.00    -0.163 F 
ENDBRANCH  17  24
ENDBRANCH  16  20
ENDBRANCH   1  16
TORSDOF 6
ENDMDL
MODEL 5
REMARK VINA RESULT:      -6.7      3.239      4.901
REMARK  Name = 
REMARK  6 active torsions:
REMARK  status: ('A' for Active; 'I' for Inactive)
REMARK    1  A    between atoms: C_2  and  C_5
REMARK    2  A    between atoms: C_8  and  S_10
REMARK    3  A    between atoms: S_10  and  C_11
REMARK    4  A    between atoms: C_11  and  C_13
REMARK    5  A    between atoms: C_16  and  C_18
REMARK    6  A    between atoms: C_19  and  C_20
REMARK                            x       y       z     vdW  Elec       q    Type
REMARK                         _______ _______ _______ _____ _____    ______ ____
ROOT
ATOM      1  C   UNL     1       8.206  -3.147  25.569  0.00  0.00    +0.262 C 
ATOM      2  O   UNL     1       8.671  -4.073  26.224  0.00  0.00    -0.276 OA
ENDROOT
BRANCH   1   3
ATOM      3  C   UNL     1       8.998  -2.260  24.738  0.00  0.00    +0.183 A 
ATOM      4  O   UNL     1       8.922  -0.887  24.851  0.00  0.00    -0.443 OA
ATOM      5  C   UNL     1       9.800  -0.370  23.949  0.00  0.00    +0.179 A 
ATOM      6  C   UNL     1      10.440  -1.366  23.255  0.00  0.00    +0.059 A 
ATOM      7  C   UNL     1       9.930  -2.582  23.764  0.00  0.00    +0.055 A 
BRANCH   5   8
ATOM      8  C   UNL     1       9.937   1.038  23.851  0.00  0.00    -0.023 C 
ATOM      9  C   UNL     1       9.926   2.239  23.789  0.00  0.00    -0.058 C 
BRANCH   9  10
ATOM     10  C   UNL     1       9.815   3.668  23.736  0.00  0.00    +0.025 A 
ATOM     11  C   UNL     1      10.958   4.471  23.725  0.00  0.00    +0.017 A 
ATOM     12  C   UNL     1      10.837   5.862  23.662  0.00  0.00    +0.001 A 
ATOM     13  C   UNL     1       9.575   6.454  23.609  0.00  0.00    +0.000 A 
ATOM     14  C   UNL     1       8.432   5.657  23.617  0.00  0.00    +0.001 A 
ATOM     15  C   UNL     1       8.551   4.265  23.681  0.00  0.00    +0.017 A 
ENDBRANCH   9  10
ENDBRANCH   5   8
ENDBRANCH   1   3
BRANCH   1  16
ATOM     16  S   UNL     1       6.488  -2.768  25.675  0.00  0.00    -0.004 S 
BRANCH  16  20
ATOM     17  C   UNL     1       6.071  -4.810  22.466  0.00  0.00    +0.236 A 
ATOM     18  N   UNL     1       6.801  -4.363  23.539  0.00  0.00    -0.313 N 
ATOM     19  H   UNL     1       7.715  -4.675  23.835  0.00  0.00    +0.169 HD
ATOM     20  C   UNL     1       6.008  -3.460  24.178  0.00  0.00    +0.197 A 
ATOM     21  N   UNL     1       4.896  -3.293  23.509  0.00  0.00    -0.122 NA
ATOM     22  N   UNL     1       4.933  -4.141  22.425  0.00  0.00    -0.124 NA
BRANCH  17  24
ATOM     23  F   UNL     1       6.418  -7.132  22.120  0.00  0.00    -0.163 F 
ATOM     24  C   UNL     1       6.551  -5.895  21.583  0.00  0.00    +0.452 C 
ATOM     25  F   UNL     1       5.892  -5.900  20.394  0.00  0.00    -0.163 F 
ATOM     26  F   UNL     1       7.868  -5.733  21.282  0.00  0.00    -0.163 F 
ENDBRANCH  17  24
ENDBRANCH  16  20
ENDBRANCH   1  16
TORSDOF 6
ENDMDL
MODEL 6
REMARK VINA RESULT:      -6.5      3.343      4.760
REMARK  Name = 
REMARK  6 active torsions:
REMARK  status: ('A' for Active; 'I' for Inactive)
REMARK    1  A    between atoms: C_2  and  C_5
REMARK    2  A    between atoms: C_8  and  S_10
REMARK    3  A    between atoms: S_10  and  C_11
REMARK    4  A    between atoms: C_11  and  C_13
REMARK    5  A    between atoms: C_16  and  C_18
REMARK    6  A    between atoms: C_19  and  C_20
REMARK                            x       y       z     vdW  Elec       q    Type
REMARK                         _______ _______ _______ _____ _____    ______ ____
ROOT
ATOM      1  C   UNL     1       8.757  -3.638  25.044  0.00  0.00    +0.262 C 
ATOM      2  O   UNL     1       8.889  -4.163  23.944  0.00  0.00    -0.276 OA
ENDROOT
BRANCH   1   3
ATOM      3  C   UNL     1       8.382  -2.251  25.244  0.00  0.00    +0.183 A 
ATOM      4  O   UNL     1       9.059  -1.213  24.639  0.00  0.00    -0.443 OA
ATOM      5  C   UNL     1       8.441  -0.063  25.023  0.00  0.00    +0.179 A 
ATOM      6  C   UNL     1       7.385  -0.325  25.859  0.00  0.00    +0.059 A 
ATOM      7  C   UNL     1       7.341  -1.731  25.999  0.00  0.00    +0.055 A 
BRANCH   5   8
ATOM      8  C   UNL     1       8.930   1.177  24.538  0.00  0.00    -0.023 C 
ATOM      9  C   UNL     1       9.407   2.238  24.239  0.00  0.00    -0.058 C 
BRANCH   9  10
ATOM     10  C   UNL     1      10.027   3.504  23.970  0.00  0.00    +0.025 A 
ATOM     11  C   UNL     1       9.325   4.696  24.170  0.00  0.00    +0.017 A 
ATOM     12  C   UNL     1       9.943   5.924  23.915  0.00  0.00    +0.001 A 
ATOM     13  C   UNL     1      11.262   5.965  23.463  0.00  0.00    +0.000 A 
ATOM     14  C   UNL     1      11.966   4.778  23.265  0.00  0.00    +0.001 A 
ATOM     15  C   UNL     1      11.350   3.549  23.518  0.00  0.00    +0.017 A 
ENDBRANCH   9  10
ENDBRANCH   5   8
ENDBRANCH   1   3
BRANCH   1  16
ATOM     16  S   UNL     1       9.119  -4.554  26.506  0.00  0.00    -0.004 S 
BRANCH  16  20
ATOM     17  C   UNL     1       5.654  -6.127  26.110  0.00  0.00    +0.236 A 
ATOM     18  N   UNL     1       6.707  -5.370  25.659  0.00  0.00    -0.313 N 
ATOM     19  H   UNL     1       6.841  -4.993  24.732  0.00  0.00    +0.169 HD
ATOM     20  C   UNL     1       7.581  -5.293  26.700  0.00  0.00    +0.197 A 
ATOM     21  N   UNL     1       7.077  -5.888  27.750  0.00  0.00    -0.122 NA
ATOM     22  N   UNL     1       5.858  -6.414  27.384  0.00  0.00    -0.124 NA
BRANCH  17  24
ATOM     23  F   UNL     1       4.907  -6.698  23.931  0.00  0.00    -0.163 F 
ATOM     24  C   UNL     1       4.541  -6.536  25.226  0.00  0.00    +0.452 C 
ATOM     25  F   UNL     1       3.983  -7.706  25.634  0.00  0.00    -0.163 F 
ATOM     26  F   UNL     1       3.540  -5.615  25.244  0.00  0.00    -0.163 F 
ENDBRANCH  17  24
ENDBRANCH  16  20
ENDBRANCH   1  16
TORSDOF 6
ENDMDL
MODEL 7
REMARK VINA RESULT:      -6.5      3.889      5.574
REMARK  Name = 
REMARK  6 active torsions:
REMARK  status: ('A' for Active; 'I' for Inactive)
REMARK    1  A    between atoms: C_2  and  C_5
REMARK    2  A    between atoms: C_8  and  S_10
REMARK    3  A    between atoms: S_10  and  C_11
REMARK    4  A    between atoms: C_11  and  C_13
REMARK    5  A    between atoms: C_16  and  C_18
REMARK    6  A    between atoms: C_19  and  C_20
REMARK                            x       y       z     vdW  Elec       q    Type
REMARK                         _______ _______ _______ _____ _____    ______ ____
ROOT
ATOM      1  C   UNL     1       9.309  -2.207  24.000  0.00  0.00    +0.262 C 
ATOM      2  O   UNL     1      10.170  -3.079  23.979  0.00  0.00    -0.276 OA
ENDROOT
BRANCH   1   3
ATOM      3  C   UNL     1       9.291  -1.059  23.112  0.00  0.00    +0.183 A 
ATOM      4  O   UNL     1       8.412  -0.011  23.287  0.00  0.00    -0.443 OA
ATOM      5  C   UNL     1       8.676   0.892  22.304  0.00  0.00    +0.179 A 
ATOM      6  C   UNL     1       9.699   0.459  21.498  0.00  0.00    +0.059 A 
ATOM      7  C   UNL     1      10.099  -0.793  22.018  0.00  0.00    +0.055 A 
BRANCH   5   8
ATOM      8  C   UNL     1       7.917   2.088  22.245  0.00  0.00    -0.023 C 
ATOM      9  C   UNL     1       7.340   3.141  22.297  0.00  0.00    -0.058 C 
BRANCH   9  10
ATOM     10  C   UNL     1       6.711   4.423  22.438  0.00  0.00    +0.025 A 
ATOM     11  C   UNL     1       5.454   4.535  23.038  0.00  0.00    +0.017 A 
ATOM     12  C   UNL     1       4.855   5.791  23.180  0.00  0.00    +0.001 A 
ATOM     13  C   UNL     1       5.510   6.936  22.727  0.00  0.00    +0.000 A 
ATOM     14  C   UNL     1       6.766   6.828  22.131  0.00  0.00    +0.001 A 
ATOM     15  C   UNL     1       7.366   5.573  21.987  0.00  0.00    +0.017 A 
ENDBRANCH   9  10
ENDBRANCH   5   8
ENDBRANCH   1   3
BRANCH   1  16
ATOM     16  S   UNL     1       8.040  -2.252  25.222  0.00  0.00    -0.004 S 
BRANCH  16  20
ATOM     17  C   UNL     1       6.659  -5.259  23.303  0.00  0.00    +0.236 A 
ATOM     18  N   UNL     1       7.231  -4.013  23.366  0.00  0.00    -0.313 N 
ATOM     19  H   UNL     1       7.610  -3.471  22.604  0.00  0.00    +0.169 HD
ATOM     20  C   UNL     1       7.256  -3.683  24.687  0.00  0.00    +0.197 A 
ATOM     21  N   UNL     1       6.670  -4.617  25.391  0.00  0.00    -0.122 NA
ATOM     22  N   UNL     1       6.287  -5.613  24.521  0.00  0.00    -0.124 NA
BRANCH  17  24
ATOM     23  F   UNL     1       5.355  -5.893  21.424  0.00  0.00    -0.163 F 
ATOM     24  C   UNL     1       6.557  -6.018  22.037  0.00  0.00    +0.452 C 
ATOM     25  F   UNL     1       7.504  -5.627  21.144  0.00  0.00    -0.163 F 
ATOM     26  F   UNL     1       6.761  -7.346  22.246  0.00  0.00    -0.163 F 
ENDBRANCH  17  24
ENDBRANCH  16  20
ENDBRANCH   1  16
TORSDOF 6
ENDMDL
MODEL 8
REMARK VINA RESULT:      -6.4      3.603      4.966
REMARK  Name = 
REMARK  6 active torsions:
REMARK  status: ('A' for Active; 'I' for Inactive)
REMARK    1  A    between atoms: C_2  and  C_5
REMARK    2  A    between atoms: C_8  and  S_10
REMARK    3  A    between atoms: S_10  and  C_11
REMARK    4  A    between atoms: C_11  and  C_13
REMARK    5  A    between atoms: C_16  and  C_18
REMARK    6  A    between atoms: C_19  and  C_20
REMARK                            x       y       z     vdW  Elec       q    Type
REMARK                         _______ _______ _______ _____ _____    ______ ____
ROOT
ATOM      1  C   UNL     1       7.376  -4.139  26.333  0.00  0.00    +0.262 C 
ATOM      2  O   UNL     1       7.687  -4.857  27.277  0.00  0.00    -0.276 OA
ENDROOT
BRANCH   1   3
ATOM      3  C   UNL     1       6.932  -2.764  26.468  0.00  0.00    +0.183 A 
ATOM      4  O   UNL     1       7.651  -1.707  25.951  0.00  0.00    -0.443 OA
ATOM      5  C   UNL     1       6.948  -0.577  26.235  0.00  0.00    +0.179 A 
ATOM      6  C   UNL     1       5.797  -0.871  26.922  0.00  0.00    +0.059 A 
ATOM      7  C   UNL     1       5.781  -2.277  27.068  0.00  0.00    +0.055 A 
BRANCH   5   8
ATOM      8  C   UNL     1       7.457   0.676  25.810  0.00  0.00    -0.023 C 
ATOM      9  C   UNL     1       7.989   1.674  25.402  0.00  0.00    -0.058 C 
BRANCH   9  10
ATOM     10  C   UNL     1       8.698   2.806  24.878  0.00  0.00    +0.025 A 
ATOM     11  C   UNL     1       8.302   4.105  25.203  0.00  0.00    +0.017 A 
ATOM     12  C   UNL     1       9.007   5.201  24.695  0.00  0.00    +0.001 A 
ATOM     13  C   UNL     1      10.110   5.001  23.865  0.00  0.00    +0.000 A 
ATOM     14  C   UNL     1      10.511   3.705  23.542  0.00  0.00    +0.001 A 
ATOM     15  C   UNL     1       9.806   2.609  24.047  0.00  0.00    +0.017 A 
ENDBRANCH   9  10
ENDBRANCH   5   8
ENDBRANCH   1   3
BRANCH   1  16
ATOM     16  S   UNL     1       7.365  -4.792  24.696  0.00  0.00    -0.004 S 
BRANCH  16  20
ATOM     17  C   UNL     1       9.315  -2.021  22.920  0.00  0.00    +0.236 A 
ATOM     18  N   UNL     1       8.176  -2.750  23.155  0.00  0.00    -0.313 N 
ATOM     19  H   UNL     1       7.245  -2.567  22.809  0.00  0.00    +0.169 HD
ATOM     20  C   UNL     1       8.539  -3.737  24.020  0.00  0.00    +0.197 A 
ATOM     21  N   UNL     1       9.827  -3.680  24.246  0.00  0.00    -0.122 NA
ATOM     22  N   UNL     1      10.322  -2.599  23.550  0.00  0.00    -0.124 NA
BRANCH  17  24
ATOM     23  F   UNL     1      10.457  -0.073  22.189  0.00  0.00    -0.163 F 
ATOM     24  C   UNL     1       9.305  -0.782  22.111  0.00  0.00    +0.452 C 
ATOM     25  F   UNL     1       9.084  -1.046  20.796  0.00  0.00    -0.163 F 
ATOM     26  F   UNL     1       8.300   0.048  22.503  0.00  0.00    -0.163 F 
ENDBRANCH  17  24
ENDBRANCH  16  20
ENDBRANCH   1  16
TORSDOF 6
ENDMDL
MODEL 9
REMARK VINA RESULT:      -6.4      2.488      3.913
REMARK  Name = 
REMARK  6 active torsions:
REMARK  status: ('A' for Active; 'I' for Inactive)
REMARK    1  A    between atoms: C_2  and  C_5
REMARK    2  A    between atoms: C_8  and  S_10
REMARK    3  A    between atoms: S_10  and  C_11
REMARK    4  A    between atoms: C_11  and  C_13
REMARK    5  A    between atoms: C_16  and  C_18
REMARK    6  A    between atoms: C_19  and  C_20
REMARK                            x       y       z     vdW  Elec       q    Type
REMARK                         _______ _______ _______ _____ _____    ______ ____
ROOT
ATOM      1  C   UNL     1       6.861  -3.125  22.480  0.00  0.00    +0.262 C 
ATOM      2  O   UNL     1       5.762  -2.661  22.196  0.00  0.00    -0.276 OA
ENDROOT
BRANCH   1   3
ATOM      3  C   UNL     1       7.993  -2.327  22.913  0.00  0.00    +0.183 A 
ATOM      4  O   UNL     1       8.025  -0.957  22.764  0.00  0.00    -0.443 OA
ATOM      5  C   UNL     1       9.208  -0.531  23.286  0.00  0.00    +0.179 A 
ATOM      6  C   UNL     1       9.942  -1.586  23.768  0.00  0.00    +0.059 A 
ATOM      7  C   UNL     1       9.162  -2.741  23.534  0.00  0.00    +0.055 A 
BRANCH   5   8
ATOM      8  C   UNL     1       9.508   0.854  23.273  0.00  0.00    -0.023 C 
ATOM      9  C   UNL     1       9.806   2.014  23.382  0.00  0.00    -0.058 C 
BRANCH   9  10
ATOM     10  C   UNL     1      10.197   3.376  23.604  0.00  0.00    +0.025 A 
ATOM     11  C   UNL     1      11.482   3.810  23.269  0.00  0.00    +0.017 A 
ATOM     12  C   UNL     1      11.849   5.143  23.480  0.00  0.00    +0.001 A 
ATOM     13  C   UNL     1      10.933   6.044  24.024  0.00  0.00    +0.000 A 
ATOM     14  C   UNL     1       9.650   5.615  24.357  0.00  0.00    +0.001 A 
ATOM     15  C   UNL     1       9.282   4.283  24.148  0.00  0.00    +0.017 A 
ENDBRANCH   9  10
ENDBRANCH   5   8
ENDBRANCH   1   3
BRANCH   1  16
ATOM     16  S   UNL     1       7.168  -4.849  22.283  0.00  0.00    -0.004 S 
BRANCH  16  20
ATOM     17  C   UNL     1       6.179  -5.578  25.906  0.00  0.00    +0.236 A 
ATOM     18  N   UNL     1       7.068  -5.163  24.946  0.00  0.00    -0.313 N 
ATOM     19  H   UNL     1       7.970  -4.732  25.088  0.00  0.00    +0.169 HD
ATOM     20  C   UNL     1       6.452  -5.379  23.751  0.00  0.00    +0.197 A 
ATOM     21  N   UNL     1       5.297  -5.961  23.945  0.00  0.00    -0.122 NA
ATOM     22  N   UNL     1       5.121  -6.093  25.304  0.00  0.00    -0.124 NA
BRANCH  17  24
ATOM     23  F   UNL     1       7.663  -5.829  27.742  0.00  0.00    -0.163 F 
ATOM     24  C   UNL     1       6.438  -5.399  27.352  0.00  0.00    +0.452 C 
ATOM     25  F   UNL     1       6.334  -4.095  27.720  0.00  0.00    -0.163 F 
ATOM     26  F   UNL     1       5.523  -6.075  28.098  0.00  0.00    -0.163 F 
ENDBRANCH  17  24
ENDBRANCH  16  20
ENDBRANCH   1  16
TORSDOF 6
ENDMDL
