MODEL 1
REMARK VINA RESULT:      -3.8      0.000      0.000
REMARK  Name = 
REMARK  4 active torsions:
REMARK  status: ('A' for Active; 'I' for Inactive)
REMARK    1  A    between atoms: C_1  and  C_2
REMARK    2  A    between atoms: C_3  and  C_4
REMARK    3  A    between atoms: C_4  and  C_6
REMARK    4  A    between atoms: C_6  and  O_7
REMARK                            x       y       z     vdW  Elec       q    Type
REMARK                         _______ _______ _______ _____ _____    ______ ____
ROOT
ATOM      1  C   UNL     1       8.682  -4.480  24.322  0.00  0.00    +0.262 C 
ATOM      2  O   UNL     1       9.532  -3.618  24.130  0.00  0.00    -0.280 OA
ENDROOT
BRANCH   1   5
ATOM      3  C   UNL     1       6.311  -5.974  21.671  0.00  0.00    +0.035 C 
ATOM      4  C   UNL     1       7.483  -5.702  22.556  0.00  0.00    -0.026 C 
ATOM      5  C   UNL     1       7.495  -4.713  23.464  0.00  0.00    +0.054 C 
ENDBRANCH   1   5
BRANCH   1   6
ATOM      6  C   UNL     1       8.855  -5.389  25.542  0.00  0.00    +0.377 C 
ATOM      7  O   UNL     1       7.940  -5.750  26.254  0.00  0.00    -0.241 OA
BRANCH   6   8
ATOM      8  O   UNL     1      10.153  -5.718  25.700  0.00  0.00    -0.475 OA
ATOM      9  H   UNL     1      10.290  -6.644  25.387  0.00  0.00    +0.296 HD
ENDBRANCH   6   8
ENDBRANCH   1   6
TORSDOF 3
ENDMDL
MODEL 2
REMARK VINA RESULT:      -3.8     10.585     11.698
REMARK  Name = 
REMARK  4 active torsions:
REMARK  status: ('A' for Active; 'I' for Inactive)
REMARK    1  A    between atoms: C_1  and  C_2
REMARK    2  A    between atoms: C_3  and  C_4
REMARK    3  A    between atoms: C_4  and  C_6
REMARK    4  A    between atoms: C_6  and  O_7
REMARK                            x       y       z     vdW  Elec       q    Type
REMARK                         _______ _______ _______ _____ _____    ______ ____
ROOT
ATOM      1  C   UNL     1      12.009   4.956  23.381  0.00  0.00    +0.262 C 
ATOM      2  O   UNL     1      11.640   3.787  23.418  0.00  0.00    -0.280 OA
ENDROOT
BRANCH   1   5
ATOM      3  C   UNL     1       9.311   7.108  25.104  0.00  0.00    +0.035 C 
ATOM      4  C   UNL     1      10.039   5.995  24.424  0.00  0.00    -0.026 C 
ATOM      5  C   UNL     1      11.326   6.087  24.054  0.00  0.00    +0.054 C 
ENDBRANCH   1   5
BRANCH   1   6
ATOM      6  C   UNL     1      13.273   5.277  22.578  0.00  0.00    +0.377 C 
ATOM      7  O   UNL     1      13.263   5.710  21.443  0.00  0.00    -0.241 OA
BRANCH   6   8
ATOM      8  O   UNL     1      14.373   5.007  23.309  0.00  0.00    -0.475 OA
ATOM      9  H   UNL     1      14.849   5.852  23.494  0.00  0.00    +0.296 HD
ENDBRANCH   6   8
ENDBRANCH   1   6
TORSDOF 3
ENDMDL
MODEL 3
REMARK VINA RESULT:      -3.7      0.735      1.767
REMARK  Name = 
REMARK  4 active torsions:
REMARK  status: ('A' for Active; 'I' for Inactive)
REMARK    1  A    between atoms: C_1  and  C_2
REMARK    2  A    between atoms: C_3  and  C_4
REMARK    3  A    between atoms: C_4  and  C_6
REMARK    4  A    between atoms: C_6  and  O_7
REMARK                            x       y       z     vdW  Elec       q    Type
REMARK                         _______ _______ _______ _____ _____    ______ ____
ROOT
ATOM      1  C   UNL     1       7.759  -5.068  24.906  0.00  0.00    +0.262 C 
ATOM      2  O   UNL     1       7.189  -5.311  25.964  0.00  0.00    -0.280 OA
ENDROOT
BRANCH   1   5
ATOM      3  C   UNL     1       6.652  -5.663  21.259  0.00  0.00    +0.035 C 
ATOM      4  C   UNL     1       7.305  -5.783  22.597  0.00  0.00    -0.026 C 
ATOM      5  C   UNL     1       7.088  -4.909  23.593  0.00  0.00    +0.054 C 
ENDBRANCH   1   5
BRANCH   1   6
ATOM      6  C   UNL     1       9.282  -4.916  24.939  0.00  0.00    +0.377 C 
ATOM      7  O   UNL     1       9.880  -3.972  24.463  0.00  0.00    -0.241 OA
BRANCH   6   8
ATOM      8  O   UNL     1       9.844  -5.970  25.563  0.00  0.00    -0.475 OA
ATOM      9  H   UNL     1      10.620  -5.657  26.088  0.00  0.00    +0.296 HD
ENDBRANCH   6   8
ENDBRANCH   1   6
TORSDOF 3
ENDMDL
MODEL 4
REMARK VINA RESULT:      -3.6      4.731      6.123
REMARK  Name = 
REMARK  4 active torsions:
REMARK  status: ('A' for Active; 'I' for Inactive)
REMARK    1  A    between atoms: C_1  and  C_2
REMARK    2  A    between atoms: C_3  and  C_4
REMARK    3  A    between atoms: C_4  and  C_6
REMARK    4  A    between atoms: C_6  and  O_7
REMARK                            x       y       z     vdW  Elec       q    Type
REMARK                         _______ _______ _______ _____ _____    ______ ____
ROOT
ATOM      1  C   UNL     1       9.991  -0.660  24.046  0.00  0.00    +0.262 C 
ATOM      2  O   UNL     1       9.530  -0.737  25.180  0.00  0.00    -0.280 OA
ENDROOT
BRANCH   1   5
ATOM      3  C   UNL     1      10.749   3.062  23.376  0.00  0.00    +0.035 C 
ATOM      4  C   UNL     1      10.380   1.768  24.024  0.00  0.00    -0.026 C 
ATOM      5  C   UNL     1      10.363   0.601  23.361  0.00  0.00    +0.054 C 
ENDBRANCH   1   5
BRANCH   1   6
ATOM      6  C   UNL     1      10.198  -1.966  23.274  0.00  0.00    +0.377 C 
ATOM      7  O   UNL     1      10.181  -3.067  23.786  0.00  0.00    -0.241 OA
BRANCH   6   8
ATOM      8  O   UNL     1      10.400  -1.709  21.966  0.00  0.00    -0.475 OA
ATOM      9  H   UNL     1      10.639  -2.549  21.507  0.00  0.00    +0.296 HD
ENDBRANCH   6   8
ENDBRANCH   1   6
TORSDOF 3
ENDMDL
MODEL 5
REMARK VINA RESULT:      -3.6      4.935      6.333
REMARK  Name = 
REMARK  4 active torsions:
REMARK  status: ('A' for Active; 'I' for Inactive)
REMARK    1  A    between atoms: C_1  and  C_2
REMARK    2  A    between atoms: C_3  and  C_4
REMARK    3  A    between atoms: C_4  and  C_6
REMARK    4  A    between atoms: C_6  and  O_7
REMARK                            x       y       z     vdW  Elec       q    Type
REMARK                         _______ _______ _______ _____ _____    ______ ____
ROOT
ATOM      1  C   UNL     1      10.122   0.581  23.360  0.00  0.00    +0.262 C 
ATOM      2  O   UNL     1      10.885   1.300  23.997  0.00  0.00    -0.280 OA
ENDROOT
BRANCH   1   5
ATOM      3  C   UNL     1       9.445  -3.117  24.222  0.00  0.00    +0.035 C 
ATOM      4  C   UNL     1      10.056  -1.851  23.718  0.00  0.00    -0.026 C 
ATOM      5  C   UNL     1       9.478  -0.650  23.878  0.00  0.00    +0.054 C 
ENDBRANCH   1   5
BRANCH   1   6
ATOM      6  C   UNL     1       9.808   0.983  21.916  0.00  0.00    +0.377 C 
ATOM      7  O   UNL     1       9.238   0.264  21.120  0.00  0.00    -0.241 OA
BRANCH   6   8
ATOM      8  O   UNL     1      10.255   2.231  21.670  0.00  0.00    -0.475 OA
ATOM      9  H   UNL     1      10.464   2.314  20.709  0.00  0.00    +0.296 HD
ENDBRANCH   6   8
ENDBRANCH   1   6
TORSDOF 3
ENDMDL
MODEL 6
REMARK VINA RESULT:      -3.5      2.317      3.766
REMARK  Name = 
REMARK  4 active torsions:
REMARK  status: ('A' for Active; 'I' for Inactive)
REMARK    1  A    between atoms: C_1  and  C_2
REMARK    2  A    between atoms: C_3  and  C_4
REMARK    3  A    between atoms: C_4  and  C_6
REMARK    4  A    between atoms: C_6  and  O_7
REMARK                            x       y       z     vdW  Elec       q    Type
REMARK                         _______ _______ _______ _____ _____    ______ ____
ROOT
ATOM      1  C   UNL     1       8.039  -4.985  26.366  0.00  0.00    +0.262 C 
ATOM      2  O   UNL     1       7.631  -5.916  27.053  0.00  0.00    -0.280 OA
ENDROOT
BRANCH   1   5
ATOM      3  C   UNL     1       8.133  -1.130  26.459  0.00  0.00    +0.035 C 
ATOM      4  C   UNL     1       8.503  -2.570  26.318  0.00  0.00    -0.026 C 
ATOM      5  C   UNL     1       7.628  -3.568  26.517  0.00  0.00    +0.054 C 
ENDBRANCH   1   5
BRANCH   1   6
ATOM      6  C   UNL     1       9.053  -5.308  25.264  0.00  0.00    +0.377 C 
ATOM      7  O   UNL     1       8.784  -5.324  24.080  0.00  0.00    -0.241 OA
BRANCH   6   8
ATOM      8  O   UNL     1      10.262  -5.567  25.802  0.00  0.00    -0.475 OA
ATOM      9  H   UNL     1      10.142  -6.129  26.604  0.00  0.00    +0.296 HD
ENDBRANCH   6   8
ENDBRANCH   1   6
TORSDOF 3
ENDMDL
MODEL 7
REMARK VINA RESULT:      -3.5      2.274      3.468
REMARK  Name = 
REMARK  4 active torsions:
REMARK  status: ('A' for Active; 'I' for Inactive)
REMARK    1  A    between atoms: C_1  and  C_2
REMARK    2  A    between atoms: C_3  and  C_4
REMARK    3  A    between atoms: C_4  and  C_6
REMARK    4  A    between atoms: C_6  and  O_7
REMARK                            x       y       z     vdW  Elec       q    Type
REMARK                         _______ _______ _______ _____ _____    ______ ____
ROOT
ATOM      1  C   UNL     1       9.002  -3.910  24.379  0.00  0.00    +0.262 C 
ATOM      2  O   UNL     1       8.040  -4.312  23.732  0.00  0.00    -0.280 OA
ENDROOT
BRANCH   1   5
ATOM      3  C   UNL     1      10.243  -0.265  24.147  0.00  0.00    +0.035 C 
ATOM      4  C   UNL     1       9.454  -1.494  24.460  0.00  0.00    -0.026 C 
ATOM      5  C   UNL     1       9.817  -2.717  24.044  0.00  0.00    +0.054 C 
ENDBRANCH   1   5
BRANCH   1   6
ATOM      6  C   UNL     1       9.394  -4.700  25.631  0.00  0.00    +0.377 C 
ATOM      7  O   UNL     1       8.952  -4.476  26.740  0.00  0.00    -0.241 OA
BRANCH   6   8
ATOM      8  O   UNL     1      10.289  -5.659  25.318  0.00  0.00    -0.475 OA
ATOM      9  H   UNL     1       9.804  -6.458  25.002  0.00  0.00    +0.296 HD
ENDBRANCH   6   8
ENDBRANCH   1   6
TORSDOF 3
ENDMDL
MODEL 8
REMARK VINA RESULT:      -3.5      2.805      4.094
REMARK  Name = 
REMARK  4 active torsions:
REMARK  status: ('A' for Active; 'I' for Inactive)
REMARK    1  A    between atoms: C_1  and  C_2
REMARK    2  A    between atoms: C_3  and  C_4
REMARK    3  A    between atoms: C_4  and  C_6
REMARK    4  A    between atoms: C_6  and  O_7
REMARK                            x       y       z     vdW  Elec       q    Type
REMARK                         _______ _______ _______ _____ _____    ______ ____
ROOT
ATOM      1  C   UNL     1       9.369  -2.414  23.435  0.00  0.00    +0.262 C 
ATOM      2  O   UNL     1      10.004  -3.268  24.043  0.00  0.00    -0.280 OA
ENDROOT
BRANCH   1   5
ATOM      3  C   UNL     1       5.780  -3.105  22.201  0.00  0.00    +0.035 C 
ATOM      4  C   UNL     1       7.264  -3.108  22.368  0.00  0.00    -0.026 C 
ATOM      5  C   UNL     1       7.892  -2.380  23.305  0.00  0.00    +0.054 C 
ENDBRANCH   1   5
BRANCH   1   6
ATOM      6  C   UNL     1      10.159  -1.293  22.753  0.00  0.00    +0.377 C 
ATOM      7  O   UNL     1      10.606  -0.327  23.337  0.00  0.00    -0.241 OA
BRANCH   6   8
ATOM      8  O   UNL     1      10.276  -1.539  21.432  0.00  0.00    -0.475 OA
ATOM      9  H   UNL     1       9.420  -1.897  21.096  0.00  0.00    +0.296 HD
ENDBRANCH   6   8
ENDBRANCH   1   6
TORSDOF 3
ENDMDL
MODEL 9
REMARK VINA RESULT:      -3.5      5.867      7.339
REMARK  Name = 
REMARK  4 active torsions:
REMARK  status: ('A' for Active; 'I' for Inactive)
REMARK    1  A    between atoms: C_1  and  C_2
REMARK    2  A    between atoms: C_3  and  C_4
REMARK    3  A    between atoms: C_4  and  C_6
REMARK    4  A    between atoms: C_6  and  O_7
REMARK                            x       y       z     vdW  Elec       q    Type
REMARK                         _______ _______ _______ _____ _____    ______ ____
ROOT
ATOM      1  C   UNL     1       9.996   1.678  24.041  0.00  0.00    +0.262 C 
ATOM      2  O   UNL     1       9.168   2.128  24.827  0.00  0.00    -0.280 OA
ENDROOT
BRANCH   1   5
ATOM      3  C   UNL     1      10.054  -2.151  23.581  0.00  0.00    +0.035 C 
ATOM      4  C   UNL     1       9.632  -0.720  23.633  0.00  0.00    -0.026 C 
ATOM      5  C   UNL     1      10.459   0.270  24.005  0.00  0.00    +0.054 C 
ENDBRANCH   1   5
BRANCH   1   6
ATOM      6  C   UNL     1      10.602   2.643  23.018  0.00  0.00    +0.377 C 
ATOM      7  O   UNL     1      11.306   3.588  23.311  0.00  0.00    -0.241 OA
BRANCH   6   8
ATOM      8  O   UNL     1      10.238   2.289  21.769  0.00  0.00    -0.475 OA
ATOM      9  H   UNL     1       9.269   2.440  21.662  0.00  0.00    +0.296 HD
ENDBRANCH   6   8
ENDBRANCH   1   6
TORSDOF 3
ENDMDL
