MODEL 1
REMARK VINA RESULT:      -7.3      0.000      0.000
REMARK  Name = 
REMARK  19 active torsions:
REMARK  status: ('A' for Active; 'I' for Inactive)
REMARK    1  A    between atoms: C_1  and  C_2
REMARK    2  A    between atoms: C_2  and  C_3
REMARK    3  A    between atoms: C_3  and  O_4
REMARK    4  A    between atoms: O_4  and  C_5
REMARK    5  A    between atoms: C_11  and  C_12
REMARK    6  A    between atoms: C_12  and  C_13
REMARK    7  A    between atoms: C_13  and  N_15
REMARK    8  A    between atoms: C_13  and  C_21
REMARK    9  A    between atoms: N_15  and  S_16
REMARK   10  A    between atoms: S_16  and  C_19
REMARK   11  A    between atoms: C_19  and  C_20
REMARK   12  A    between atoms: N_23  and  C_24
REMARK   13  A    between atoms: C_24  and  C_26
REMARK   14  A    between atoms: C_24  and  C_31
REMARK   15  A    between atoms: C_26  and  C_27
REMARK   16  A    between atoms: C_27  and  C_28
REMARK   17  A    between atoms: N_33  and  C_34
REMARK   18  A    between atoms: C_34  and  C_35
REMARK   19  A    between atoms: C_38  and  C_41
REMARK                            x       y       z     vdW  Elec       q    Type
REMARK                         _______ _______ _______ _____ _____    ______ ____
ROOT
ATOM      1  C   UNL     1       9.755  -2.128  23.920  0.00  0.00    +0.233 C 
ATOM      2  N   UNL     1       8.645  -2.860  24.318  0.00  0.00    -0.303 N 
ATOM      3  H   UNL     1       8.050  -2.517  25.069  0.00  0.00    +0.149 HD
ATOM      4  O   UNL     1      10.536  -2.557  23.073  0.00  0.00    -0.274 OA
ENDROOT
BRANCH   2   5
ATOM      5  C   UNL     1       8.387  -4.241  23.875  0.00  0.00    +0.159 C 
BRANCH   5   6
ATOM      6  C   UNL     1       6.893  -4.311  23.454  0.00  0.00    +0.234 C 
ATOM      7  N   UNL     1       6.524  -5.442  22.760  0.00  0.00    -0.310 N 
ATOM      8  H   UNL     1       7.222  -6.132  22.515  0.00  0.00    +0.149 HD
ATOM      9  O   UNL     1       6.102  -3.417  23.755  0.00  0.00    -0.274 OA
BRANCH   7  10
ATOM     10  C   UNL     1       5.149  -5.736  22.398  0.00  0.00    +0.139 C 
BRANCH  10  11
ATOM     11  C   UNL     1       4.325  -6.123  23.602  0.00  0.00    -0.030 A 
ATOM     12  C   UNL     1       4.925  -6.761  24.697  0.00  0.00    +0.006 A 
ATOM     13  C   UNL     1       4.176  -7.093  25.831  0.00  0.00    +0.016 A 
ATOM     14  C   UNL     1       2.814  -6.781  25.887  0.00  0.00    +0.065 A 
ATOM     15  C   UNL     1       2.200  -6.167  24.789  0.00  0.00    +0.016 A 
ATOM     16  C   UNL     1       2.956  -5.835  23.656  0.00  0.00    +0.006 A 
BRANCH  14  17
ATOM     17  C   UNL     1       2.037  -7.094  27.124  0.00  0.00    +0.308 C 
ATOM     18  N   UNL     1       1.458  -8.236  27.319  0.00  0.00    -0.099 NA
ATOM     19  H   UNL     1       1.559  -8.856  26.513  0.00  0.00    +0.363 HD
ATOM     20  N   UNL     1       1.900  -6.172  28.120  0.00  0.00    -0.247 N 
ATOM     21  H   UNL     1       1.523  -6.607  28.956  0.00  0.00    +0.288 HD
ATOM     22  H   UNL     1       2.714  -5.605  28.316  0.00  0.00    +0.288 HD
ENDBRANCH  14  17
ENDBRANCH  10  11
ENDBRANCH   7  10
ENDBRANCH   5   6
BRANCH   5  23
ATOM     23  C   UNL     1       8.709  -5.258  24.991  0.00  0.00    +0.041 C 
BRANCH  23  24
ATOM     24  C   UNL     1       8.596  -4.686  26.405  0.00  0.00    +0.098 C 
BRANCH  24  25
ATOM     25  C   UNL     1       7.316  -5.032  27.141  0.00  0.00    +0.211 C 
ATOM     26  O   UNL     1       7.261  -5.954  27.950  0.00  0.00    -0.276 OA
ATOM     27  N   UNL     1       6.240  -4.227  26.943  0.00  0.00    -0.329 N 
ATOM     28  H   UNL     1       5.397  -4.436  27.464  0.00  0.00    +0.145 HD
ATOM     29  H   UNL     1       6.225  -3.420  26.334  0.00  0.00    +0.145 HD
ENDBRANCH  24  25
ENDBRANCH  23  24
ENDBRANCH   5  23
ENDBRANCH   2   5
BRANCH   1  30
ATOM     30  C   UNL     1       9.861  -0.720  24.560  0.00  0.00    +0.166 C 
BRANCH  30  31
ATOM     31  N   UNL     1       8.430  -0.249  24.823  0.00  0.00    -0.182 NA
ATOM     32  H   UNL     1       7.799  -0.698  24.155  0.00  0.00    +0.148 HD
BRANCH  31  33
ATOM     33  S   UNL     1       7.936  -0.486  26.418  0.00  0.00    +0.030 S 
ATOM     34  O   UNL     1       9.118  -0.717  27.212  0.00  0.00    -0.158 OA
ATOM     35  O   UNL     1       6.865  -1.452  26.354  0.00  0.00    -0.158 OA
BRANCH  33  36
ATOM     36  C   UNL     1       7.247   1.082  26.951  0.00  0.00    +0.181 C 
ATOM     37  C   UNL     1       6.797   1.842  25.708  0.00  0.00    +0.029 C 
ENDBRANCH  33  36
ENDBRANCH  31  33
ENDBRANCH  30  31
BRANCH  30  38
ATOM     38  C   UNL     1      10.684   0.248  23.677  0.00  0.00    +0.067 C 
BRANCH  38  46
ATOM     39  C   UNL     1       8.876   4.527  24.019  0.00  0.00    +0.121 A 
ATOM     40  C   UNL     1       7.785   4.675  23.160  0.00  0.00    +0.047 A 
ATOM     41  C   UNL     1       7.525   3.761  22.130  0.00  0.00    +0.030 A 
ATOM     42  C   UNL     1       8.349   2.636  22.054  0.00  0.00    +0.047 A 
ATOM     43  N   UNL     1       8.344   1.582  21.172  0.00  0.00    -0.360 N 
ATOM     44  H   UNL     1       7.739   1.507  20.365  0.00  0.00    +0.165 HD
ATOM     45  C   UNL     1       9.214   0.615  21.597  0.00  0.00    +0.087 A 
ATOM     46  C   UNL     1       9.809   1.057  22.764  0.00  0.00    -0.020 A 
ATOM     47  C   UNL     1       9.374   2.402  22.967  0.00  0.00    +0.006 A 
ATOM     48  C   UNL     1       9.693   3.399  23.912  0.00  0.00    +0.056 A 
BRANCH  39  49
ATOM     49  O   UNL     1       8.987   5.494  24.982  0.00  0.00    -0.492 OA
BRANCH  49  50
ATOM     50  C   UNL     1       9.635   6.713  24.614  0.00  0.00    +0.229 C 
BRANCH  50  52
ATOM     51  C   UNL     1      12.123   6.307  24.424  0.00  0.00    +0.007 C 
ATOM     52  C   UNL     1      10.988   6.784  25.322  0.00  0.00    +0.038 C 
ENDBRANCH  50  52
ENDBRANCH  49  50
ENDBRANCH  39  49
ENDBRANCH  38  46
ENDBRANCH  30  38
ENDBRANCH   1  30
TORSDOF 17
ENDMDL
MODEL 2
REMARK VINA RESULT:      -7.2      2.874      7.218
REMARK  Name = 
REMARK  19 active torsions:
REMARK  status: ('A' for Active; 'I' for Inactive)
REMARK    1  A    between atoms: C_1  and  C_2
REMARK    2  A    between atoms: C_2  and  C_3
REMARK    3  A    between atoms: C_3  and  O_4
REMARK    4  A    between atoms: O_4  and  C_5
REMARK    5  A    between atoms: C_11  and  C_12
REMARK    6  A    between atoms: C_12  and  C_13
REMARK    7  A    between atoms: C_13  and  N_15
REMARK    8  A    between atoms: C_13  and  C_21
REMARK    9  A    between atoms: N_15  and  S_16
REMARK   10  A    between atoms: S_16  and  C_19
REMARK   11  A    between atoms: C_19  and  C_20
REMARK   12  A    between atoms: N_23  and  C_24
REMARK   13  A    between atoms: C_24  and  C_26
REMARK   14  A    between atoms: C_24  and  C_31
REMARK   15  A    between atoms: C_26  and  C_27
REMARK   16  A    between atoms: C_27  and  C_28
REMARK   17  A    between atoms: N_33  and  C_34
REMARK   18  A    between atoms: C_34  and  C_35
REMARK   19  A    between atoms: C_38  and  C_41
REMARK                            x       y       z     vdW  Elec       q    Type
REMARK                         _______ _______ _______ _____ _____    ______ ____
ROOT
ATOM      1  C   UNL     1       6.716   1.181  23.269  0.00  0.00    +0.233 C 
ATOM      2  N   UNL     1       7.953   0.557  23.353  0.00  0.00    -0.303 N 
ATOM      3  H   UNL     1       8.357   0.345  24.262  0.00  0.00    +0.149 HD
ATOM      4  O   UNL     1       6.242   1.523  22.188  0.00  0.00    -0.274 OA
ENDROOT
BRANCH   2   5
ATOM      5  C   UNL     1       8.848   0.381  22.197  0.00  0.00    +0.159 C 
BRANCH   5   6
ATOM      6  C   UNL     1       9.600  -0.963  22.405  0.00  0.00    +0.234 C 
ATOM      7  N   UNL     1       9.431  -1.553  23.639  0.00  0.00    -0.310 N 
ATOM      8  H   UNL     1       8.890  -1.083  24.352  0.00  0.00    +0.149 HD
ATOM      9  O   UNL     1      10.273  -1.464  21.504  0.00  0.00    -0.274 OA
BRANCH   7  10
ATOM     10  C   UNL     1       9.954  -2.867  23.965  0.00  0.00    +0.139 C 
BRANCH  10  11
ATOM     11  C   UNL     1       9.070  -3.590  24.952  0.00  0.00    -0.030 A 
ATOM     12  C   UNL     1       8.658  -2.956  26.133  0.00  0.00    +0.006 A 
ATOM     13  C   UNL     1       7.811  -3.607  27.037  0.00  0.00    +0.016 A 
ATOM     14  C   UNL     1       7.357  -4.901  26.764  0.00  0.00    +0.065 A 
ATOM     15  C   UNL     1       7.783  -5.552  25.600  0.00  0.00    +0.016 A 
ATOM     16  C   UNL     1       8.630  -4.895  24.697  0.00  0.00    +0.006 A 
BRANCH  14  17
ATOM     17  C   UNL     1       6.411  -5.564  27.712  0.00  0.00    +0.308 C 
ATOM     18  N   UNL     1       6.802  -6.387  28.633  0.00  0.00    -0.099 NA
ATOM     19  H   UNL     1       7.811  -6.554  28.591  0.00  0.00    +0.363 HD
ATOM     20  N   UNL     1       5.069  -5.330  27.645  0.00  0.00    -0.247 N 
ATOM     21  H   UNL     1       4.605  -5.694  28.472  0.00  0.00    +0.288 HD
ATOM     22  H   UNL     1       4.794  -4.380  27.438  0.00  0.00    +0.288 HD
ENDBRANCH  14  17
ENDBRANCH  10  11
ENDBRANCH   7  10
ENDBRANCH   5   6
BRANCH   5  23
ATOM     23  C   UNL     1       9.831   1.564  22.063  0.00  0.00    +0.041 C 
BRANCH  23  24
ATOM     24  C   UNL     1      10.377   2.075  23.397  0.00  0.00    +0.098 C 
BRANCH  24  25
ATOM     25  C   UNL     1       9.740   3.352  23.908  0.00  0.00    +0.211 C 
ATOM     26  O   UNL     1       8.908   3.347  24.812  0.00  0.00    -0.276 OA
ATOM     27  N   UNL     1      10.186   4.527  23.393  0.00  0.00    -0.329 N 
ATOM     28  H   UNL     1       9.788   5.382  23.762  0.00  0.00    +0.145 HD
ATOM     29  H   UNL     1      10.904   4.613  22.685  0.00  0.00    +0.145 HD
ENDBRANCH  24  25
ENDBRANCH  23  24
ENDBRANCH   5  23
ENDBRANCH   2   5
BRANCH   1  30
ATOM     30  C   UNL     1       5.971   1.317  24.622  0.00  0.00    +0.166 C 
BRANCH  30  31
ATOM     31  N   UNL     1       5.976   2.804  24.978  0.00  0.00    -0.182 NA
ATOM     32  H   UNL     1       6.754   3.263  24.498  0.00  0.00    +0.148 HD
BRANCH  31  33
ATOM     33  S   UNL     1       4.503   3.566  24.667  0.00  0.00    +0.030 S 
ATOM     34  O   UNL     1       4.249   4.483  25.750  0.00  0.00    -0.158 OA
ATOM     35  O   UNL     1       3.579   2.506  24.338  0.00  0.00    -0.158 OA
BRANCH  33  36
ATOM     36  C   UNL     1       4.769   4.555  23.195  0.00  0.00    +0.181 C 
ATOM     37  C   UNL     1       6.246   4.929  23.143  0.00  0.00    +0.029 C 
ENDBRANCH  33  36
ENDBRANCH  31  33
ENDBRANCH  30  31
BRANCH  30  38
ATOM     38  C   UNL     1       6.596   0.413  25.712  0.00  0.00    +0.067 C 
BRANCH  38  46
ATOM     39  C   UNL     1       4.950  -3.298  23.432  0.00  0.00    +0.121 A 
ATOM     40  C   UNL     1       3.797  -3.790  24.049  0.00  0.00    +0.047 A 
ATOM     41  C   UNL     1       3.428  -3.399  25.343  0.00  0.00    +0.030 A 
ATOM     42  C   UNL     1       4.209  -2.420  25.959  0.00  0.00    +0.047 A 
ATOM     43  N   UNL     1       4.102  -1.841  27.202  0.00  0.00    -0.360 N 
ATOM     44  H   UNL     1       3.431  -2.112  27.909  0.00  0.00    +0.165 HD
ATOM     45  C   UNL     1       4.974  -0.792  27.305  0.00  0.00    +0.087 A 
ATOM     46  C   UNL     1       5.674  -0.700  26.116  0.00  0.00    -0.020 A 
ATOM     47  C   UNL     1       5.298  -1.827  25.325  0.00  0.00    +0.006 A 
ATOM     48  C   UNL     1       5.721  -2.330  24.077  0.00  0.00    +0.056 A 
BRANCH  39  49
ATOM     49  O   UNL     1       5.167  -3.765  22.162  0.00  0.00    -0.492 OA
BRANCH  49  50
ATOM     50  C   UNL     1       6.512  -4.087  21.804  0.00  0.00    +0.229 C 
BRANCH  50  52
ATOM     51  C   UNL     1       6.594  -6.589  22.157  0.00  0.00    +0.007 C 
ATOM     52  C   UNL     1       6.526  -5.462  21.134  0.00  0.00    +0.038 C 
ENDBRANCH  50  52
ENDBRANCH  49  50
ENDBRANCH  39  49
ENDBRANCH  38  46
ENDBRANCH  30  38
ENDBRANCH   1  30
TORSDOF 17
ENDMDL
MODEL 3
REMARK VINA RESULT:      -7.1      2.467     10.223
REMARK  Name = 
REMARK  19 active torsions:
REMARK  status: ('A' for Active; 'I' for Inactive)
REMARK    1  A    between atoms: C_1  and  C_2
REMARK    2  A    between atoms: C_2  and  C_3
REMARK    3  A    between atoms: C_3  and  O_4
REMARK    4  A    between atoms: O_4  and  C_5
REMARK    5  A    between atoms: C_11  and  C_12
REMARK    6  A    between atoms: C_12  and  C_13
REMARK    7  A    between atoms: C_13  and  N_15
REMARK    8  A    between atoms: C_13  and  C_21
REMARK    9  A    between atoms: N_15  and  S_16
REMARK   10  A    between atoms: S_16  and  C_19
REMARK   11  A    between atoms: C_19  and  C_20
REMARK   12  A    between atoms: N_23  and  C_24
REMARK   13  A    between atoms: C_24  and  C_26
REMARK   14  A    between atoms: C_24  and  C_31
REMARK   15  A    between atoms: C_26  and  C_27
REMARK   16  A    between atoms: C_27  and  C_28
REMARK   17  A    between atoms: N_33  and  C_34
REMARK   18  A    between atoms: C_34  and  C_35
REMARK   19  A    between atoms: C_38  and  C_41
REMARK                            x       y       z     vdW  Elec       q    Type
REMARK                         _______ _______ _______ _____ _____    ______ ____
ROOT
ATOM      1  C   UNL     1       8.440  -4.111  24.453  0.00  0.00    +0.233 C 
ATOM      2  N   UNL     1       8.214  -2.813  24.019  0.00  0.00    -0.303 N 
ATOM      3  H   UNL     1       7.271  -2.508  23.790  0.00  0.00    +0.149 HD
ATOM      4  O   UNL     1       9.577  -4.531  24.658  0.00  0.00    -0.274 OA
ENDROOT
BRANCH   2   5
ATOM      5  C   UNL     1       9.296  -1.889  23.639  0.00  0.00    +0.159 C 
BRANCH   5   6
ATOM      6  C   UNL     1       9.137  -0.617  24.516  0.00  0.00    +0.234 C 
ATOM      7  N   UNL     1       7.875  -0.064  24.539  0.00  0.00    -0.310 N 
ATOM      8  H   UNL     1       7.142  -0.461  23.965  0.00  0.00    +0.149 HD
ATOM      9  O   UNL     1      10.082  -0.165  25.163  0.00  0.00    -0.274 OA
BRANCH   7  10
ATOM     10  C   UNL     1       7.513   1.047  25.399  0.00  0.00    +0.139 C 
BRANCH  10  11
ATOM     11  C   UNL     1       7.250   2.304  24.606  0.00  0.00    -0.030 A 
ATOM     12  C   UNL     1       8.222   3.313  24.531  0.00  0.00    +0.006 A 
ATOM     13  C   UNL     1       7.999   4.466  23.770  0.00  0.00    +0.016 A 
ATOM     14  C   UNL     1       6.802   4.620  23.064  0.00  0.00    +0.065 A 
ATOM     15  C   UNL     1       5.815   3.630  23.153  0.00  0.00    +0.016 A 
ATOM     16  C   UNL     1       6.044   2.476  23.915  0.00  0.00    +0.006 A 
BRANCH  14  17
ATOM     17  C   UNL     1       6.599   5.832  22.214  0.00  0.00    +0.308 C 
ATOM     18  N   UNL     1       7.519   6.303  21.433  0.00  0.00    -0.099 NA
ATOM     19  H   UNL     1       8.393   5.777  21.514  0.00  0.00    +0.363 HD
ATOM     20  N   UNL     1       5.416   6.509  22.227  0.00  0.00    -0.247 N 
ATOM     21  H   UNL     1       5.380   7.172  21.459  0.00  0.00    +0.288 HD
ATOM     22  H   UNL     1       4.580   5.943  22.285  0.00  0.00    +0.288 HD
ENDBRANCH  14  17
ENDBRANCH  10  11
ENDBRANCH   7  10
ENDBRANCH   5   6
BRANCH   5  23
ATOM     23  C   UNL     1       9.241  -1.549  22.133  0.00  0.00    +0.041 C 
BRANCH  23  24
ATOM     24  C   UNL     1      10.105  -0.352  21.734  0.00  0.00    +0.098 C 
BRANCH  24  25
ATOM     25  C   UNL     1       9.364   0.964  21.606  0.00  0.00    +0.211 C 
ATOM     26  O   UNL     1       8.139   1.016  21.540  0.00  0.00    -0.276 OA
ATOM     27  N   UNL     1      10.098   2.106  21.657  0.00  0.00    -0.329 N 
ATOM     28  H   UNL     1       9.599   2.986  21.609  0.00  0.00    +0.145 HD
ATOM     29  H   UNL     1      11.103   2.144  21.762  0.00  0.00    +0.145 HD
ENDBRANCH  24  25
ENDBRANCH  23  24
ENDBRANCH   5  23
ENDBRANCH   2   5
BRANCH   1  30
ATOM     30  C   UNL     1       7.153  -4.928  24.736  0.00  0.00    +0.166 C 
BRANCH  30  31
ATOM     31  N   UNL     1       5.972  -4.019  24.392  0.00  0.00    -0.182 NA
ATOM     32  H   UNL     1       6.265  -3.042  24.468  0.00  0.00    +0.148 HD
BRANCH  31  33
ATOM     33  S   UNL     1       5.290  -4.359  22.886  0.00  0.00    +0.030 S 
ATOM     34  O   UNL     1       5.836  -3.419  21.938  0.00  0.00    -0.158 OA
ATOM     35  O   UNL     1       3.869  -4.463  23.118  0.00  0.00    -0.158 OA
BRANCH  33  36
ATOM     36  C   UNL     1       5.905  -5.981  22.429  0.00  0.00    +0.181 C 
ATOM     37  C   UNL     1       6.908  -5.799  21.296  0.00  0.00    +0.029 C 
ENDBRANCH  33  36
ENDBRANCH  31  33
ENDBRANCH  30  31
BRANCH  30  38
ATOM     38  C   UNL     1       7.123  -5.464  26.188  0.00  0.00    +0.067 C 
BRANCH  38  46
ATOM     39  C   UNL     1       3.053  -7.501  25.201  0.00  0.00    +0.121 A 
ATOM     40  C   UNL     1       1.989  -6.767  25.731  0.00  0.00    +0.047 A 
ATOM     41  C   UNL     1       2.188  -5.766  26.691  0.00  0.00    +0.030 A 
ATOM     42  C   UNL     1       3.507  -5.461  27.029  0.00  0.00    +0.047 A 
ATOM     43  N   UNL     1       4.013  -4.544  27.921  0.00  0.00    -0.360 N 
ATOM     44  H   UNL     1       3.454  -3.972  28.540  0.00  0.00    +0.165 HD
ATOM     45  C   UNL     1       5.372  -4.461  27.784  0.00  0.00    +0.087 A 
ATOM     46  C   UNL     1       5.758  -5.353  26.800  0.00  0.00    -0.020 A 
ATOM     47  C   UNL     1       4.594  -6.095  26.434  0.00  0.00    +0.006 A 
ATOM     48  C   UNL     1       4.363  -7.184  25.568  0.00  0.00    +0.056 A 
BRANCH  39  49
ATOM     49  O   UNL     1       2.699  -8.434  24.264  0.00  0.00    -0.492 OA
BRANCH  49  50
ATOM     50  C   UNL     1       1.342  -8.430  23.816  0.00  0.00    +0.229 C 
BRANCH  50  52
ATOM     51  C   UNL     1       0.513  -6.725  22.143  0.00  0.00    +0.007 C 
ATOM     52  C   UNL     1       1.311  -8.007  22.346  0.00  0.00    +0.038 C 
ENDBRANCH  50  52
ENDBRANCH  49  50
ENDBRANCH  39  49
ENDBRANCH  38  46
ENDBRANCH  30  38
ENDBRANCH   1  30
TORSDOF 17
ENDMDL
MODEL 4
REMARK VINA RESULT:      -7.0      2.575      8.332
REMARK  Name = 
REMARK  19 active torsions:
REMARK  status: ('A' for Active; 'I' for Inactive)
REMARK    1  A    between atoms: C_1  and  C_2
REMARK    2  A    between atoms: C_2  and  C_3
REMARK    3  A    between atoms: C_3  and  O_4
REMARK    4  A    between atoms: O_4  and  C_5
REMARK    5  A    between atoms: C_11  and  C_12
REMARK    6  A    between atoms: C_12  and  C_13
REMARK    7  A    between atoms: C_13  and  N_15
REMARK    8  A    between atoms: C_13  and  C_21
REMARK    9  A    between atoms: N_15  and  S_16
REMARK   10  A    between atoms: S_16  and  C_19
REMARK   11  A    between atoms: C_19  and  C_20
REMARK   12  A    between atoms: N_23  and  C_24
REMARK   13  A    between atoms: C_24  and  C_26
REMARK   14  A    between atoms: C_24  and  C_31
REMARK   15  A    between atoms: C_26  and  C_27
REMARK   16  A    between atoms: C_27  and  C_28
REMARK   17  A    between atoms: N_33  and  C_34
REMARK   18  A    between atoms: C_34  and  C_35
REMARK   19  A    between atoms: C_38  and  C_41
REMARK                            x       y       z     vdW  Elec       q    Type
REMARK                         _______ _______ _______ _____ _____    ______ ____
ROOT
ATOM      1  C   UNL     1       8.152  -4.790  24.838  0.00  0.00    +0.233 C 
ATOM      2  N   UNL     1       8.133  -3.421  24.609  0.00  0.00    -0.303 N 
ATOM      3  H   UNL     1       7.336  -2.865  24.908  0.00  0.00    +0.149 HD
ATOM      4  O   UNL     1       9.063  -5.499  24.415  0.00  0.00    -0.274 OA
ENDROOT
BRANCH   2   5
ATOM      5  C   UNL     1       9.105  -2.734  23.741  0.00  0.00    +0.159 C 
BRANCH   5   6
ATOM      6  C   UNL     1       9.539  -1.439  24.481  0.00  0.00    +0.234 C 
ATOM      7  N   UNL     1      10.247  -0.531  23.724  0.00  0.00    -0.310 N 
ATOM      8  H   UNL     1      10.494  -0.756  22.769  0.00  0.00    +0.149 HD
ATOM      9  O   UNL     1       9.234  -1.244  25.657  0.00  0.00    -0.274 OA
BRANCH   7  10
ATOM     10  C   UNL     1      10.623   0.783  24.211  0.00  0.00    +0.139 C 
BRANCH  10  11
ATOM     11  C   UNL     1       9.729   1.863  23.651  0.00  0.00    -0.030 A 
ATOM     12  C   UNL     1       9.012   1.647  22.465  0.00  0.00    +0.006 A 
ATOM     13  C   UNL     1       8.156   2.629  21.958  0.00  0.00    +0.016 A 
ATOM     14  C   UNL     1       7.997   3.841  22.638  0.00  0.00    +0.065 A 
ATOM     15  C   UNL     1       8.728   4.076  23.809  0.00  0.00    +0.016 A 
ATOM     16  C   UNL     1       9.583   3.088  24.314  0.00  0.00    +0.006 A 
BRANCH  14  17
ATOM     17  C   UNL     1       7.040   4.860  22.112  0.00  0.00    +0.308 C 
ATOM     18  N   UNL     1       5.755   4.712  22.171  0.00  0.00    -0.099 NA
ATOM     19  H   UNL     1       5.494   3.805  22.568  0.00  0.00    +0.363 HD
ATOM     20  N   UNL     1       7.486   6.012  21.534  0.00  0.00    -0.247 N 
ATOM     21  H   UNL     1       6.721   6.669  21.418  0.00  0.00    +0.288 HD
ATOM     22  H   UNL     1       8.297   6.438  21.962  0.00  0.00    +0.288 HD
ENDBRANCH  14  17
ENDBRANCH  10  11
ENDBRANCH   7  10
ENDBRANCH   5   6
BRANCH   5  23
ATOM     23  C   UNL     1       8.498  -2.420  22.357  0.00  0.00    +0.041 C 
BRANCH  23  24
ATOM     24  C   UNL     1       6.979  -2.237  22.371  0.00  0.00    +0.098 C 
BRANCH  24  25
ATOM     25  C   UNL     1       6.177  -3.476  22.024  0.00  0.00    +0.211 C 
ATOM     26  O   UNL     1       4.953  -3.506  22.126  0.00  0.00    -0.276 OA
ATOM     27  N   UNL     1       6.849  -4.536  21.507  0.00  0.00    -0.329 N 
ATOM     28  H   UNL     1       6.308  -5.349  21.240  0.00  0.00    +0.145 HD
ATOM     29  H   UNL     1       7.847  -4.566  21.346  0.00  0.00    +0.145 HD
ENDBRANCH  24  25
ENDBRANCH  23  24
ENDBRANCH   5  23
ENDBRANCH   2   5
BRANCH   1  30
ATOM     30  C   UNL     1       6.995  -5.309  25.731  0.00  0.00    +0.166 C 
BRANCH  30  31
ATOM     31  N   UNL     1       5.693  -4.913  25.035  0.00  0.00    -0.182 NA
ATOM     32  H   UNL     1       5.904  -4.284  24.256  0.00  0.00    +0.148 HD
BRANCH  31  33
ATOM     33  S   UNL     1       4.773  -6.240  24.544  0.00  0.00    +0.030 S 
ATOM     34  O   UNL     1       4.729  -7.171  25.644  0.00  0.00    -0.158 OA
ATOM     35  O   UNL     1       5.295  -6.618  23.252  0.00  0.00    -0.158 OA
BRANCH  33  36
ATOM     36  C   UNL     1       3.106  -5.618  24.317  0.00  0.00    +0.181 C 
ATOM     37  C   UNL     1       3.018  -4.255  24.994  0.00  0.00    +0.029 C 
ENDBRANCH  33  36
ENDBRANCH  31  33
ENDBRANCH  30  31
BRANCH  30  38
ATOM     38  C   UNL     1       7.112  -4.780  27.181  0.00  0.00    +0.067 C 
BRANCH  38  46
ATOM     39  C   UNL     1       5.025  -0.622  27.387  0.00  0.00    +0.121 A 
ATOM     40  C   UNL     1       4.027  -0.615  28.364  0.00  0.00    +0.047 A 
ATOM     41  C   UNL     1       3.539  -1.800  28.930  0.00  0.00    +0.030 A 
ATOM     42  C   UNL     1       4.160  -2.991  28.549  0.00  0.00    +0.047 A 
ATOM     43  N   UNL     1       3.911  -4.290  28.925  0.00  0.00    -0.360 N 
ATOM     44  H   UNL     1       3.150  -4.582  29.523  0.00  0.00    +0.165 HD
ATOM     45  C   UNL     1       4.894  -5.111  28.443  0.00  0.00    +0.087 A 
ATOM     46  C   UNL     1       5.786  -4.335  27.725  0.00  0.00    -0.020 A 
ATOM     47  C   UNL     1       5.235  -3.020  27.664  0.00  0.00    +0.006 A 
ATOM     48  C   UNL     1       5.620  -1.828  27.014  0.00  0.00    +0.056 A 
BRANCH  39  49
ATOM     49  O   UNL     1       5.404   0.617  26.942  0.00  0.00    -0.492 OA
BRANCH  49  50
ATOM     50  C   UNL     1       6.641   0.708  26.234  0.00  0.00    +0.229 C 
BRANCH  50  52
ATOM     51  C   UNL     1       5.276   1.907  24.475  0.00  0.00    +0.007 C 
ATOM     52  C   UNL     1       6.343   0.852  24.741  0.00  0.00    +0.038 C 
ENDBRANCH  50  52
ENDBRANCH  49  50
ENDBRANCH  39  49
ENDBRANCH  38  46
ENDBRANCH  30  38
ENDBRANCH   1  30
TORSDOF 17
ENDMDL
MODEL 5
REMARK VINA RESULT:      -7.0      2.416      7.076
REMARK  Name = 
REMARK  19 active torsions:
REMARK  status: ('A' for Active; 'I' for Inactive)
REMARK    1  A    between atoms: C_1  and  C_2
REMARK    2  A    between atoms: C_2  and  C_3
REMARK    3  A    between atoms: C_3  and  O_4
REMARK    4  A    between atoms: O_4  and  C_5
REMARK    5  A    between atoms: C_11  and  C_12
REMARK    6  A    between atoms: C_12  and  C_13
REMARK    7  A    between atoms: C_13  and  N_15
REMARK    8  A    between atoms: C_13  and  C_21
REMARK    9  A    between atoms: N_15  and  S_16
REMARK   10  A    between atoms: S_16  and  C_19
REMARK   11  A    between atoms: C_19  and  C_20
REMARK   12  A    between atoms: N_23  and  C_24
REMARK   13  A    between atoms: C_24  and  C_26
REMARK   14  A    between atoms: C_24  and  C_31
REMARK   15  A    between atoms: C_26  and  C_27
REMARK   16  A    between atoms: C_27  and  C_28
REMARK   17  A    between atoms: N_33  and  C_34
REMARK   18  A    between atoms: C_34  and  C_35
REMARK   19  A    between atoms: C_38  and  C_41
REMARK                            x       y       z     vdW  Elec       q    Type
REMARK                         _______ _______ _______ _____ _____    ______ ____
ROOT
ATOM      1  C   UNL     1       7.204   0.248  24.833  0.00  0.00    +0.233 C 
ATOM      2  N   UNL     1       8.353   0.601  24.140  0.00  0.00    -0.303 N 
ATOM      3  H   UNL     1       9.163   0.958  24.642  0.00  0.00    +0.149 HD
ATOM      4  O   UNL     1       6.184  -0.108  24.246  0.00  0.00    -0.274 OA
ENDROOT
BRANCH   2   5
ATOM      5  C   UNL     1       8.408   0.713  22.672  0.00  0.00    +0.159 C 
BRANCH   5   6
ATOM      6  C   UNL     1       8.768  -0.695  22.122  0.00  0.00    +0.234 C 
ATOM      7  N   UNL     1       7.830  -1.679  22.348  0.00  0.00    -0.310 N 
ATOM      8  H   UNL     1       7.000  -1.469  22.887  0.00  0.00    +0.149 HD
ATOM      9  O   UNL     1       9.814  -0.890  21.503  0.00  0.00    -0.274 OA
BRANCH   7  10
ATOM     10  C   UNL     1       7.940  -3.018  21.798  0.00  0.00    +0.139 C 
BRANCH  10  11
ATOM     11  C   UNL     1       6.795  -3.898  22.239  0.00  0.00    -0.030 A 
ATOM     12  C   UNL     1       5.660  -3.337  22.843  0.00  0.00    +0.006 A 
ATOM     13  C   UNL     1       4.581  -4.141  23.223  0.00  0.00    +0.016 A 
ATOM     14  C   UNL     1       4.619  -5.520  22.994  0.00  0.00    +0.065 A 
ATOM     15  C   UNL     1       5.758  -6.093  22.415  0.00  0.00    +0.016 A 
ATOM     16  C   UNL     1       6.836  -5.282  22.034  0.00  0.00    +0.006 A 
BRANCH  14  17
ATOM     17  C   UNL     1       3.438  -6.360  23.357  0.00  0.00    +0.308 C 
ATOM     18  N   UNL     1       3.548  -7.517  23.928  0.00  0.00    -0.099 NA
ATOM     19  H   UNL     1       4.526  -7.792  24.045  0.00  0.00    +0.363 HD
ATOM     20  N   UNL     1       2.168  -5.937  23.096  0.00  0.00    -0.247 N 
ATOM     21  H   UNL     1       1.494  -6.522  23.579  0.00  0.00    +0.288 HD
ATOM     22  H   UNL     1       1.990  -4.951  23.236  0.00  0.00    +0.288 HD
ENDBRANCH  14  17
ENDBRANCH  10  11
ENDBRANCH   7  10
ENDBRANCH   5   6
BRANCH   5  23
ATOM     23  C   UNL     1       9.438   1.774  22.228  0.00  0.00    +0.041 C 
BRANCH  23  24
ATOM     24  C   UNL     1      10.173   2.451  23.387  0.00  0.00    +0.098 C 
BRANCH  24  25
ATOM     25  C   UNL     1       9.541   3.733  23.890  0.00  0.00    +0.211 C 
ATOM     26  O   UNL     1       8.702   3.735  24.787  0.00  0.00    -0.276 OA
ATOM     27  N   UNL     1       9.999   4.904  23.376  0.00  0.00    -0.329 N 
ATOM     28  H   UNL     1       9.603   5.762  23.740  0.00  0.00    +0.145 HD
ATOM     29  H   UNL     1      10.723   4.984  22.674  0.00  0.00    +0.145 HD
ENDBRANCH  24  25
ENDBRANCH  23  24
ENDBRANCH   5  23
ENDBRANCH   2   5
BRANCH   1  30
ATOM     30  C   UNL     1       7.355   0.257  26.376  0.00  0.00    +0.166 C 
BRANCH  30  31
ATOM     31  N   UNL     1       7.569   1.713  26.787  0.00  0.00    -0.182 NA
ATOM     32  H   UNL     1       7.794   2.269  25.958  0.00  0.00    +0.148 HD
BRANCH  31  33
ATOM     33  S   UNL     1       6.268   2.359  27.646  0.00  0.00    +0.030 S 
ATOM     34  O   UNL     1       5.065   2.053  26.910  0.00  0.00    -0.158 OA
ATOM     35  O   UNL     1       6.642   3.718  27.956  0.00  0.00    -0.158 OA
BRANCH  33  36
ATOM     36  C   UNL     1       6.191   1.432  29.180  0.00  0.00    +0.181 C 
ATOM     37  C   UNL     1       7.568   1.491  29.831  0.00  0.00    +0.029 C 
ENDBRANCH  33  36
ENDBRANCH  31  33
ENDBRANCH  30  31
BRANCH  30  38
ATOM     38  C   UNL     1       8.483  -0.695  26.845  0.00  0.00    +0.067 C 
BRANCH  38  46
ATOM     39  C   UNL     1       5.410  -4.194  26.873  0.00  0.00    +0.121 A 
ATOM     40  C   UNL     1       5.999  -5.376  26.417  0.00  0.00    +0.047 A 
ATOM     41  C   UNL     1       7.229  -5.377  25.746  0.00  0.00    +0.030 A 
ATOM     42  C   UNL     1       7.896  -4.156  25.636  0.00  0.00    +0.047 A 
ATOM     43  N   UNL     1       9.097  -3.843  25.044  0.00  0.00    -0.360 N 
ATOM     44  H   UNL     1       9.669  -4.491  24.520  0.00  0.00    +0.165 HD
ATOM     45  C   UNL     1       9.442  -2.553  25.346  0.00  0.00    +0.087 A 
ATOM     46  C   UNL     1       8.439  -2.013  26.129  0.00  0.00    -0.020 A 
ATOM     47  C   UNL     1       7.389  -2.979  26.181  0.00  0.00    +0.006 A 
ATOM     48  C   UNL     1       6.092  -2.984  26.737  0.00  0.00    +0.056 A 
BRANCH  39  49
ATOM     49  O   UNL     1       4.215  -4.359  27.521  0.00  0.00    -0.492 OA
BRANCH  49  50
ATOM     50  C   UNL     1       3.348  -5.389  27.043  0.00  0.00    +0.229 C 
BRANCH  50  52
ATOM     51  C   UNL     1       2.168  -3.480  25.879  0.00  0.00    +0.007 C 
ATOM     52  C   UNL     1       2.000  -4.767  26.678  0.00  0.00    +0.038 C 
ENDBRANCH  50  52
ENDBRANCH  49  50
ENDBRANCH  39  49
ENDBRANCH  38  46
ENDBRANCH  30  38
ENDBRANCH   1  30
TORSDOF 17
ENDMDL
MODEL 6
REMARK VINA RESULT:      -6.9      2.435      4.780
REMARK  Name = 
REMARK  19 active torsions:
REMARK  status: ('A' for Active; 'I' for Inactive)
REMARK    1  A    between atoms: C_1  and  C_2
REMARK    2  A    between atoms: C_2  and  C_3
REMARK    3  A    between atoms: C_3  and  O_4
REMARK    4  A    between atoms: O_4  and  C_5
REMARK    5  A    between atoms: C_11  and  C_12
REMARK    6  A    between atoms: C_12  and  C_13
REMARK    7  A    between atoms: C_13  and  N_15
REMARK    8  A    between atoms: C_13  and  C_21
REMARK    9  A    between atoms: N_15  and  S_16
REMARK   10  A    between atoms: S_16  and  C_19
REMARK   11  A    between atoms: C_19  and  C_20
REMARK   12  A    between atoms: N_23  and  C_24
REMARK   13  A    between atoms: C_24  and  C_26
REMARK   14  A    between atoms: C_24  and  C_31
REMARK   15  A    between atoms: C_26  and  C_27
REMARK   16  A    between atoms: C_27  and  C_28
REMARK   17  A    between atoms: N_33  and  C_34
REMARK   18  A    between atoms: C_34  and  C_35
REMARK   19  A    between atoms: C_38  and  C_41
REMARK                            x       y       z     vdW  Elec       q    Type
REMARK                         _______ _______ _______ _____ _____    ______ ____
ROOT
ATOM      1  C   UNL     1       7.071   0.434  23.688  0.00  0.00    +0.233 C 
ATOM      2  N   UNL     1       8.219  -0.011  24.329  0.00  0.00    -0.303 N 
ATOM      3  H   UNL     1       8.410   0.271  25.287  0.00  0.00    +0.149 HD
ATOM      4  O   UNL     1       6.856   0.177  22.505  0.00  0.00    -0.274 OA
ENDROOT
BRANCH   2   5
ATOM      5  C   UNL     1       9.320  -0.695  23.629  0.00  0.00    +0.159 C 
BRANCH   5   6
ATOM      6  C   UNL     1       9.462  -2.102  24.272  0.00  0.00    +0.234 C 
ATOM      7  N   UNL     1       8.577  -2.383  25.290  0.00  0.00    -0.310 N 
ATOM      8  H   UNL     1       7.929  -1.672  25.603  0.00  0.00    +0.149 HD
ATOM      9  O   UNL     1      10.299  -2.908  23.865  0.00  0.00    -0.274 OA
BRANCH   7  10
ATOM     10  C   UNL     1       8.482  -3.688  25.918  0.00  0.00    +0.139 C 
BRANCH  10  11
ATOM     11  C   UNL     1       7.286  -4.462  25.418  0.00  0.00    -0.030 A 
ATOM     12  C   UNL     1       6.913  -4.399  24.067  0.00  0.00    +0.006 A 
ATOM     13  C   UNL     1       5.827  -5.139  23.590  0.00  0.00    +0.016 A 
ATOM     14  C   UNL     1       5.104  -5.963  24.458  0.00  0.00    +0.065 A 
ATOM     15  C   UNL     1       5.452  -6.014  25.813  0.00  0.00    +0.016 A 
ATOM     16  C   UNL     1       6.542  -5.271  26.286  0.00  0.00    +0.006 A 
BRANCH  14  17
ATOM     17  C   UNL     1       3.979  -6.788  23.923  0.00  0.00    +0.308 C 
ATOM     18  N   UNL     1       3.635  -7.925  24.440  0.00  0.00    -0.099 NA
ATOM     19  H   UNL     1       4.253  -8.195  25.209  0.00  0.00    +0.363 HD
ATOM     20  N   UNL     1       3.255  -6.374  22.844  0.00  0.00    -0.247 N 
ATOM     21  H   UNL     1       2.419  -6.942  22.740  0.00  0.00    +0.288 HD
ATOM     22  H   UNL     1       3.054  -5.385  22.797  0.00  0.00    +0.288 HD
ENDBRANCH  14  17
ENDBRANCH  10  11
ENDBRANCH   7  10
ENDBRANCH   5   6
BRANCH   5  23
ATOM     23  C   UNL     1      10.634   0.110  23.731  0.00  0.00    +0.041 C 
BRANCH  23  24
ATOM     24  C   UNL     1      10.447   1.550  24.208  0.00  0.00    +0.098 C 
BRANCH  24  25
ATOM     25  C   UNL     1      10.576   2.609  23.130  0.00  0.00    +0.211 C 
ATOM     26  O   UNL     1      11.045   3.719  23.363  0.00  0.00    -0.276 OA
ATOM     27  N   UNL     1      10.236   2.259  21.862  0.00  0.00    -0.329 N 
ATOM     28  H   UNL     1      10.359   2.955  21.136  0.00  0.00    +0.145 HD
ATOM     29  H   UNL     1       9.893   1.349  21.585  0.00  0.00    +0.145 HD
ENDBRANCH  24  25
ENDBRANCH  23  24
ENDBRANCH   5  23
ENDBRANCH   2   5
BRANCH   1  30
ATOM     30  C   UNL     1       6.073   1.186  24.605  0.00  0.00    +0.166 C 
BRANCH  30  31
ATOM     31  N   UNL     1       5.041   0.157  25.068  0.00  0.00    -0.182 NA
ATOM     32  H   UNL     1       5.099  -0.671  24.470  0.00  0.00    +0.148 HD
BRANCH  31  33
ATOM     33  S   UNL     1       5.180  -0.234  26.703  0.00  0.00    +0.030 S 
ATOM     34  O   UNL     1       4.936   0.969  27.461  0.00  0.00    -0.158 OA
ATOM     35  O   UNL     1       6.418  -0.967  26.824  0.00  0.00    -0.158 OA
BRANCH  33  36
ATOM     36  C   UNL     1       3.825  -1.356  27.052  0.00  0.00    +0.181 C 
ATOM     37  C   UNL     1       3.989  -2.579  26.157  0.00  0.00    +0.029 C 
ENDBRANCH  33  36
ENDBRANCH  31  33
ENDBRANCH  30  31
BRANCH  30  38
ATOM     38  C   UNL     1       5.453   2.412  23.892  0.00  0.00    +0.067 C 
BRANCH  38  46
ATOM     39  C   UNL     1       8.191   5.474  26.086  0.00  0.00    +0.121 A 
ATOM     40  C   UNL     1       8.670   6.438  25.197  0.00  0.00    +0.047 A 
ATOM     41  C   UNL     1       8.586   6.270  23.809  0.00  0.00    +0.030 A 
ATOM     42  C   UNL     1       7.913   5.138  23.344  0.00  0.00    +0.047 A 
ATOM     43  N   UNL     1       7.670   4.706  22.061  0.00  0.00    -0.360 N 
ATOM     44  H   UNL     1       8.026   5.150  21.226  0.00  0.00    +0.165 HD
ATOM     45  C   UNL     1       6.809   3.643  22.084  0.00  0.00    +0.087 A 
ATOM     46  C   UNL     1       6.502   3.368  23.404  0.00  0.00    -0.020 A 
ATOM     47  C   UNL     1       7.324   4.216  24.205  0.00  0.00    +0.006 A 
ATOM     48  C   UNL     1       7.534   4.344  25.594  0.00  0.00    +0.056 A 
BRANCH  39  49
ATOM     49  O   UNL     1       8.334   5.790  27.411  0.00  0.00    -0.492 OA
BRANCH  49  50
ATOM     50  C   UNL     1       7.568   6.889  27.908  0.00  0.00    +0.229 C 
BRANCH  50  52
ATOM     51  C   UNL     1       6.931   5.054  29.527  0.00  0.00    +0.007 C 
ATOM     52  C   UNL     1       7.092   6.556  29.323  0.00  0.00    +0.038 C 
ENDBRANCH  50  52
ENDBRANCH  49  50
ENDBRANCH  39  49
ENDBRANCH  38  46
ENDBRANCH  30  38
ENDBRANCH   1  30
TORSDOF 17
ENDMDL
MODEL 7
REMARK VINA RESULT:      -6.9      2.793      8.321
REMARK  Name = 
REMARK  19 active torsions:
REMARK  status: ('A' for Active; 'I' for Inactive)
REMARK    1  A    between atoms: C_1  and  C_2
REMARK    2  A    between atoms: C_2  and  C_3
REMARK    3  A    between atoms: C_3  and  O_4
REMARK    4  A    between atoms: O_4  and  C_5
REMARK    5  A    between atoms: C_11  and  C_12
REMARK    6  A    between atoms: C_12  and  C_13
REMARK    7  A    between atoms: C_13  and  N_15
REMARK    8  A    between atoms: C_13  and  C_21
REMARK    9  A    between atoms: N_15  and  S_16
REMARK   10  A    between atoms: S_16  and  C_19
REMARK   11  A    between atoms: C_19  and  C_20
REMARK   12  A    between atoms: N_23  and  C_24
REMARK   13  A    between atoms: C_24  and  C_26
REMARK   14  A    between atoms: C_24  and  C_31
REMARK   15  A    between atoms: C_26  and  C_27
REMARK   16  A    between atoms: C_27  and  C_28
REMARK   17  A    between atoms: N_33  and  C_34
REMARK   18  A    between atoms: C_34  and  C_35
REMARK   19  A    between atoms: C_38  and  C_41
REMARK                            x       y       z     vdW  Elec       q    Type
REMARK                         _______ _______ _______ _____ _____    ______ ____
ROOT
ATOM      1  C   UNL     1       6.911  -5.205  25.764  0.00  0.00    +0.233 C 
ATOM      2  N   UNL     1       6.915  -4.190  24.816  0.00  0.00    -0.303 N 
ATOM      3  H   UNL     1       6.043  -3.742  24.545  0.00  0.00    +0.149 HD
ATOM      4  O   UNL     1       7.936  -5.820  26.050  0.00  0.00    -0.274 OA
ENDROOT
BRANCH   2   5
ATOM      5  C   UNL     1       8.089  -3.864  23.989  0.00  0.00    +0.159 C 
BRANCH   5   6
ATOM      6  C   UNL     1       8.756  -2.612  24.621  0.00  0.00    +0.234 C 
ATOM      7  N   UNL     1       9.553  -1.872  23.776  0.00  0.00    -0.310 N 
ATOM      8  H   UNL     1       9.709  -2.187  22.827  0.00  0.00    +0.149 HD
ATOM      9  O   UNL     1       8.551  -2.304  25.795  0.00  0.00    -0.274 OA
BRANCH   7  10
ATOM     10  C   UNL     1      10.153  -0.606  24.158  0.00  0.00    +0.139 C 
BRANCH  10  11
ATOM     11  C   UNL     1       9.372   0.567  23.617  0.00  0.00    -0.030 A 
ATOM     12  C   UNL     1       8.553   0.416  22.489  0.00  0.00    +0.006 A 
ATOM     13  C   UNL     1       7.802   1.490  22.002  0.00  0.00    +0.016 A 
ATOM     14  C   UNL     1       7.851   2.731  22.646  0.00  0.00    +0.065 A 
ATOM     15  C   UNL     1       8.685   2.899  23.758  0.00  0.00    +0.016 A 
ATOM     16  C   UNL     1       9.436   1.819  24.243  0.00  0.00    +0.006 A 
BRANCH  14  17
ATOM     17  C   UNL     1       7.003   3.854  22.146  0.00  0.00    +0.308 C 
ATOM     18  N   UNL     1       7.489   5.009  21.818  0.00  0.00    -0.099 NA
ATOM     19  H   UNL     1       8.496   5.061  21.991  0.00  0.00    +0.363 HD
ATOM     20  N   UNL     1       5.653   3.711  22.015  0.00  0.00    -0.247 N 
ATOM     21  H   UNL     1       5.265   4.485  21.484  0.00  0.00    +0.288 HD
ATOM     22  H   UNL     1       5.332   2.814  21.676  0.00  0.00    +0.288 HD
ENDBRANCH  14  17
ENDBRANCH  10  11
ENDBRANCH   7  10
ENDBRANCH   5   6
BRANCH   5  23
ATOM     23  C   UNL     1       7.686  -3.610  22.520  0.00  0.00    +0.041 C 
BRANCH  23  24
ATOM     24  C   UNL     1       6.245  -4.002  22.193  0.00  0.00    +0.098 C 
BRANCH  24  25
ATOM     25  C   UNL     1       6.088  -5.294  21.415  0.00  0.00    +0.211 C 
ATOM     26  O   UNL     1       5.971  -5.306  20.193  0.00  0.00    -0.276 OA
ATOM     27  N   UNL     1       6.172  -6.459  22.108  0.00  0.00    -0.329 N 
ATOM     28  H   UNL     1       6.106  -7.322  21.583  0.00  0.00    +0.145 HD
ATOM     29  H   UNL     1       6.320  -6.529  23.106  0.00  0.00    +0.145 HD
ENDBRANCH  24  25
ENDBRANCH  23  24
ENDBRANCH   5  23
ENDBRANCH   2   5
BRANCH   1  30
ATOM     30  C   UNL     1       5.548  -5.418  26.472  0.00  0.00    +0.166 C 
BRANCH  30  31
ATOM     31  N   UNL     1       5.608  -6.796  27.133  0.00  0.00    -0.182 NA
ATOM     32  H   UNL     1       6.471  -7.268  26.851  0.00  0.00    +0.148 HD
BRANCH  31  33
ATOM     33  S   UNL     1       5.439  -6.735  28.811  0.00  0.00    +0.030 S 
ATOM     34  O   UNL     1       6.648  -7.265  29.390  0.00  0.00    -0.158 OA
ATOM     35  O   UNL     1       4.146  -7.313  29.092  0.00  0.00    -0.158 OA
BRANCH  33  36
ATOM     36  C   UNL     1       5.379  -4.992  29.230  0.00  0.00    +0.181 C 
ATOM     37  C   UNL     1       4.059  -4.728  29.946  0.00  0.00    +0.029 C 
ENDBRANCH  33  36
ENDBRANCH  31  33
ENDBRANCH  30  31
BRANCH  30  38
ATOM     38  C   UNL     1       4.362  -5.249  25.492  0.00  0.00    +0.067 C 
BRANCH  38  46
ATOM     39  C   UNL     1       3.673  -0.930  27.092  0.00  0.00    +0.121 A 
ATOM     40  C   UNL     1       2.613  -0.901  28.002  0.00  0.00    +0.047 A 
ATOM     41  C   UNL     1       1.713  -1.968  28.122  0.00  0.00    +0.030 A 
ATOM     42  C   UNL     1       1.973  -3.109  27.362  0.00  0.00    +0.047 A 
ATOM     43  N   UNL     1       1.285  -4.296  27.267  0.00  0.00    -0.360 N 
ATOM     44  H   UNL     1       0.403  -4.490  27.721  0.00  0.00    +0.165 HD
ATOM     45  C   UNL     1       2.014  -5.200  26.542  0.00  0.00    +0.087 A 
ATOM     46  C   UNL     1       3.185  -4.583  26.143  0.00  0.00    -0.020 A 
ATOM     47  C   UNL     1       3.086  -3.213  26.531  0.00  0.00    +0.006 A 
ATOM     48  C   UNL     1       3.902  -2.080  26.333  0.00  0.00    +0.056 A 
BRANCH  39  49
ATOM     49  O   UNL     1       4.472   0.182  27.103  0.00  0.00    -0.492 OA
BRANCH  49  50
ATOM     50  C   UNL     1       5.858  -0.005  26.813  0.00  0.00    +0.229 C 
BRANCH  50  52
ATOM     51  C   UNL     1       5.210   1.683  25.046  0.00  0.00    +0.007 C 
ATOM     52  C   UNL     1       6.146   0.537  25.412  0.00  0.00    +0.038 C 
ENDBRANCH  50  52
ENDBRANCH  49  50
ENDBRANCH  39  49
ENDBRANCH  38  46
ENDBRANCH  30  38
ENDBRANCH   1  30
TORSDOF 17
ENDMDL
MODEL 8
REMARK VINA RESULT:      -6.8      3.012      9.468
REMARK  Name = 
REMARK  19 active torsions:
REMARK  status: ('A' for Active; 'I' for Inactive)
REMARK    1  A    between atoms: C_1  and  C_2
REMARK    2  A    between atoms: C_2  and  C_3
REMARK    3  A    between atoms: C_3  and  O_4
REMARK    4  A    between atoms: O_4  and  C_5
REMARK    5  A    between atoms: C_11  and  C_12
REMARK    6  A    between atoms: C_12  and  C_13
REMARK    7  A    between atoms: C_13  and  N_15
REMARK    8  A    between atoms: C_13  and  C_21
REMARK    9  A    between atoms: N_15  and  S_16
REMARK   10  A    between atoms: S_16  and  C_19
REMARK   11  A    between atoms: C_19  and  C_20
REMARK   12  A    between atoms: N_23  and  C_24
REMARK   13  A    between atoms: C_24  and  C_26
REMARK   14  A    between atoms: C_24  and  C_31
REMARK   15  A    between atoms: C_26  and  C_27
REMARK   16  A    between atoms: C_27  and  C_28
REMARK   17  A    between atoms: N_33  and  C_34
REMARK   18  A    between atoms: C_34  and  C_35
REMARK   19  A    between atoms: C_38  and  C_41
REMARK                            x       y       z     vdW  Elec       q    Type
REMARK                         _______ _______ _______ _____ _____    ______ ____
ROOT
ATOM      1  C   UNL     1       4.772  -0.987  26.024  0.00  0.00    +0.233 C 
ATOM      2  N   UNL     1       5.846  -0.147  25.766  0.00  0.00    -0.303 N 
ATOM      3  H   UNL     1       6.777  -0.535  25.631  0.00  0.00    +0.149 HD
ATOM      4  O   UNL     1       3.654  -0.542  26.273  0.00  0.00    -0.274 OA
ENDROOT
BRANCH   2   5
ATOM      5  C   UNL     1       5.776   1.318  25.901  0.00  0.00    +0.159 C 
BRANCH   5   6
ATOM      6  C   UNL     1       6.124   1.920  24.512  0.00  0.00    +0.234 C 
ATOM      7  N   UNL     1       6.408   3.268  24.503  0.00  0.00    -0.310 N 
ATOM      8  H   UNL     1       6.331   3.804  25.357  0.00  0.00    +0.149 HD
ATOM      9  O   UNL     1       6.166   1.215  23.504  0.00  0.00    -0.274 OA
BRANCH   7  10
ATOM     10  C   UNL     1       6.875   3.970  23.321  0.00  0.00    +0.139 C 
BRANCH  10  11
ATOM     11  C   UNL     1       8.295   4.456  23.485  0.00  0.00    -0.030 A 
ATOM     12  C   UNL     1       9.355   3.540  23.553  0.00  0.00    +0.006 A 
ATOM     13  C   UNL     1      10.676   3.983  23.671  0.00  0.00    +0.016 A 
ATOM     14  C   UNL     1      10.956   5.352  23.711  0.00  0.00    +0.065 A 
ATOM     15  C   UNL     1       9.903   6.274  23.669  0.00  0.00    +0.016 A 
ATOM     16  C   UNL     1       8.580   5.825  23.550  0.00  0.00    +0.006 A 
BRANCH  14  17
ATOM     17  C   UNL     1      12.376   5.812  23.784  0.00  0.00    +0.308 C 
ATOM     18  N   UNL     1      12.815   6.589  24.723  0.00  0.00    -0.099 NA
ATOM     19  H   UNL     1      12.067   6.877  25.359  0.00  0.00    +0.363 HD
ATOM     20  N   UNL     1      13.288   5.428  22.845  0.00  0.00    -0.247 N 
ATOM     21  H   UNL     1      14.228   5.660  23.150  0.00  0.00    +0.288 HD
ATOM     22  H   UNL     1      13.214   4.475  22.518  0.00  0.00    +0.288 HD
ENDBRANCH  14  17
ENDBRANCH  10  11
ENDBRANCH   7  10
ENDBRANCH   5   6
BRANCH   5  23
ATOM     23  C   UNL     1       6.738   1.827  26.996  0.00  0.00    +0.041 C 
BRANCH  23  24
ATOM     24  C   UNL     1       6.589   1.110  28.339  0.00  0.00    +0.098 C 
BRANCH  24  25
ATOM     25  C   UNL     1       7.312   1.760  29.502  0.00  0.00    +0.211 C 
ATOM     26  O   UNL     1       6.865   2.754  30.070  0.00  0.00    -0.276 OA
ATOM     27  N   UNL     1       8.436   1.154  29.962  0.00  0.00    -0.329 N 
ATOM     28  H   UNL     1       8.897   1.568  30.763  0.00  0.00    +0.145 HD
ATOM     29  H   UNL     1       8.834   0.306  29.580  0.00  0.00    +0.145 HD
ENDBRANCH  24  25
ENDBRANCH  23  24
ENDBRANCH   5  23
ENDBRANCH   2   5
BRANCH   1  30
ATOM     30  C   UNL     1       5.089  -2.499  25.882  0.00  0.00    +0.166 C 
BRANCH  30  31
ATOM     31  N   UNL     1       3.912  -3.125  25.133  0.00  0.00    -0.182 NA
ATOM     32  H   UNL     1       3.298  -2.383  24.789  0.00  0.00    +0.148 HD
BRANCH  31  33
ATOM     33  S   UNL     1       4.392  -4.171  23.899  0.00  0.00    +0.030 S 
ATOM     34  O   UNL     1       3.233  -4.447  23.086  0.00  0.00    -0.158 OA
ATOM     35  O   UNL     1       5.130  -5.227  24.551  0.00  0.00    -0.158 OA
BRANCH  33  36
ATOM     36  C   UNL     1       5.533  -3.232  22.883  0.00  0.00    +0.181 C 
ATOM     37  C   UNL     1       6.677  -4.158  22.486  0.00  0.00    +0.029 C 
ENDBRANCH  33  36
ENDBRANCH  31  33
ENDBRANCH  30  31
BRANCH  30  38
ATOM     38  C   UNL     1       5.373  -3.154  27.255  0.00  0.00    +0.067 C 
BRANCH  38  46
ATOM     39  C   UNL     1       9.361  -3.176  24.851  0.00  0.00    +0.121 A 
ATOM     40  C   UNL     1       9.882  -4.470  24.763  0.00  0.00    +0.047 A 
ATOM     41  C   UNL     1       9.416  -5.510  25.578  0.00  0.00    +0.030 A 
ATOM     42  C   UNL     1       8.338  -5.227  26.419  0.00  0.00    +0.047 A 
ATOM     43  N   UNL     1       7.671  -6.025  27.319  0.00  0.00    -0.360 N 
ATOM     44  H   UNL     1       7.931  -6.974  27.551  0.00  0.00    +0.165 HD
ATOM     45  C   UNL     1       6.559  -5.377  27.781  0.00  0.00    +0.087 A 
ATOM     46  C   UNL     1       6.513  -4.129  27.188  0.00  0.00    -0.020 A 
ATOM     47  C   UNL     1       7.723  -3.978  26.446  0.00  0.00    +0.006 A 
ATOM     48  C   UNL     1       8.293  -2.917  25.711  0.00  0.00    +0.056 A 
BRANCH  39  49
ATOM     49  O   UNL     1       9.911  -2.275  23.979  0.00  0.00    -0.492 OA
BRANCH  49  50
ATOM     50  C   UNL     1       9.018  -1.389  23.303  0.00  0.00    +0.229 C 
BRANCH  50  52
ATOM     51  C   UNL     1       9.060   0.461  21.579  0.00  0.00    +0.007 C 
ATOM     52  C   UNL     1       9.728  -0.816  22.076  0.00  0.00    +0.038 C 
ENDBRANCH  50  52
ENDBRANCH  49  50
ENDBRANCH  39  49
ENDBRANCH  38  46
ENDBRANCH  30  38
ENDBRANCH   1  30
TORSDOF 17
ENDMDL
MODEL 9
REMARK VINA RESULT:      -6.8      2.240      4.616
REMARK  Name = 
REMARK  19 active torsions:
REMARK  status: ('A' for Active; 'I' for Inactive)
REMARK    1  A    between atoms: C_1  and  C_2
REMARK    2  A    between atoms: C_2  and  C_3
REMARK    3  A    between atoms: C_3  and  O_4
REMARK    4  A    between atoms: O_4  and  C_5
REMARK    5  A    between atoms: C_11  and  C_12
REMARK    6  A    between atoms: C_12  and  C_13
REMARK    7  A    between atoms: C_13  and  N_15
REMARK    8  A    between atoms: C_13  and  C_21
REMARK    9  A    between atoms: N_15  and  S_16
REMARK   10  A    between atoms: S_16  and  C_19
REMARK   11  A    between atoms: C_19  and  C_20
REMARK   12  A    between atoms: N_23  and  C_24
REMARK   13  A    between atoms: C_24  and  C_26
REMARK   14  A    between atoms: C_24  and  C_31
REMARK   15  A    between atoms: C_26  and  C_27
REMARK   16  A    between atoms: C_27  and  C_28
REMARK   17  A    between atoms: N_33  and  C_34
REMARK   18  A    between atoms: C_34  and  C_35
REMARK   19  A    between atoms: C_38  and  C_41
REMARK                            x       y       z     vdW  Elec       q    Type
REMARK                         _______ _______ _______ _____ _____    ______ ____
ROOT
ATOM      1  C   UNL     1       6.730  -0.159  23.641  0.00  0.00    +0.233 C 
ATOM      2  N   UNL     1       8.083   0.057  23.417  0.00  0.00    -0.303 N 
ATOM      3  H   UNL     1       8.551   0.852  23.846  0.00  0.00    +0.149 HD
ATOM      4  O   UNL     1       6.122  -1.062  23.071  0.00  0.00    -0.274 OA
ENDROOT
BRANCH   2   5
ATOM      5  C   UNL     1       8.859  -0.670  22.397  0.00  0.00    +0.159 C 
BRANCH   5   6
ATOM      6  C   UNL     1       9.588  -1.833  23.124  0.00  0.00    +0.234 C 
ATOM      7  N   UNL     1       8.801  -2.601  23.954  0.00  0.00    -0.310 N 
ATOM      8  H   UNL     1       7.830  -2.357  24.094  0.00  0.00    +0.149 HD
ATOM      9  O   UNL     1      10.784  -2.053  22.936  0.00  0.00    -0.274 OA
BRANCH   7  10
ATOM     10  C   UNL     1       9.283  -3.801  24.614  0.00  0.00    +0.139 C 
BRANCH  10  11
ATOM     11  C   UNL     1       8.168  -4.538  25.317  0.00  0.00    -0.030 A 
ATOM     12  C   UNL     1       7.027  -4.941  24.609  0.00  0.00    +0.006 A 
ATOM     13  C   UNL     1       6.005  -5.654  25.245  0.00  0.00    +0.016 A 
ATOM     14  C   UNL     1       6.117  -5.981  26.600  0.00  0.00    +0.065 A 
ATOM     15  C   UNL     1       7.241  -5.561  27.322  0.00  0.00    +0.016 A 
ATOM     16  C   UNL     1       8.263  -4.849  26.679  0.00  0.00    +0.006 A 
BRANCH  14  17
ATOM     17  C   UNL     1       5.043  -6.788  27.253  0.00  0.00    +0.308 C 
ATOM     18  N   UNL     1       5.218  -7.413  28.374  0.00  0.00    -0.099 NA
ATOM     19  H   UNL     1       6.179  -7.323  28.714  0.00  0.00    +0.363 HD
ATOM     20  N   UNL     1       3.808  -6.906  26.685  0.00  0.00    -0.247 N 
ATOM     21  H   UNL     1       3.153  -7.312  27.346  0.00  0.00    +0.288 HD
ATOM     22  H   UNL     1       3.442  -6.074  26.243  0.00  0.00    +0.288 HD
ENDBRANCH  14  17
ENDBRANCH  10  11
ENDBRANCH   7  10
ENDBRANCH   5   6
BRANCH   5  23
ATOM     23  C   UNL     1       9.857   0.265  21.680  0.00  0.00    +0.041 C 
BRANCH  23  24
ATOM     24  C   UNL     1       9.664   1.747  22.003  0.00  0.00    +0.098 C 
BRANCH  24  25
ATOM     25  C   UNL     1      10.483   2.265  23.170  0.00  0.00    +0.211 C 
ATOM     26  O   UNL     1      10.764   1.555  24.131  0.00  0.00    -0.276 OA
ATOM     27  N   UNL     1      10.978   3.526  23.079  0.00  0.00    -0.329 N 
ATOM     28  H   UNL     1      11.556   3.858  23.842  0.00  0.00    +0.145 HD
ATOM     29  H   UNL     1      10.833   4.151  22.297  0.00  0.00    +0.145 HD
ENDBRANCH  24  25
ENDBRANCH  23  24
ENDBRANCH   5  23
ENDBRANCH   2   5
BRANCH   1  30
ATOM     30  C   UNL     1       6.101   0.764  24.716  0.00  0.00    +0.166 C 
BRANCH  30  31
ATOM     31  N   UNL     1       5.218  -0.124  25.593  0.00  0.00    -0.182 NA
ATOM     32  H   UNL     1       4.929  -0.946  25.058  0.00  0.00    +0.148 HD
BRANCH  31  33
ATOM     33  S   UNL     1       5.946  -0.545  27.057  0.00  0.00    +0.030 S 
ATOM     34  O   UNL     1       6.567  -1.835  26.879  0.00  0.00    -0.158 OA
ATOM     35  O   UNL     1       4.941  -0.320  28.069  0.00  0.00    -0.158 OA
BRANCH  33  36
ATOM     36  C   UNL     1       7.267   0.643  27.301  0.00  0.00    +0.181 C 
ATOM     37  C   UNL     1       6.768   1.705  28.275  0.00  0.00    +0.029 C 
ENDBRANCH  33  36
ENDBRANCH  31  33
ENDBRANCH  30  31
BRANCH  30  38
ATOM     38  C   UNL     1       5.347   1.955  24.077  0.00  0.00    +0.067 C 
BRANCH  38  46
ATOM     39  C   UNL     1       8.141   5.286  25.744  0.00  0.00    +0.121 A 
ATOM     40  C   UNL     1       8.468   6.207  24.745  0.00  0.00    +0.047 A 
ATOM     41  C   UNL     1       8.241   5.937  23.389  0.00  0.00    +0.030 A 
ATOM     42  C   UNL     1       7.582   4.746  23.078  0.00  0.00    +0.047 A 
ATOM     43  N   UNL     1       7.223   4.213  21.862  0.00  0.00    -0.360 N 
ATOM     44  H   UNL     1       7.460   4.613  20.964  0.00  0.00    +0.165 HD
ATOM     45  C   UNL     1       6.428   3.116  22.050  0.00  0.00    +0.087 A 
ATOM     46  C   UNL     1       6.283   2.921  23.412  0.00  0.00    -0.020 A 
ATOM     47  C   UNL     1       7.142   3.861  24.058  0.00  0.00    +0.006 A 
ATOM     48  C   UNL     1       7.496   4.096  25.403  0.00  0.00    +0.056 A 
BRANCH  39  49
ATOM     49  O   UNL     1       8.412   5.702  27.020  0.00  0.00    -0.492 OA
BRANCH  49  50
ATOM     50  C   UNL     1       7.320   5.749  27.939  0.00  0.00    +0.229 C 
BRANCH  50  52
ATOM     51  C   UNL     1       5.228   6.978  27.228  0.00  0.00    +0.007 C 
ATOM     52  C   UNL     1       6.629   7.108  27.812  0.00  0.00    +0.038 C 
ENDBRANCH  50  52
ENDBRANCH  49  50
ENDBRANCH  39  49
ENDBRANCH  38  46
ENDBRANCH  30  38
ENDBRANCH   1  30
TORSDOF 17
ENDMDL
