MODEL 1
REMARK VINA RESULT:      -8.6      0.000      0.000
REMARK  Name = 
REMARK  11 active torsions:
REMARK  status: ('A' for Active; 'I' for Inactive)
REMARK    1  A    between atoms: C_11  and  C_13
REMARK    2  A    between atoms: C_13  and  N_14
REMARK    3  A    between atoms: N_14  and  C_15
REMARK    4  A    between atoms: C_18  and  C_21
REMARK    5  A    between atoms: N_23  and  CA_24
REMARK    6  A    between atoms: CA_24  and  CB_26
REMARK    7  A    between atoms: CA_24  and  C_31
REMARK    8  A    between atoms: CB_26  and  CG_27
REMARK    9  A    between atoms: CG_27  and  CD_28
REMARK   10  A    between atoms: CD_28  and  OE1_29
REMARK   11  A    between atoms: C_31  and  O_32
REMARK                            x       y       z     vdW  Elec       q    Type
REMARK                         _______ _______ _______ _____ _____    ______ ____
ROOT
ATOM      1  C   UNK A   0       8.350  -0.461  22.361  0.00  0.00    +0.027 A 
ATOM      2  C   UNK A   0       7.272   0.150  23.007  0.00  0.00    +0.023 A 
ATOM      3  C   UNK A   0       7.236   1.535  23.214  0.00  0.00    +0.015 A 
ATOM      4  C   UNK A   0       8.290   2.343  22.779  0.00  0.00    +0.037 A 
ATOM      5  C   UNK A   0       9.334   1.750  22.059  0.00  0.00    +0.015 A 
ATOM      6  C   UNK A   0       9.349   0.368  21.837  0.00  0.00    +0.023 A 
ENDROOT
BRANCH   4   7
ATOM      7  C   UNK A   0       8.370   3.810  23.062  0.00  0.00    +0.245 C 
ATOM      8  N   GLU A   1       9.457   4.266  23.786  0.00  0.00    -0.298 N 
ATOM      9  H   GLU A   1      10.247   3.652  23.934  0.00  0.00    +0.150 HD
ATOM     10  O   UNK A   0       7.525   4.575  22.610  0.00  0.00    -0.270 OA
BRANCH   8  11
ATOM     11  CA  GLU A   1       9.736   5.707  23.935  0.00  0.00    +0.182 C 
BRANCH  11  12
ATOM     12  C   GLU A   1       9.108   6.191  25.254  0.00  0.00    +0.325 C 
ATOM     13  OXT GLU A   1       9.695   6.290  26.319  0.00  0.00    -0.249 OA
BRANCH  12  14
ATOM     14  O   GLU A   1       7.813   6.579  25.102  0.00  0.00    -0.479 OA
ATOM     15  H   GLU A   1       7.223   5.802  25.194  0.00  0.00    +0.295 HD
ENDBRANCH  12  14
ENDBRANCH  11  12
BRANCH  11  16
ATOM     16  CB  GLU A   1      11.242   5.999  23.914  0.00  0.00    +0.045 C 
BRANCH  16  17
ATOM     17  CG  GLU A   1      12.087   4.809  23.452  0.00  0.00    +0.123 C 
BRANCH  17  18
ATOM     18  CD  GLU A   1      13.282   5.239  22.636  0.00  0.00    +0.305 C 
ATOM     19  OE2 GLU A   1      13.233   5.755  21.532  0.00  0.00    -0.251 OA
BRANCH  18  20
ATOM     20  OE1 GLU A   1      14.449   5.014  23.282  0.00  0.00    -0.481 OA
ATOM     21  HE1 GLU A   1      14.348   4.512  24.113  0.00  0.00    +0.295 HD
ENDBRANCH  18  20
ENDBRANCH  17  18
ENDBRANCH  16  17
ENDBRANCH  11  16
ENDBRANCH   8  11
ENDBRANCH   4   7
BRANCH   1  22
ATOM     22  N   UNK A   0       8.412  -1.837  22.123  0.00  0.00    -0.342 N 
ATOM     23  H   UNK A   0       9.334  -2.206  22.349  0.00  0.00    +0.146 HD
BRANCH  22  24
ATOM     24  C   UNK A   0       7.314  -2.682  22.631  0.00  0.00    +0.130 C 
BRANCH  24  34
ATOM     25  N   UNK A   0       3.828  -7.385  26.469  0.00  0.00    -0.329 N 
ATOM     26  H   UNK A   0       3.511  -8.153  25.892  0.00  0.00    +0.145 HD
ATOM     27  H   UNK A   0       3.966  -7.669  27.436  0.00  0.00    +0.145 HD
ATOM     28  C   UNK A   0       4.880  -6.675  26.001  0.00  0.00    +0.195 A 
ATOM     29  N   UNK A   0       4.870  -6.475  24.672  0.00  0.00    -0.311 N 
ATOM     30  H   UNK A   0       4.107  -6.787  24.091  0.00  0.00    +0.170 HD
ATOM     31  C   UNK A   0       5.876  -5.820  24.013  0.00  0.00    +0.160 A 
ATOM     32  N   UNK A   0       5.806  -5.750  22.635  0.00  0.00    -0.238 NA
ATOM     33  C   UNK A   0       6.690  -5.016  22.034  0.00  0.00    +0.110 C 
ATOM     34  C   UNK A   0       7.731  -4.171  22.725  0.00  0.00    +0.139 C 
ATOM     35  N   UNK A   0       7.943  -4.611  24.106  0.00  0.00    -0.257 N 
ATOM     36  C   UNK A   0       9.125  -4.194  24.696  0.00  0.00    +0.333 C 
ATOM     37  O   UNK A   0       9.973  -3.513  24.122  0.00  0.00    -0.279 OA
ATOM     38  C   UNK A   0       6.904  -5.307  24.737  0.00  0.00    +0.146 A 
ATOM     39  C   UNK A   0       6.812  -5.468  26.254  0.00  0.00    +0.298 A 
ATOM     40  O   UNK A   0       7.621  -4.909  26.989  0.00  0.00    -0.264 OA
ATOM     41  N   UNK A   0       5.798  -6.236  26.790  0.00  0.00    -0.176 NA
ENDBRANCH  24  34
ENDBRANCH  22  24
ENDBRANCH   1  22
TORSDOF 11
ENDMDL
MODEL 2
REMARK VINA RESULT:      -8.6      1.216      2.749
REMARK  Name = 
REMARK  11 active torsions:
REMARK  status: ('A' for Active; 'I' for Inactive)
REMARK    1  A    between atoms: C_11  and  C_13
REMARK    2  A    between atoms: C_13  and  N_14
REMARK    3  A    between atoms: N_14  and  C_15
REMARK    4  A    between atoms: C_18  and  C_21
REMARK    5  A    between atoms: N_23  and  CA_24
REMARK    6  A    between atoms: CA_24  and  CB_26
REMARK    7  A    between atoms: CA_24  and  C_31
REMARK    8  A    between atoms: CB_26  and  CG_27
REMARK    9  A    between atoms: CG_27  and  CD_28
REMARK   10  A    between atoms: CD_28  and  OE1_29
REMARK   11  A    between atoms: C_31  and  O_32
REMARK                            x       y       z     vdW  Elec       q    Type
REMARK                         _______ _______ _______ _____ _____    ______ ____
ROOT
ATOM      1  C   UNK A   0       8.728  -0.839  22.461  0.00  0.00    +0.027 A 
ATOM      2  C   UNK A   0       9.428   0.088  21.685  0.00  0.00    +0.023 A 
ATOM      3  C   UNK A   0       9.779   1.346  22.192  0.00  0.00    +0.015 A 
ATOM      4  C   UNK A   0       9.428   1.707  23.496  0.00  0.00    +0.037 A 
ATOM      5  C   UNK A   0       8.800   0.754  24.306  0.00  0.00    +0.015 A 
ATOM      6  C   UNK A   0       8.475  -0.509  23.798  0.00  0.00    +0.023 A 
ENDROOT
BRANCH   4   7
ATOM      7  C   UNK A   0       9.673   3.069  24.064  0.00  0.00    +0.245 C 
ATOM      8  N   GLU A   1      10.703   3.816  23.520  0.00  0.00    -0.298 N 
ATOM      9  H   GLU A   1      11.127   3.517  22.651  0.00  0.00    +0.150 HD
ATOM     10  O   UNK A   0       8.941   3.517  24.940  0.00  0.00    -0.270 OA
BRANCH   8  11
ATOM     11  CA  GLU A   1      10.890   5.239  23.862  0.00  0.00    +0.182 C 
BRANCH  11  12
ATOM     12  C   GLU A   1      12.390   5.568  23.771  0.00  0.00    +0.325 C 
ATOM     13  OXT GLU A   1      13.145   5.180  22.894  0.00  0.00    -0.249 OA
BRANCH  12  14
ATOM     14  O   GLU A   1      12.797   6.419  24.751  0.00  0.00    -0.479 OA
ATOM     15  H   GLU A   1      12.379   7.295  24.623  0.00  0.00    +0.295 HD
ENDBRANCH  12  14
ENDBRANCH  11  12
BRANCH  11  16
ATOM     16  CB  GLU A   1      10.077   6.156  22.939  0.00  0.00    +0.045 C 
BRANCH  16  17
ATOM     17  CG  GLU A   1       8.741   6.595  23.540  0.00  0.00    +0.123 C 
BRANCH  17  18
ATOM     18  CD  GLU A   1       7.562   6.024  22.790  0.00  0.00    +0.305 C 
ATOM     19  OE2 GLU A   1       6.607   5.460  23.299  0.00  0.00    -0.251 OA
BRANCH  18  20
ATOM     20  OE1 GLU A   1       7.656   6.230  21.456  0.00  0.00    -0.481 OA
ATOM     21  HE1 GLU A   1       7.951   5.445  20.957  0.00  0.00    +0.295 HD
ENDBRANCH  18  20
ENDBRANCH  17  18
ENDBRANCH  16  17
ENDBRANCH  11  16
ENDBRANCH   8  11
ENDBRANCH   4   7
BRANCH   1  22
ATOM     22  N   UNK A   0       8.377  -2.109  21.994  0.00  0.00    -0.342 N 
ATOM     23  H   UNK A   0       9.206  -2.664  21.786  0.00  0.00    +0.146 HD
BRANCH  22  24
ATOM     24  C   UNK A   0       7.350  -2.865  22.736  0.00  0.00    +0.130 C 
BRANCH  24  34
ATOM     25  N   UNK A   0       3.975  -7.226  27.048  0.00  0.00    -0.329 N 
ATOM     26  H   UNK A   0       3.621  -8.027  26.541  0.00  0.00    +0.145 HD
ATOM     27  H   UNK A   0       4.154  -7.444  28.025  0.00  0.00    +0.145 HD
ATOM     28  C   UNK A   0       5.015  -6.570  26.485  0.00  0.00    +0.195 A 
ATOM     29  N   UNK A   0       4.947  -6.462  25.146  0.00  0.00    -0.311 N 
ATOM     30  H   UNK A   0       4.153  -6.800  24.623  0.00  0.00    +0.170 HD
ATOM     31  C   UNK A   0       5.931  -5.873  24.399  0.00  0.00    +0.160 A 
ATOM     32  N   UNK A   0       5.800  -5.898  23.023  0.00  0.00    -0.238 NA
ATOM     33  C   UNK A   0       6.665  -5.224  22.333  0.00  0.00    +0.110 C 
ATOM     34  C   UNK A   0       7.749  -4.351  22.916  0.00  0.00    +0.139 C 
ATOM     35  N   UNK A   0       8.018  -4.698  24.313  0.00  0.00    -0.257 N 
ATOM     36  C   UNK A   0       9.232  -4.262  24.819  0.00  0.00    +0.333 C 
ATOM     37  O   UNK A   0      10.063  -3.638  24.161  0.00  0.00    -0.279 OA
ATOM     38  C   UNK A   0       6.998  -5.329  25.038  0.00  0.00    +0.146 A 
ATOM     39  C   UNK A   0       6.974  -5.383  26.565  0.00  0.00    +0.298 A 
ATOM     40  O   UNK A   0       7.824  -4.788  27.221  0.00  0.00    -0.264 OA
ATOM     41  N   UNK A   0       5.974  -6.093  27.198  0.00  0.00    -0.176 NA
ENDBRANCH  24  34
ENDBRANCH  22  24
ENDBRANCH   1  22
TORSDOF 11
ENDMDL
MODEL 3
REMARK VINA RESULT:      -7.9      1.843      2.839
REMARK  Name = 
REMARK  11 active torsions:
REMARK  status: ('A' for Active; 'I' for Inactive)
REMARK    1  A    between atoms: C_11  and  C_13
REMARK    2  A    between atoms: C_13  and  N_14
REMARK    3  A    between atoms: N_14  and  C_15
REMARK    4  A    between atoms: C_18  and  C_21
REMARK    5  A    between atoms: N_23  and  CA_24
REMARK    6  A    between atoms: CA_24  and  CB_26
REMARK    7  A    between atoms: CA_24  and  C_31
REMARK    8  A    between atoms: CB_26  and  CG_27
REMARK    9  A    between atoms: CG_27  and  CD_28
REMARK   10  A    between atoms: CD_28  and  OE1_29
REMARK   11  A    between atoms: C_31  and  O_32
REMARK                            x       y       z     vdW  Elec       q    Type
REMARK                         _______ _______ _______ _____ _____    ______ ____
ROOT
ATOM      1  C   UNK A   0       8.689  -0.764  24.327  0.00  0.00    +0.027 A 
ATOM      2  C   UNK A   0       7.756  -0.215  23.444  0.00  0.00    +0.023 A 
ATOM      3  C   UNK A   0       7.764   1.151  23.132  0.00  0.00    +0.015 A 
ATOM      4  C   UNK A   0       8.710   2.003  23.708  0.00  0.00    +0.037 A 
ATOM      5  C   UNK A   0       9.698   1.447  24.529  0.00  0.00    +0.015 A 
ATOM      6  C   UNK A   0       9.696   0.077  24.815  0.00  0.00    +0.023 A 
ENDROOT
BRANCH   4   7
ATOM      7  C   UNK A   0       8.709   3.486  23.507  0.00  0.00    +0.245 C 
ATOM      8  N   GLU A   1       9.589   4.237  24.265  0.00  0.00    -0.298 N 
ATOM      9  H   GLU A   1      10.325   3.770  24.779  0.00  0.00    +0.150 HD
ATOM     10  O   UNK A   0       7.992   3.995  22.652  0.00  0.00    -0.270 OA
BRANCH   8  11
ATOM     11  CA  GLU A   1       9.815   5.670  23.994  0.00  0.00    +0.182 C 
BRANCH  11  12
ATOM     12  C   GLU A   1       9.248   6.483  25.172  0.00  0.00    +0.325 C 
ATOM     13  OXT GLU A   1       8.089   6.845  25.285  0.00  0.00    -0.249 OA
BRANCH  12  14
ATOM     14  O   GLU A   1      10.174   6.708  26.142  0.00  0.00    -0.479 OA
ATOM     15  H   GLU A   1       9.970   7.546  26.607  0.00  0.00    +0.295 HD
ENDBRANCH  12  14
ENDBRANCH  11  12
BRANCH  11  16
ATOM     16  CB  GLU A   1      11.302   5.981  23.787  0.00  0.00    +0.045 C 
BRANCH  16  17
ATOM     17  CG  GLU A   1      12.108   4.789  23.267  0.00  0.00    +0.123 C 
BRANCH  17  18
ATOM     18  CD  GLU A   1      13.371   5.217  22.562  0.00  0.00    +0.305 C 
ATOM     19  OE2 GLU A   1      13.423   5.733  21.457  0.00  0.00    -0.251 OA
BRANCH  18  20
ATOM     20  OE1 GLU A   1      14.476   4.990  23.309  0.00  0.00    -0.481 OA
ATOM     21  HE1 GLU A   1      15.127   4.404  22.880  0.00  0.00    +0.295 HD
ENDBRANCH  18  20
ENDBRANCH  17  18
ENDBRANCH  16  17
ENDBRANCH  11  16
ENDBRANCH   8  11
ENDBRANCH   4   7
BRANCH   1  22
ATOM     22  N   UNK A   0       8.722  -2.124  24.647  0.00  0.00    -0.342 N 
ATOM     23  H   UNK A   0       9.574  -2.561  24.300  0.00  0.00    +0.146 HD
BRANCH  22  24
ATOM     24  C   UNK A   0       8.394  -2.523  26.030  0.00  0.00    +0.130 C 
BRANCH  24  34
ATOM     25  N   UNK A   0       6.053  -6.134  20.509  0.00  0.00    -0.329 N 
ATOM     26  H   UNK A   0       6.626  -6.951  20.347  0.00  0.00    +0.145 HD
ATOM     27  H   UNK A   0       5.102  -6.264  20.171  0.00  0.00    +0.145 HD
ATOM     28  C   UNK A   0       6.071  -5.624  21.761  0.00  0.00    +0.195 A 
ATOM     29  N   UNK A   0       7.277  -5.650  22.356  0.00  0.00    -0.311 N 
ATOM     30  H   UNK A   0       8.102  -5.975  21.875  0.00  0.00    +0.170 HD
ATOM     31  C   UNK A   0       7.480  -5.221  23.640  0.00  0.00    +0.160 A 
ATOM     32  N   UNK A   0       8.742  -5.377  24.180  0.00  0.00    -0.238 NA
ATOM     33  C   UNK A   0       8.958  -4.848  25.344  0.00  0.00    +0.110 C 
ATOM     34  C   UNK A   0       7.966  -4.010  26.113  0.00  0.00    +0.139 C 
ATOM     35  N   UNK A   0       6.599  -4.231  25.637  0.00  0.00    -0.257 N 
ATOM     36  C   UNK A   0       5.589  -3.844  26.503  0.00  0.00    +0.333 C 
ATOM     37  O   UNK A   0       5.791  -3.360  27.615  0.00  0.00    -0.279 OA
ATOM     38  C   UNK A   0       6.431  -4.701  24.328  0.00  0.00    +0.146 A 
ATOM     39  C   UNK A   0       5.108  -4.596  23.569  0.00  0.00    +0.298 A 
ATOM     40  O   UNK A   0       4.153  -4.006  24.066  0.00  0.00    -0.264 OA
ATOM     41  N   UNK A   0       5.007  -5.155  22.312  0.00  0.00    -0.176 NA
ENDBRANCH  24  34
ENDBRANCH  22  24
ENDBRANCH   1  22
TORSDOF 11
ENDMDL
MODEL 4
REMARK VINA RESULT:      -7.8      3.821      8.617
REMARK  Name = 
REMARK  11 active torsions:
REMARK  status: ('A' for Active; 'I' for Inactive)
REMARK    1  A    between atoms: C_11  and  C_13
REMARK    2  A    between atoms: C_13  and  N_14
REMARK    3  A    between atoms: N_14  and  C_15
REMARK    4  A    between atoms: C_18  and  C_21
REMARK    5  A    between atoms: N_23  and  CA_24
REMARK    6  A    between atoms: CA_24  and  CB_26
REMARK    7  A    between atoms: CA_24  and  C_31
REMARK    8  A    between atoms: CB_26  and  CG_27
REMARK    9  A    between atoms: CG_27  and  CD_28
REMARK   10  A    between atoms: CD_28  and  OE1_29
REMARK   11  A    between atoms: C_31  and  O_32
REMARK                            x       y       z     vdW  Elec       q    Type
REMARK                         _______ _______ _______ _____ _____    ______ ____
ROOT
ATOM      1  C   UNK A   0       9.099   2.243  23.109  0.00  0.00    +0.027 A 
ATOM      2  C   UNK A   0       9.893   1.773  24.159  0.00  0.00    +0.023 A 
ATOM      3  C   UNK A   0      10.149   0.405  24.322  0.00  0.00    +0.015 A 
ATOM      4  C   UNK A   0       9.608  -0.528  23.432  0.00  0.00    +0.037 A 
ATOM      5  C   UNK A   0       8.881  -0.058  22.333  0.00  0.00    +0.015 A 
ATOM      6  C   UNK A   0       8.651   1.312  22.165  0.00  0.00    +0.023 A 
ENDROOT
BRANCH   4   7
ATOM      7  C   UNK A   0       9.750  -2.006  23.608  0.00  0.00    +0.245 C 
ATOM      8  N   GLU A   1       8.773  -2.663  24.335  0.00  0.00    -0.298 N 
ATOM      9  H   GLU A   1       7.911  -2.180  24.557  0.00  0.00    +0.150 HD
ATOM     10  O   UNK A   0      10.672  -2.609  23.070  0.00  0.00    -0.270 OA
BRANCH   8  11
ATOM     11  CA  GLU A   1       8.706  -4.136  24.387  0.00  0.00    +0.182 C 
BRANCH  11  12
ATOM     12  C   GLU A   1       9.375  -4.608  25.690  0.00  0.00    +0.325 C 
ATOM     13  OXT GLU A   1       9.016  -4.303  26.816  0.00  0.00    -0.249 OA
BRANCH  12  14
ATOM     14  O   GLU A   1      10.393  -5.482  25.467  0.00  0.00    -0.479 OA
ATOM     15  H   GLU A   1      10.533  -6.036  26.262  0.00  0.00    +0.295 HD
ENDBRANCH  12  14
ENDBRANCH  11  12
BRANCH  11  16
ATOM     16  CB  GLU A   1       7.261  -4.643  24.306  0.00  0.00    +0.045 C 
BRANCH  16  17
ATOM     17  CG  GLU A   1       6.919  -5.296  22.965  0.00  0.00    +0.123 C 
BRANCH  17  18
ATOM     18  CD  GLU A   1       6.513  -4.283  21.923  0.00  0.00    +0.305 C 
ATOM     19  OE2 GLU A   1       6.712  -3.081  21.991  0.00  0.00    -0.251 OA
BRANCH  18  20
ATOM     20  OE1 GLU A   1       5.910  -4.859  20.857  0.00  0.00    -0.481 OA
ATOM     21  HE1 GLU A   1       6.038  -4.370  20.022  0.00  0.00    +0.295 HD
ENDBRANCH  18  20
ENDBRANCH  17  18
ENDBRANCH  16  17
ENDBRANCH  11  16
ENDBRANCH   8  11
ENDBRANCH   4   7
BRANCH   1  22
ATOM     22  N   UNK A   0       8.837   3.601  22.906  0.00  0.00    -0.342 N 
ATOM     23  H   UNK A   0       9.600   4.050  22.402  0.00  0.00    +0.146 HD
BRANCH  22  24
ATOM     24  C   UNK A   0       7.506   3.986  22.395  0.00  0.00    +0.130 C 
BRANCH  24  34
ATOM     25  N   UNK A   0       7.484   1.030  28.741  0.00  0.00    -0.329 N 
ATOM     26  H   UNK A   0       7.670   1.720  29.458  0.00  0.00    +0.145 HD
ATOM     27  H   UNK A   0       6.932   0.253  29.096  0.00  0.00    +0.145 HD
ATOM     28  C   UNK A   0       6.995   1.496  27.569  0.00  0.00    +0.195 A 
ATOM     29  N   UNK A   0       7.527   2.663  27.168  0.00  0.00    -0.311 N 
ATOM     30  H   UNK A   0       8.269   3.116  27.680  0.00  0.00    +0.170 HD
ATOM     31  C   UNK A   0       7.122   3.311  26.031  0.00  0.00    +0.160 A 
ATOM     32  N   UNK A   0       7.674   4.549  25.763  0.00  0.00    -0.238 NA
ATOM     33  C   UNK A   0       7.385   5.092  24.621  0.00  0.00    +0.110 C 
ATOM     34  C   UNK A   0       6.563   4.442  23.536  0.00  0.00    +0.139 C 
ATOM     35  N   UNK A   0       5.749   3.346  24.067  0.00  0.00    -0.257 N 
ATOM     36  C   UNK A   0       4.681   2.951  23.279  0.00  0.00    +0.333 C 
ATOM     37  O   UNK A   0       4.393   3.476  22.205  0.00  0.00    -0.279 OA
ATOM     38  C   UNK A   0       6.178   2.728  25.249  0.00  0.00    +0.146 A 
ATOM     39  C   UNK A   0       5.684   1.352  25.695  0.00  0.00    +0.298 A 
ATOM     40  O   UNK A   0       4.942   0.694  24.971  0.00  0.00    -0.264 OA
ATOM     41  N   UNK A   0       6.096   0.850  26.912  0.00  0.00    -0.176 NA
ENDBRANCH  24  34
ENDBRANCH  22  24
ENDBRANCH   1  22
TORSDOF 11
ENDMDL
MODEL 5
REMARK VINA RESULT:      -7.7      3.456      8.818
REMARK  Name = 
REMARK  11 active torsions:
REMARK  status: ('A' for Active; 'I' for Inactive)
REMARK    1  A    between atoms: C_11  and  C_13
REMARK    2  A    between atoms: C_13  and  N_14
REMARK    3  A    between atoms: N_14  and  C_15
REMARK    4  A    between atoms: C_18  and  C_21
REMARK    5  A    between atoms: N_23  and  CA_24
REMARK    6  A    between atoms: CA_24  and  CB_26
REMARK    7  A    between atoms: CA_24  and  C_31
REMARK    8  A    between atoms: CB_26  and  CG_27
REMARK    9  A    between atoms: CG_27  and  CD_28
REMARK   10  A    between atoms: CD_28  and  OE1_29
REMARK   11  A    between atoms: C_31  and  O_32
REMARK                            x       y       z     vdW  Elec       q    Type
REMARK                         _______ _______ _______ _____ _____    ______ ____
ROOT
ATOM      1  C   UNK A   0       9.432  -1.018  22.044  0.00  0.00    +0.027 A 
ATOM      2  C   UNK A   0      10.359  -1.628  22.893  0.00  0.00    +0.023 A 
ATOM      3  C   UNK A   0      10.018  -2.751  23.657  0.00  0.00    +0.015 A 
ATOM      4  C   UNK A   0       8.730  -3.289  23.589  0.00  0.00    +0.037 A 
ATOM      5  C   UNK A   0       7.822  -2.734  22.680  0.00  0.00    +0.015 A 
ATOM      6  C   UNK A   0       8.180  -1.626  21.903  0.00  0.00    +0.023 A 
ENDROOT
BRANCH   4   7
ATOM      7  C   UNK A   0       8.265  -4.417  24.454  0.00  0.00    +0.245 C 
ATOM      8  N   GLU A   1       7.011  -4.311  25.030  0.00  0.00    -0.298 N 
ATOM      9  H   GLU A   1       6.378  -3.590  24.708  0.00  0.00    +0.150 HD
ATOM     10  O   UNK A   0       8.957  -5.421  24.590  0.00  0.00    -0.270 OA
BRANCH   8  11
ATOM     11  CA  GLU A   1       6.379  -5.450  25.721  0.00  0.00    +0.182 C 
BRANCH  11  12
ATOM     12  C   GLU A   1       6.696  -5.345  27.224  0.00  0.00    +0.325 C 
ATOM     13  OXT GLU A   1       5.959  -4.862  28.067  0.00  0.00    -0.249 OA
BRANCH  12  14
ATOM     14  O   GLU A   1       7.884  -5.922  27.547  0.00  0.00    -0.479 OA
ATOM     15  H   GLU A   1       8.486  -5.897  26.773  0.00  0.00    +0.295 HD
ENDBRANCH  12  14
ENDBRANCH  11  12
BRANCH  11  16
ATOM     16  CB  GLU A   1       4.863  -5.485  25.490  0.00  0.00    +0.045 C 
BRANCH  16  17
ATOM     17  CG  GLU A   1       4.340  -4.284  24.698  0.00  0.00    +0.123 C 
BRANCH  17  18
ATOM     18  CD  GLU A   1       3.937  -4.659  23.292  0.00  0.00    +0.305 C 
ATOM     19  OE2 GLU A   1       2.961  -5.327  22.992  0.00  0.00    -0.251 OA
BRANCH  18  20
ATOM     20  OE1 GLU A   1       4.775  -4.142  22.365  0.00  0.00    -0.481 OA
ATOM     21  HE1 GLU A   1       4.860  -3.171  22.410  0.00  0.00    +0.295 HD
ENDBRANCH  18  20
ENDBRANCH  17  18
ENDBRANCH  16  17
ENDBRANCH  11  16
ENDBRANCH   8  11
ENDBRANCH   4   7
BRANCH   1  22
ATOM     22  N   UNK A   0       9.743   0.094  21.255  0.00  0.00    -0.342 N 
ATOM     23  H   UNK A   0      10.198  -0.189  20.388  0.00  0.00    +0.146 HD
BRANCH  22  24
ATOM     24  C   UNK A   0       8.699   1.116  21.049  0.00  0.00    +0.130 C 
BRANCH  24  34
ATOM     25  N   UNK A   0       9.109  -0.663  27.807  0.00  0.00    -0.329 N 
ATOM     26  H   UNK A   0       9.900  -0.213  28.248  0.00  0.00    +0.145 HD
ATOM     27  H   UNK A   0       8.368  -0.866  28.473  0.00  0.00    +0.145 HD
ATOM     28  C   UNK A   0       8.627  -0.074  26.689  0.00  0.00    +0.195 A 
ATOM     29  N   UNK A   0       9.570   0.434  25.876  0.00  0.00    -0.311 N 
ATOM     30  H   UNK A   0      10.554   0.329  26.069  0.00  0.00    +0.170 HD
ATOM     31  C   UNK A   0       9.269   1.109  24.723  0.00  0.00    +0.160 A 
ATOM     32  N   UNK A   0      10.314   1.666  24.011  0.00  0.00    -0.238 NA
ATOM     33  C   UNK A   0      10.034   2.186  22.856  0.00  0.00    +0.110 C 
ATOM     34  C   UNK A   0       8.676   2.155  22.198  0.00  0.00    +0.139 C 
ATOM     35  N   UNK A   0       7.617   1.893  23.174  0.00  0.00    -0.257 N 
ATOM     36  C   UNK A   0       6.334   2.235  22.778  0.00  0.00    +0.333 C 
ATOM     37  O   UNK A   0       6.068   2.745  21.691  0.00  0.00    -0.279 OA
ATOM     38  C   UNK A   0       7.968   1.229  24.357  0.00  0.00    +0.146 A 
ATOM     39  C   UNK A   0       6.944   0.541  25.260  0.00  0.00    +0.298 A 
ATOM     40  O   UNK A   0       5.764   0.476  24.925  0.00  0.00    -0.264 OA
ATOM     41  N   UNK A   0       7.364  -0.023  26.448  0.00  0.00    -0.176 NA
ENDBRANCH  24  34
ENDBRANCH  22  24
ENDBRANCH   1  22
TORSDOF 11
ENDMDL
MODEL 6
REMARK VINA RESULT:      -7.7      2.558     10.329
REMARK  Name = 
REMARK  11 active torsions:
REMARK  status: ('A' for Active; 'I' for Inactive)
REMARK    1  A    between atoms: C_11  and  C_13
REMARK    2  A    between atoms: C_13  and  N_14
REMARK    3  A    between atoms: N_14  and  C_15
REMARK    4  A    between atoms: C_18  and  C_21
REMARK    5  A    between atoms: N_23  and  CA_24
REMARK    6  A    between atoms: CA_24  and  CB_26
REMARK    7  A    between atoms: CA_24  and  C_31
REMARK    8  A    between atoms: CB_26  and  CG_27
REMARK    9  A    between atoms: CG_27  and  CD_28
REMARK   10  A    between atoms: CD_28  and  OE1_29
REMARK   11  A    between atoms: C_31  and  O_32
REMARK                            x       y       z     vdW  Elec       q    Type
REMARK                         _______ _______ _______ _____ _____    ______ ____
ROOT
ATOM      1  C   UNK A   0       9.457  -1.530  22.554  0.00  0.00    +0.027 A 
ATOM      2  C   UNK A   0       8.356  -2.085  21.898  0.00  0.00    +0.023 A 
ATOM      3  C   UNK A   0       7.604  -3.114  22.480  0.00  0.00    +0.015 A 
ATOM      4  C   UNK A   0       7.946  -3.616  23.740  0.00  0.00    +0.037 A 
ATOM      5  C   UNK A   0       8.996  -3.009  24.437  0.00  0.00    +0.015 A 
ATOM      6  C   UNK A   0       9.726  -1.965  23.857  0.00  0.00    +0.023 A 
ENDROOT
BRANCH   4   7
ATOM      7  C   UNK A   0       7.257  -4.783  24.372  0.00  0.00    +0.245 C 
ATOM      8  N   GLU A   1       6.792  -4.631  25.666  0.00  0.00    -0.298 N 
ATOM      9  H   GLU A   1       6.753  -3.705  26.073  0.00  0.00    +0.150 HD
ATOM     10  O   UNK A   0       7.065  -5.811  23.732  0.00  0.00    -0.270 OA
BRANCH   8  11
ATOM     11  CA  GLU A   1       5.921  -5.639  26.298  0.00  0.00    +0.182 C 
BRANCH  11  12
ATOM     12  C   GLU A   1       6.363  -5.816  27.762  0.00  0.00    +0.325 C 
ATOM     13  OXT GLU A   1       5.620  -5.802  28.729  0.00  0.00    -0.249 OA
BRANCH  12  14
ATOM     14  O   GLU A   1       7.694  -6.069  27.876  0.00  0.00    -0.479 OA
ATOM     15  H   GLU A   1       7.858  -7.030  27.778  0.00  0.00    +0.295 HD
ENDBRANCH  12  14
ENDBRANCH  11  12
BRANCH  11  16
ATOM     16  CB  GLU A   1       4.441  -5.238  26.225  0.00  0.00    +0.045 C 
BRANCH  16  17
ATOM     17  CG  GLU A   1       3.775  -5.611  24.900  0.00  0.00    +0.123 C 
BRANCH  17  18
ATOM     18  CD  GLU A   1       3.858  -7.091  24.615  0.00  0.00    +0.305 C 
ATOM     19  OE2 GLU A   1       3.233  -7.959  25.202  0.00  0.00    -0.251 OA
BRANCH  18  20
ATOM     20  OE1 GLU A   1       4.700  -7.368  23.593  0.00  0.00    -0.481 OA
ATOM     21  HE1 GLU A   1       4.286  -7.297  22.712  0.00  0.00    +0.295 HD
ENDBRANCH  18  20
ENDBRANCH  17  18
ENDBRANCH  16  17
ENDBRANCH  11  16
ENDBRANCH   8  11
ENDBRANCH   4   7
BRANCH   1  22
ATOM     22  N   UNK A   0      10.219  -0.491  22.011  0.00  0.00    -0.342 N 
ATOM     23  H   UNK A   0      10.837  -0.836  21.278  0.00  0.00    +0.146 HD
BRANCH  22  24
ATOM     24  C   UNK A   0       9.529   0.760  21.640  0.00  0.00    +0.130 C 
BRANCH  24  34
ATOM     25  N   UNK A   0       6.579   7.107  21.656  0.00  0.00    -0.329 N 
ATOM     26  H   UNK A   0       5.570   7.033  21.684  0.00  0.00    +0.145 HD
ATOM     27  H   UNK A   0       6.906   7.977  22.069  0.00  0.00    +0.145 HD
ATOM     28  C   UNK A   0       7.274   6.043  22.117  0.00  0.00    +0.195 A 
ATOM     29  N   UNK A   0       6.742   4.850  21.799  0.00  0.00    -0.311 N 
ATOM     30  H   UNK A   0       5.922   4.769  21.217  0.00  0.00    +0.170 HD
ATOM     31  C   UNK A   0       7.280   3.662  22.220  0.00  0.00    +0.160 A 
ATOM     32  N   UNK A   0       6.600   2.501  21.909  0.00  0.00    -0.238 NA
ATOM     33  C   UNK A   0       7.183   1.378  22.194  0.00  0.00    +0.110 C 
ATOM     34  C   UNK A   0       8.575   1.244  22.760  0.00  0.00    +0.139 C 
ATOM     35  N   UNK A   0       9.022   2.494  23.379  0.00  0.00    -0.257 N 
ATOM     36  C   UNK A   0      10.081   2.384  24.265  0.00  0.00    +0.333 C 
ATOM     37  O   UNK A   0      10.624   1.318  24.551  0.00  0.00    -0.279 OA
ATOM     38  C   UNK A   0       8.426   3.687  22.947  0.00  0.00    +0.146 A 
ATOM     39  C   UNK A   0       9.047   5.062  23.189  0.00  0.00    +0.298 A 
ATOM     40  O   UNK A   0      10.155   5.161  23.709  0.00  0.00    -0.264 OA
ATOM     41  N   UNK A   0       8.355   6.191  22.799  0.00  0.00    -0.176 NA
ENDBRANCH  24  34
ENDBRANCH  22  24
ENDBRANCH   1  22
TORSDOF 11
ENDMDL
MODEL 7
REMARK VINA RESULT:      -7.6      1.163      1.595
REMARK  Name = 
REMARK  11 active torsions:
REMARK  status: ('A' for Active; 'I' for Inactive)
REMARK    1  A    between atoms: C_11  and  C_13
REMARK    2  A    between atoms: C_13  and  N_14
REMARK    3  A    between atoms: N_14  and  C_15
REMARK    4  A    between atoms: C_18  and  C_21
REMARK    5  A    between atoms: N_23  and  CA_24
REMARK    6  A    between atoms: CA_24  and  CB_26
REMARK    7  A    between atoms: CA_24  and  C_31
REMARK    8  A    between atoms: CB_26  and  CG_27
REMARK    9  A    between atoms: CG_27  and  CD_28
REMARK   10  A    between atoms: CD_28  and  OE1_29
REMARK   11  A    between atoms: C_31  and  O_32
REMARK                            x       y       z     vdW  Elec       q    Type
REMARK                         _______ _______ _______ _____ _____    ______ ____
ROOT
ATOM      1  C   UNK A   0       8.002  -0.457  23.239  0.00  0.00    +0.027 A 
ATOM      2  C   UNK A   0       9.195   0.064  23.748  0.00  0.00    +0.023 A 
ATOM      3  C   UNK A   0       9.393   1.445  23.874  0.00  0.00    +0.015 A 
ATOM      4  C   UNK A   0       8.393   2.341  23.485  0.00  0.00    +0.037 A 
ATOM      5  C   UNK A   0       7.166   1.826  23.051  0.00  0.00    +0.015 A 
ATOM      6  C   UNK A   0       6.970   0.444  22.952  0.00  0.00    +0.023 A 
ENDROOT
BRANCH   4   7
ATOM      7  C   UNK A   0       8.576   3.826  23.490  0.00  0.00    +0.245 C 
ATOM      8  N   GLU A   1       9.639   4.339  24.211  0.00  0.00    -0.298 N 
ATOM      9  H   GLU A   1      10.360   3.713  24.546  0.00  0.00    +0.150 HD
ATOM     10  O   UNK A   0       7.838   4.544  22.824  0.00  0.00    -0.270 OA
BRANCH   8  11
ATOM     11  CA  GLU A   1      10.029   5.758  24.108  0.00  0.00    +0.182 C 
BRANCH  11  12
ATOM     12  C   GLU A   1       9.552   6.488  25.377  0.00  0.00    +0.325 C 
ATOM     13  OXT GLU A   1       8.388   6.615  25.720  0.00  0.00    -0.249 OA
BRANCH  12  14
ATOM     14  O   GLU A   1      10.584   6.930  26.142  0.00  0.00    -0.479 OA
ATOM     15  H   GLU A   1      10.480   7.889  26.316  0.00  0.00    +0.295 HD
ENDBRANCH  12  14
ENDBRANCH  11  12
BRANCH  11  16
ATOM     16  CB  GLU A   1      11.544   5.920  23.929  0.00  0.00    +0.045 C 
BRANCH  16  17
ATOM     17  CG  GLU A   1      12.093   5.190  22.701  0.00  0.00    +0.123 C 
BRANCH  17  18
ATOM     18  CD  GLU A   1      13.546   5.512  22.448  0.00  0.00    +0.305 C 
ATOM     19  OE2 GLU A   1      13.967   6.203  21.535  0.00  0.00    -0.251 OA
BRANCH  18  20
ATOM     20  OE1 GLU A   1      14.361   4.963  23.378  0.00  0.00    -0.481 OA
ATOM     21  HE1 GLU A   1      15.020   4.346  23.008  0.00  0.00    +0.295 HD
ENDBRANCH  18  20
ENDBRANCH  17  18
ENDBRANCH  16  17
ENDBRANCH  11  16
ENDBRANCH   8  11
ENDBRANCH   4   7
BRANCH   1  22
ATOM     22  N   UNK A   0       7.765  -1.829  23.115  0.00  0.00    -0.342 N 
ATOM     23  H   UNK A   0       8.358  -2.239  22.395  0.00  0.00    +0.146 HD
BRANCH  22  24
ATOM     24  C   UNK A   0       7.710  -2.641  24.346  0.00  0.00    +0.130 C 
BRANCH  24  34
ATOM     25  N   UNK A   0       2.856  -7.653  23.791  0.00  0.00    -0.329 N 
ATOM     26  H   UNK A   0       2.921  -8.117  22.894  0.00  0.00    +0.145 HD
ATOM     27  H   UNK A   0       2.463  -8.262  24.504  0.00  0.00    +0.145 HD
ATOM     28  C   UNK A   0       3.972  -7.027  24.227  0.00  0.00    +0.195 A 
ATOM     29  N   UNK A   0       4.670  -6.398  23.266  0.00  0.00    -0.311 N 
ATOM     30  H   UNK A   0       4.347  -6.358  22.312  0.00  0.00    +0.170 HD
ATOM     31  C   UNK A   0       5.852  -5.751  23.511  0.00  0.00    +0.160 A 
ATOM     32  N   UNK A   0       6.530  -5.216  22.432  0.00  0.00    -0.238 NA
ATOM     33  C   UNK A   0       7.575  -4.493  22.689  0.00  0.00    +0.110 C 
ATOM     34  C   UNK A   0       8.057  -4.125  24.071  0.00  0.00    +0.139 C 
ATOM     35  N   UNK A   0       7.510  -5.030  25.084  0.00  0.00    -0.257 N 
ATOM     36  C   UNK A   0       8.178  -5.050  26.298  0.00  0.00    +0.333 C 
ATOM     37  O   UNK A   0       9.180  -4.380  26.538  0.00  0.00    -0.279 OA
ATOM     38  C   UNK A   0       6.316  -5.699  24.786  0.00  0.00    +0.146 A 
ATOM     39  C   UNK A   0       5.430  -6.337  25.856  0.00  0.00    +0.298 A 
ATOM     40  O   UNK A   0       5.702  -6.207  27.046  0.00  0.00    -0.264 OA
ATOM     41  N   UNK A   0       4.311  -7.046  25.469  0.00  0.00    -0.176 NA
ENDBRANCH  24  34
ENDBRANCH  22  24
ENDBRANCH   1  22
TORSDOF 11
ENDMDL
MODEL 8
REMARK VINA RESULT:      -7.1      1.894      2.481
REMARK  Name = 
REMARK  11 active torsions:
REMARK  status: ('A' for Active; 'I' for Inactive)
REMARK    1  A    between atoms: C_11  and  C_13
REMARK    2  A    between atoms: C_13  and  N_14
REMARK    3  A    between atoms: N_14  and  C_15
REMARK    4  A    between atoms: C_18  and  C_21
REMARK    5  A    between atoms: N_23  and  CA_24
REMARK    6  A    between atoms: CA_24  and  CB_26
REMARK    7  A    between atoms: CA_24  and  C_31
REMARK    8  A    between atoms: CB_26  and  CG_27
REMARK    9  A    between atoms: CG_27  and  CD_28
REMARK   10  A    between atoms: CD_28  and  OE1_29
REMARK   11  A    between atoms: C_31  and  O_32
REMARK                            x       y       z     vdW  Elec       q    Type
REMARK                         _______ _______ _______ _____ _____    ______ ____
ROOT
ATOM      1  C   UNK A   0       8.563  -0.615  23.198  0.00  0.00    +0.027 A 
ATOM      2  C   UNK A   0       9.382   0.028  24.129  0.00  0.00    +0.023 A 
ATOM      3  C   UNK A   0       9.241   1.395  24.402  0.00  0.00    +0.015 A 
ATOM      4  C   UNK A   0       8.271   2.153  23.739  0.00  0.00    +0.037 A 
ATOM      5  C   UNK A   0       7.394   1.498  22.867  0.00  0.00    +0.015 A 
ATOM      6  C   UNK A   0       7.528   0.128  22.620  0.00  0.00    +0.023 A 
ENDROOT
BRANCH   4   7
ATOM      7  C   UNK A   0       8.136   3.634  23.900  0.00  0.00    +0.245 C 
ATOM      8  N   GLU A   1       8.870   4.240  24.904  0.00  0.00    -0.298 N 
ATOM      9  H   GLU A   1       9.606   3.719  25.365  0.00  0.00    +0.150 HD
ATOM     10  O   UNK A   0       7.443   4.282  23.123  0.00  0.00    -0.270 OA
BRANCH   8  11
ATOM     11  CA  GLU A   1       8.971   5.708  25.010  0.00  0.00    +0.182 C 
BRANCH  11  12
ATOM     12  C   GLU A   1       8.402   6.138  26.374  0.00  0.00    +0.325 C 
ATOM     13  OXT GLU A   1       9.063   6.543  27.316  0.00  0.00    -0.249 OA
BRANCH  12  14
ATOM     14  O   GLU A   1       7.044   6.092  26.409  0.00  0.00    -0.479 OA
ATOM     15  H   GLU A   1       6.724   6.415  27.278  0.00  0.00    +0.295 HD
ENDBRANCH  12  14
ENDBRANCH  11  12
BRANCH  11  16
ATOM     16  CB  GLU A   1      10.418   6.191  24.850  0.00  0.00    +0.045 C 
BRANCH  16  17
ATOM     17  CG  GLU A   1      10.966   6.015  23.433  0.00  0.00    +0.123 C 
BRANCH  17  18
ATOM     18  CD  GLU A   1      11.996   4.914  23.352  0.00  0.00    +0.305 C 
ATOM     19  OE2 GLU A   1      13.181   5.036  23.615  0.00  0.00    -0.251 OA
BRANCH  18  20
ATOM     20  OE1 GLU A   1      11.454   3.734  22.972  0.00  0.00    -0.481 OA
ATOM     21  HE1 GLU A   1      11.675   2.992  23.566  0.00  0.00    +0.295 HD
ENDBRANCH  18  20
ENDBRANCH  17  18
ENDBRANCH  16  17
ENDBRANCH  11  16
ENDBRANCH   8  11
ENDBRANCH   4   7
BRANCH   1  22
ATOM     22  N   UNK A   0       8.665  -1.980  22.914  0.00  0.00    -0.342 N 
ATOM     23  H   UNK A   0       9.540  -2.190  22.437  0.00  0.00    +0.146 HD
BRANCH  22  24
ATOM     24  C   UNK A   0       8.352  -2.942  23.988  0.00  0.00    +0.130 C 
BRANCH  24  34
ATOM     25  N   UNK A   0       5.157  -7.460  28.276  0.00  0.00    -0.329 N 
ATOM     26  H   UNK A   0       4.953  -7.025  29.166  0.00  0.00    +0.145 HD
ATOM     27  H   UNK A   0       4.505  -8.211  28.063  0.00  0.00    +0.145 HD
ATOM     28  C   UNK A   0       5.321  -6.627  27.223  0.00  0.00    +0.195 A 
ATOM     29  N   UNK A   0       5.976  -5.489  27.509  0.00  0.00    -0.311 N 
ATOM     30  H   UNK A   0       6.357  -5.308  28.425  0.00  0.00    +0.170 HD
ATOM     31  C   UNK A   0       6.194  -4.505  26.582  0.00  0.00    +0.160 A 
ATOM     32  N   UNK A   0       6.800  -3.339  27.008  0.00  0.00    -0.238 NA
ATOM     33  C   UNK A   0       7.121  -2.472  26.100  0.00  0.00    +0.110 C 
ATOM     34  C   UNK A   0       6.960  -2.673  24.613  0.00  0.00    +0.139 C 
ATOM     35  N   UNK A   0       5.995  -3.735  24.321  0.00  0.00    -0.257 N 
ATOM     36  C   UNK A   0       5.471  -3.737  23.038  0.00  0.00    +0.333 C 
ATOM     37  O   UNK A   0       5.760  -2.905  22.180  0.00  0.00    -0.279 OA
ATOM     38  C   UNK A   0       5.775  -4.707  25.306  0.00  0.00    +0.146 A 
ATOM     39  C   UNK A   0       5.131  -6.061  25.010  0.00  0.00    +0.298 A 
ATOM     40  O   UNK A   0       4.858  -6.380  23.856  0.00  0.00    -0.264 OA
ATOM     41  N   UNK A   0       4.878  -6.929  26.053  0.00  0.00    -0.176 NA
ENDBRANCH  24  34
ENDBRANCH  22  24
ENDBRANCH   1  22
TORSDOF 11
ENDMDL
MODEL 9
REMARK VINA RESULT:      -7.1      2.540      3.977
REMARK  Name = 
REMARK  11 active torsions:
REMARK  status: ('A' for Active; 'I' for Inactive)
REMARK    1  A    between atoms: C_11  and  C_13
REMARK    2  A    between atoms: C_13  and  N_14
REMARK    3  A    between atoms: N_14  and  C_15
REMARK    4  A    between atoms: C_18  and  C_21
REMARK    5  A    between atoms: N_23  and  CA_24
REMARK    6  A    between atoms: CA_24  and  CB_26
REMARK    7  A    between atoms: CA_24  and  C_31
REMARK    8  A    between atoms: CB_26  and  CG_27
REMARK    9  A    between atoms: CG_27  and  CD_28
REMARK   10  A    between atoms: CD_28  and  OE1_29
REMARK   11  A    between atoms: C_31  and  O_32
REMARK                            x       y       z     vdW  Elec       q    Type
REMARK                         _______ _______ _______ _____ _____    ______ ____
ROOT
ATOM      1  C   UNK A   0       9.165  -0.707  24.901  0.00  0.00    +0.027 A 
ATOM      2  C   UNK A   0      10.390  -0.122  24.568  0.00  0.00    +0.023 A 
ATOM      3  C   UNK A   0      10.507   1.259  24.367  0.00  0.00    +0.015 A 
ATOM      4  C   UNK A   0       9.389   2.090  24.491  0.00  0.00    +0.037 A 
ATOM      5  C   UNK A   0       8.178   1.522  24.905  0.00  0.00    +0.015 A 
ATOM      6  C   UNK A   0       8.078   0.144  25.127  0.00  0.00    +0.023 A 
ENDROOT
BRANCH   4   7
ATOM      7  C   UNK A   0       9.417   3.554  24.185  0.00  0.00    +0.245 C 
ATOM      8  N   GLU A   1       8.415   4.342  24.723  0.00  0.00    -0.298 N 
ATOM      9  H   GLU A   1       7.818   3.960  25.446  0.00  0.00    +0.150 HD
ATOM     10  O   UNK A   0      10.336   4.033  23.530  0.00  0.00    -0.270 OA
BRANCH   8  11
ATOM     11  CA  GLU A   1       8.470   5.814  24.657  0.00  0.00    +0.182 C 
BRANCH  11  12
ATOM     12  C   GLU A   1       9.561   6.304  25.626  0.00  0.00    +0.325 C 
ATOM     13  OXT GLU A   1       9.441   6.387  26.837  0.00  0.00    -0.249 OA
BRANCH  12  14
ATOM     14  O   GLU A   1      10.733   6.578  24.994  0.00  0.00    -0.479 OA
ATOM     15  H   GLU A   1      10.712   7.491  24.639  0.00  0.00    +0.295 HD
ENDBRANCH  12  14
ENDBRANCH  11  12
BRANCH  11  16
ATOM     16  CB  GLU A   1       8.749   6.310  23.233  0.00  0.00    +0.045 C 
BRANCH  16  17
ATOM     17  CG  GLU A   1       7.514   6.884  22.535  0.00  0.00    +0.123 C 
BRANCH  17  18
ATOM     18  CD  GLU A   1       6.435   5.846  22.338  0.00  0.00    +0.305 C 
ATOM     19  OE2 GLU A   1       5.247   6.012  22.560  0.00  0.00    -0.251 OA
BRANCH  18  20
ATOM     20  OE1 GLU A   1       6.927   4.684  21.850  0.00  0.00    -0.481 OA
ATOM     21  HE1 GLU A   1       7.046   3.992  22.528  0.00  0.00    +0.295 HD
ENDBRANCH  18  20
ENDBRANCH  17  18
ENDBRANCH  16  17
ENDBRANCH  11  16
ENDBRANCH   8  11
ENDBRANCH   4   7
BRANCH   1  22
ATOM     22  N   UNK A   0       9.016  -2.079  25.125  0.00  0.00    -0.342 N 
ATOM     23  H   UNK A   0       9.910  -2.561  25.049  0.00  0.00    +0.146 HD
BRANCH  22  24
ATOM     24  C   UNK A   0       8.227  -2.512  26.295  0.00  0.00    +0.130 C 
BRANCH  24  34
ATOM     25  N   UNK A   0       6.157  -5.827  20.487  0.00  0.00    -0.329 N 
ATOM     26  H   UNK A   0       6.795  -6.578  20.258  0.00  0.00    +0.145 HD
ATOM     27  H   UNK A   0       5.219  -6.005  20.138  0.00  0.00    +0.145 HD
ATOM     28  C   UNK A   0       6.142  -5.424  21.778  0.00  0.00    +0.195 A 
ATOM     29  N   UNK A   0       7.349  -5.400  22.369  0.00  0.00    -0.311 N 
ATOM     30  H   UNK A   0       8.195  -5.616  21.864  0.00  0.00    +0.170 HD
ATOM     31  C   UNK A   0       7.523  -5.066  23.686  0.00  0.00    +0.160 A 
ATOM     32  N   UNK A   0       8.797  -5.162  24.212  0.00  0.00    -0.238 NA
ATOM     33  C   UNK A   0       8.976  -4.717  25.417  0.00  0.00    +0.110 C 
ATOM     34  C   UNK A   0       7.923  -4.030  26.252  0.00  0.00    +0.139 C 
ATOM     35  N   UNK A   0       6.576  -4.322  25.758  0.00  0.00    -0.257 N 
ATOM     36  C   UNK A   0       5.543  -4.093  26.652  0.00  0.00    +0.333 C 
ATOM     37  O   UNK A   0       5.711  -3.689  27.801  0.00  0.00    -0.279 OA
ATOM     38  C   UNK A   0       6.440  -4.693  24.413  0.00  0.00    +0.146 A 
ATOM     39  C   UNK A   0       5.108  -4.633  23.665  0.00  0.00    +0.298 A 
ATOM     40  O   UNK A   0       4.110  -4.168  24.209  0.00  0.00    -0.264 OA
ATOM     41  N   UNK A   0       5.045  -5.092  22.365  0.00  0.00    -0.176 NA
ENDBRANCH  24  34
ENDBRANCH  22  24
ENDBRANCH   1  22
TORSDOF 11
ENDMDL
