MODEL 1
REMARK VINA RESULT:      -4.0      0.000      0.000
REMARK  Name = 
REMARK  10 active torsions:
REMARK  status: ('A' for Active; 'I' for Inactive)
REMARK    1  A    between atoms: O_1  and  C_2
REMARK    2  A    between atoms: C_2  and  C_4
REMARK    3  A    between atoms: C_2  and  C_10
REMARK    4  A    between atoms: C_4  and  O_5
REMARK    5  A    between atoms: O_5  and  P_6
REMARK    6  A    between atoms: P_6  and  O_7
REMARK    7  A    between atoms: P_6  and  O_8
REMARK    8  A    between atoms: C_10  and  O_12
REMARK    9  A    between atoms: C_10  and  C_13
REMARK   10  A    between atoms: C_13  and  O_14
REMARK                            x       y       z     vdW  Elec       q    Type
REMARK                         _______ _______ _______ _____ _____    ______ ____
ROOT
ATOM      1  C   UNL     1       6.543  -3.587  25.511  0.00  0.00    +0.180 C 
ENDROOT
BRANCH   1   2
ATOM      2  O   UNL     1       6.727  -2.995  26.804  0.00  0.00    -0.386 OA
ATOM      3  H   UNL     1       6.351  -3.617  27.449  0.00  0.00    +0.210 HD
ENDBRANCH   1   2
BRANCH   1   4
ATOM      4  C   UNL     1       7.112  -5.017  25.484  0.00  0.00    +0.253 C 
BRANCH   4   5
ATOM      5  C   UNL     1       7.913  -5.275  26.752  0.00  0.00    +0.336 C 
ATOM      6  O   UNL     1       7.470  -5.818  27.757  0.00  0.00    -0.248 OA
BRANCH   5   7
ATOM      7  O   UNL     1       9.202  -4.860  26.625  0.00  0.00    -0.479 OA
ATOM      8  H   UNL     1       9.173  -3.883  26.466  0.00  0.00    +0.295 HD
ENDBRANCH   5   7
ENDBRANCH   4   5
BRANCH   4   9
ATOM      9  O   UNL     1       7.969  -5.269  24.350  0.00  0.00    -0.378 OA
ATOM     10  H   UNL     1       8.134  -6.225  24.301  0.00  0.00    +0.211 HD
ENDBRANCH   4   9
ENDBRANCH   1   4
BRANCH   1  11
ATOM     11  C   UNL     1       7.247  -2.704  24.482  0.00  0.00    +0.206 C 
BRANCH  11  12
ATOM     12  O   UNL     1       8.519  -2.280  24.981  0.00  0.00    -0.284 OA
BRANCH  12  13
ATOM     13  P   UNL     1       9.634  -2.089  23.672  0.00  0.00    +0.472 P 
ATOM     14  O   UNL     1      10.632  -1.917  22.499  0.00  0.00    -0.228 OA
BRANCH  13  15
ATOM     15  O   UNL     1       8.414  -2.710  22.779  0.00  0.00    -0.303 OA
ATOM     16  H   UNL     1       7.933  -1.947  22.407  0.00  0.00    +0.222 HD
ENDBRANCH  13  15
BRANCH  13  17
ATOM     17  O   UNL     1      10.207  -3.549  24.140  0.00  0.00    -0.303 OA
ATOM     18  H   UNL     1      11.047  -3.464  24.623  0.00  0.00    +0.222 HD
ENDBRANCH  13  17
ENDBRANCH  12  13
ENDBRANCH  11  12
ENDBRANCH   1  11
TORSDOF 10
ENDMDL
MODEL 2
REMARK VINA RESULT:      -4.0      4.136      6.099
REMARK  Name = 
REMARK  10 active torsions:
REMARK  status: ('A' for Active; 'I' for Inactive)
REMARK    1  A    between atoms: O_1  and  C_2
REMARK    2  A    between atoms: C_2  and  C_4
REMARK    3  A    between atoms: C_2  and  C_10
REMARK    4  A    between atoms: C_4  and  O_5
REMARK    5  A    between atoms: O_5  and  P_6
REMARK    6  A    between atoms: P_6  and  O_7
REMARK    7  A    between atoms: P_6  and  O_8
REMARK    8  A    between atoms: C_10  and  O_12
REMARK    9  A    between atoms: C_10  and  C_13
REMARK   10  A    between atoms: C_13  and  O_14
REMARK                            x       y       z     vdW  Elec       q    Type
REMARK                         _______ _______ _______ _____ _____    ______ ____
ROOT
ATOM      1  C   UNL     1       8.980   1.548  21.730  0.00  0.00    +0.180 C 
ENDROOT
BRANCH   1   2
ATOM      2  O   UNL     1      10.241   2.228  21.666  0.00  0.00    -0.386 OA
ATOM      3  H   UNL     1      10.408   2.412  20.726  0.00  0.00    +0.210 HD
ENDBRANCH   1   2
BRANCH   1   4
ATOM      4  C   UNL     1       8.205   1.962  22.994  0.00  0.00    +0.253 C 
BRANCH   4   5
ATOM      5  C   UNL     1       9.139   2.679  23.958  0.00  0.00    +0.336 C 
ATOM      6  O   UNL     1       9.287   3.894  24.010  0.00  0.00    -0.248 OA
BRANCH   5   7
ATOM      7  O   UNL     1       9.771   1.806  24.787  0.00  0.00    -0.479 OA
ATOM      8  H   UNL     1      10.482   2.315  25.251  0.00  0.00    +0.295 HD
ENDBRANCH   5   7
ENDBRANCH   4   5
BRANCH   4   9
ATOM      9  O   UNL     1       7.610   0.846  23.690  0.00  0.00    -0.378 OA
ATOM     10  H   UNL     1       8.222   0.562  24.389  0.00  0.00    +0.211 HD
ENDBRANCH   4   9
ENDBRANCH   1   4
BRANCH   1  11
ATOM     11  C   UNL     1       9.254   0.045  21.731  0.00  0.00    +0.206 C 
BRANCH  11  12
ATOM     12  O   UNL     1      10.300  -0.269  22.654  0.00  0.00    -0.284 OA
BRANCH  12  13
ATOM     13  P   UNL     1      10.053  -1.848  23.315  0.00  0.00    +0.472 P 
ATOM     14  O   UNL     1       9.832  -3.263  23.906  0.00  0.00    -0.228 OA
BRANCH  13  15
ATOM     15  O   UNL     1       8.594  -1.727  22.588  0.00  0.00    -0.303 OA
ATOM     16  H   UNL     1       7.975  -2.253  23.130  0.00  0.00    +0.222 HD
ENDBRANCH  13  15
BRANCH  13  17
ATOM     17  O   UNL     1       9.590  -1.050  24.667  0.00  0.00    -0.303 OA
ATOM     18  H   UNL     1       8.993  -0.310  24.457  0.00  0.00    +0.222 HD
ENDBRANCH  13  17
ENDBRANCH  12  13
ENDBRANCH  11  12
ENDBRANCH   1  11
TORSDOF 10
ENDMDL
MODEL 3
REMARK VINA RESULT:      -3.9      2.784      5.462
REMARK  Name = 
REMARK  10 active torsions:
REMARK  status: ('A' for Active; 'I' for Inactive)
REMARK    1  A    between atoms: O_1  and  C_2
REMARK    2  A    between atoms: C_2  and  C_4
REMARK    3  A    between atoms: C_2  and  C_10
REMARK    4  A    between atoms: C_4  and  O_5
REMARK    5  A    between atoms: O_5  and  P_6
REMARK    6  A    between atoms: P_6  and  O_7
REMARK    7  A    between atoms: P_6  and  O_8
REMARK    8  A    between atoms: C_10  and  O_12
REMARK    9  A    between atoms: C_10  and  C_13
REMARK   10  A    between atoms: C_13  and  O_14
REMARK                            x       y       z     vdW  Elec       q    Type
REMARK                         _______ _______ _______ _____ _____    ______ ____
ROOT
ATOM      1  C   UNL     1       9.501  -1.027  23.827  0.00  0.00    +0.180 C 
ENDROOT
BRANCH   1   2
ATOM      2  O   UNL     1       8.428  -0.095  24.011  0.00  0.00    -0.386 OA
ATOM      3  H   UNL     1       8.064   0.087  23.128  0.00  0.00    +0.210 HD
ENDBRANCH   1   2
BRANCH   1   4
ATOM      4  C   UNL     1      10.346  -0.644  22.598  0.00  0.00    +0.253 C 
BRANCH   4   5
ATOM      5  C   UNL     1       9.928   0.730  22.095  0.00  0.00    +0.336 C 
ATOM      6  O   UNL     1      10.311   1.792  22.571  0.00  0.00    -0.248 OA
BRANCH   5   7
ATOM      7  O   UNL     1       9.099   0.640  21.021  0.00  0.00    -0.479 OA
ATOM      8  H   UNL     1       8.178   0.563  21.376  0.00  0.00    +0.295 HD
ENDBRANCH   5   7
ENDBRANCH   4   5
BRANCH   4   9
ATOM      9  O   UNL     1      10.224  -1.580  21.506  0.00  0.00    -0.378 OA
ATOM     10  H   UNL     1      10.795  -2.344  21.695  0.00  0.00    +0.211 HD
ENDBRANCH   4   9
ENDBRANCH   1   4
BRANCH   1  11
ATOM     11  C   UNL     1       8.895  -2.419  23.653  0.00  0.00    +0.206 C 
BRANCH  11  12
ATOM     12  O   UNL     1       9.822  -3.421  24.079  0.00  0.00    -0.284 OA
BRANCH  12  13
ATOM     13  P   UNL     1       9.035  -4.544  25.134  0.00  0.00    +0.472 P 
ATOM     14  O   UNL     1       8.331  -5.550  26.079  0.00  0.00    -0.228 OA
BRANCH  13  15
ATOM     15  O   UNL     1      10.482  -5.306  25.107  0.00  0.00    -0.303 OA
ATOM     16  H   UNL     1      11.056  -4.779  24.521  0.00  0.00    +0.222 HD
ENDBRANCH  13  15
BRANCH  13  17
ATOM     17  O   UNL     1       8.498  -5.240  23.752  0.00  0.00    -0.303 OA
ATOM     18  H   UNL     1       7.549  -5.446  23.804  0.00  0.00    +0.222 HD
ENDBRANCH  13  17
ENDBRANCH  12  13
ENDBRANCH  11  12
ENDBRANCH   1  11
TORSDOF 10
ENDMDL
MODEL 4
REMARK VINA RESULT:      -3.9      3.156      5.852
REMARK  Name = 
REMARK  10 active torsions:
REMARK  status: ('A' for Active; 'I' for Inactive)
REMARK    1  A    between atoms: O_1  and  C_2
REMARK    2  A    between atoms: C_2  and  C_4
REMARK    3  A    between atoms: C_2  and  C_10
REMARK    4  A    between atoms: C_4  and  O_5
REMARK    5  A    between atoms: O_5  and  P_6
REMARK    6  A    between atoms: P_6  and  O_7
REMARK    7  A    between atoms: P_6  and  O_8
REMARK    8  A    between atoms: C_10  and  O_12
REMARK    9  A    between atoms: C_10  and  C_13
REMARK   10  A    between atoms: C_13  and  O_14
REMARK                            x       y       z     vdW  Elec       q    Type
REMARK                         _______ _______ _______ _____ _____    ______ ____
ROOT
ATOM      1  C   UNL     1       8.923  -0.130  22.180  0.00  0.00    +0.180 C 
ENDROOT
BRANCH   1   2
ATOM      2  O   UNL     1       9.860  -0.861  21.377  0.00  0.00    -0.386 OA
ATOM      3  H   UNL     1      10.173  -0.249  20.690  0.00  0.00    +0.210 HD
ENDBRANCH   1   2
BRANCH   1   4
ATOM      4  C   UNL     1       9.658   0.688  23.257  0.00  0.00    +0.253 C 
BRANCH   4   5
ATOM      5  C   UNL     1      10.108   2.020  22.673  0.00  0.00    +0.336 C 
ATOM      6  O   UNL     1      10.716   2.883  23.296  0.00  0.00    -0.248 OA
BRANCH   5   7
ATOM      7  O   UNL     1       9.783   2.127  21.357  0.00  0.00    -0.479 OA
ATOM      8  H   UNL     1       8.828   1.876  21.277  0.00  0.00    +0.295 HD
ENDBRANCH   5   7
ENDBRANCH   4   5
BRANCH   4   9
ATOM      9  O   UNL     1      10.818   0.017  23.793  0.00  0.00    -0.378 OA
ATOM     10  H   UNL     1      11.587   0.600  23.679  0.00  0.00    +0.211 HD
ENDBRANCH   4   9
ENDBRANCH   1   4
BRANCH   1  11
ATOM     11  C   UNL     1       7.966  -1.134  22.821  0.00  0.00    +0.206 C 
BRANCH  11  12
ATOM     12  O   UNL     1       8.459  -1.540  24.102  0.00  0.00    -0.284 OA
BRANCH  12  13
ATOM     13  P   UNL     1       8.688  -3.254  24.130  0.00  0.00    +0.472 P 
ATOM     14  O   UNL     1       8.894  -4.790  24.156  0.00  0.00    -0.228 OA
BRANCH  13  15
ATOM     15  O   UNL     1      10.220  -2.876  23.702  0.00  0.00    -0.303 OA
ATOM     16  H   UNL     1      10.411  -2.012  24.112  0.00  0.00    +0.222 HD
ENDBRANCH  13  15
BRANCH  13  17
ATOM     17  O   UNL     1       8.112  -3.209  22.598  0.00  0.00    -0.303 OA
ATOM     18  H   UNL     1       7.674  -2.361  22.407  0.00  0.00    +0.222 HD
ENDBRANCH  13  17
ENDBRANCH  12  13
ENDBRANCH  11  12
ENDBRANCH   1  11
TORSDOF 10
ENDMDL
MODEL 5
REMARK VINA RESULT:      -3.9      1.749      4.366
REMARK  Name = 
REMARK  10 active torsions:
REMARK  status: ('A' for Active; 'I' for Inactive)
REMARK    1  A    between atoms: O_1  and  C_2
REMARK    2  A    between atoms: C_2  and  C_4
REMARK    3  A    between atoms: C_2  and  C_10
REMARK    4  A    between atoms: C_4  and  O_5
REMARK    5  A    between atoms: O_5  and  P_6
REMARK    6  A    between atoms: P_6  and  O_7
REMARK    7  A    between atoms: P_6  and  O_8
REMARK    8  A    between atoms: C_10  and  O_12
REMARK    9  A    between atoms: C_10  and  C_13
REMARK   10  A    between atoms: C_13  and  O_14
REMARK                            x       y       z     vdW  Elec       q    Type
REMARK                         _______ _______ _______ _____ _____    ______ ____
ROOT
ATOM      1  C   UNL     1       7.336  -2.445  23.926  0.00  0.00    +0.180 C 
ENDROOT
BRANCH   1   2
ATOM      2  O   UNL     1       7.582  -3.184  22.722  0.00  0.00    -0.386 OA
ATOM      3  H   UNL     1       7.130  -4.039  22.825  0.00  0.00    +0.210 HD
ENDBRANCH   1   2
BRANCH   1   4
ATOM      4  C   UNL     1       8.640  -1.817  24.450  0.00  0.00    +0.253 C 
BRANCH   4   5
ATOM      5  C   UNL     1       9.832  -2.414  23.715  0.00  0.00    +0.336 C 
ATOM      6  O   UNL     1      10.440  -1.858  22.809  0.00  0.00    -0.248 OA
BRANCH   5   7
ATOM      7  O   UNL     1      10.166  -3.635  24.211  0.00  0.00    -0.479 OA
ATOM      8  H   UNL     1       9.938  -3.625  25.175  0.00  0.00    +0.295 HD
ENDBRANCH   5   7
ENDBRANCH   4   5
BRANCH   4   9
ATOM      9  O   UNL     1       8.840  -2.014  25.867  0.00  0.00    -0.378 OA
ATOM     10  H   UNL     1       9.038  -2.953  26.018  0.00  0.00    +0.211 HD
ENDBRANCH   4   9
ENDBRANCH   1   4
BRANCH   1  11
ATOM     11  C   UNL     1       6.744  -3.403  24.957  0.00  0.00    +0.206 C 
BRANCH  11  12
ATOM     12  O   UNL     1       7.518  -4.605  25.019  0.00  0.00    -0.284 OA
BRANCH  12  13
ATOM     13  P   UNL     1       7.402  -5.301  26.599  0.00  0.00    +0.472 P 
ATOM     14  O   UNL     1       7.298  -5.925  28.013  0.00  0.00    -0.228 OA
BRANCH  13  15
ATOM     15  O   UNL     1       6.914  -3.801  27.028  0.00  0.00    -0.303 OA
ATOM     16  H   UNL     1       6.118  -3.611  26.498  0.00  0.00    +0.222 HD
ENDBRANCH  13  15
BRANCH  13  17
ATOM     17  O   UNL     1       8.998  -4.953  26.709  0.00  0.00    -0.303 OA
ATOM     18  H   UNL     1       9.481  -5.648  27.190  0.00  0.00    +0.222 HD
ENDBRANCH  13  17
ENDBRANCH  12  13
ENDBRANCH  11  12
ENDBRANCH   1  11
TORSDOF 10
ENDMDL
MODEL 6
REMARK VINA RESULT:      -3.9      2.103      3.287
REMARK  Name = 
REMARK  10 active torsions:
REMARK  status: ('A' for Active; 'I' for Inactive)
REMARK    1  A    between atoms: O_1  and  C_2
REMARK    2  A    between atoms: C_2  and  C_4
REMARK    3  A    between atoms: C_2  and  C_10
REMARK    4  A    between atoms: C_4  and  O_5
REMARK    5  A    between atoms: O_5  and  P_6
REMARK    6  A    between atoms: P_6  and  O_7
REMARK    7  A    between atoms: P_6  and  O_8
REMARK    8  A    between atoms: C_10  and  O_12
REMARK    9  A    between atoms: C_10  and  C_13
REMARK   10  A    between atoms: C_13  and  O_14
REMARK                            x       y       z     vdW  Elec       q    Type
REMARK                         _______ _______ _______ _____ _____    ______ ____
ROOT
ATOM      1  C   UNL     1       9.343  -4.781  25.221  0.00  0.00    +0.180 C 
ENDROOT
BRANCH   1   2
ATOM      2  O   UNL     1       9.883  -6.049  25.617  0.00  0.00    -0.386 OA
ATOM      3  H   UNL     1       9.445  -6.289  26.451  0.00  0.00    +0.210 HD
ENDBRANCH   1   2
BRANCH   1   4
ATOM      4  C   UNL     1       8.695  -4.071  26.423  0.00  0.00    +0.253 C 
BRANCH   4   5
ATOM      5  C   UNL     1       7.472  -4.852  26.884  0.00  0.00    +0.336 C 
ATOM      6  O   UNL     1       6.314  -4.545  26.630  0.00  0.00    -0.248 OA
BRANCH   5   7
ATOM      7  O   UNL     1       7.823  -5.960  27.590  0.00  0.00    -0.479 OA
ATOM      8  H   UNL     1       8.082  -6.650  26.929  0.00  0.00    +0.295 HD
ENDBRANCH   5   7
ENDBRANCH   4   5
BRANCH   4   9
ATOM      9  O   UNL     1       8.281  -2.718  26.131  0.00  0.00    -0.378 OA
ATOM     10  H   UNL     1       8.423  -2.554  25.184  0.00  0.00    +0.211 HD
ENDBRANCH   4   9
ENDBRANCH   1   4
BRANCH   1  11
ATOM     11  C   UNL     1       8.315  -5.028  24.119  0.00  0.00    +0.206 C 
BRANCH  11  12
ATOM     12  O   UNL     1       8.032  -3.811  23.422  0.00  0.00    -0.284 OA
BRANCH  12  13
ATOM     13  P   UNL     1       6.406  -3.832  22.832  0.00  0.00    +0.472 P 
ATOM     14  O   UNL     1       4.951  -3.849  22.303  0.00  0.00    -0.228 OA
BRANCH  13  15
ATOM     15  O   UNL     1       6.104  -2.925  24.158  0.00  0.00    -0.303 OA
ATOM     16  H   UNL     1       5.581  -3.487  24.759  0.00  0.00    +0.222 HD
ENDBRANCH  13  15
BRANCH  13  17
ATOM     17  O   UNL     1       6.292  -5.260  23.624  0.00  0.00    -0.303 OA
ATOM     18  H   UNL     1       6.816  -5.953  23.185  0.00  0.00    +0.222 HD
ENDBRANCH  13  17
ENDBRANCH  12  13
ENDBRANCH  11  12
ENDBRANCH   1  11
TORSDOF 10
ENDMDL
MODEL 7
REMARK VINA RESULT:      -3.8      2.841      5.318
REMARK  Name = 
REMARK  10 active torsions:
REMARK  status: ('A' for Active; 'I' for Inactive)
REMARK    1  A    between atoms: O_1  and  C_2
REMARK    2  A    between atoms: C_2  and  C_4
REMARK    3  A    between atoms: C_2  and  C_10
REMARK    4  A    between atoms: C_4  and  O_5
REMARK    5  A    between atoms: O_5  and  P_6
REMARK    6  A    between atoms: P_6  and  O_7
REMARK    7  A    between atoms: P_6  and  O_8
REMARK    8  A    between atoms: C_10  and  O_12
REMARK    9  A    between atoms: C_10  and  C_13
REMARK   10  A    between atoms: C_13  and  O_14
REMARK                            x       y       z     vdW  Elec       q    Type
REMARK                         _______ _______ _______ _____ _____    ______ ____
ROOT
ATOM      1  C   UNL     1       6.868  -4.724  25.495  0.00  0.00    +0.180 C 
ENDROOT
BRANCH   1   2
ATOM      2  O   UNL     1       7.032  -5.251  24.172  0.00  0.00    -0.386 OA
ATOM      3  H   UNL     1       6.176  -5.145  23.723  0.00  0.00    +0.210 HD
ENDBRANCH   1   2
BRANCH   1   4
ATOM      4  C   UNL     1       8.218  -4.685  26.233  0.00  0.00    +0.253 C 
BRANCH   4   5
ATOM      5  C   UNL     1       9.355  -4.852  25.235  0.00  0.00    +0.336 C 
ATOM      6  O   UNL     1       9.795  -3.956  24.525  0.00  0.00    -0.248 OA
BRANCH   5   7
ATOM      7  O   UNL     1       9.853  -6.117  25.250  0.00  0.00    -0.479 OA
ATOM      8  H   UNL     1       9.272  -6.660  24.661  0.00  0.00    +0.295 HD
ENDBRANCH   5   7
ENDBRANCH   4   5
BRANCH   4   9
ATOM      9  O   UNL     1       8.348  -5.711  27.240  0.00  0.00    -0.378 OA
ATOM     10  H   UNL     1       7.730  -6.429  27.025  0.00  0.00    +0.211 HD
ENDBRANCH   4   9
ENDBRANCH   1   4
BRANCH   1  11
ATOM     11  C   UNL     1       5.870  -5.612  26.237  0.00  0.00    +0.206 C 
BRANCH  11  12
ATOM     12  O   UNL     1       5.363  -4.932  27.390  0.00  0.00    -0.284 OA
BRANCH  12  13
ATOM     13  P   UNL     1       4.931  -6.080  28.610  0.00  0.00    +0.472 P 
ATOM     14  O   UNL     1       4.544  -7.106  29.704  0.00  0.00    -0.228 OA
BRANCH  13  15
ATOM     15  O   UNL     1       6.314  -5.574  29.320  0.00  0.00    -0.303 OA
ATOM     16  H   UNL     1       7.007  -6.203  29.046  0.00  0.00    +0.222 HD
ENDBRANCH  13  15
BRANCH  13  17
ATOM     17  O   UNL     1       5.676  -7.170  27.642  0.00  0.00    -0.303 OA
ATOM     18  H   UNL     1       5.125  -7.961  27.507  0.00  0.00    +0.222 HD
ENDBRANCH  13  17
ENDBRANCH  12  13
ENDBRANCH  11  12
ENDBRANCH   1  11
TORSDOF 10
ENDMDL
MODEL 8
REMARK VINA RESULT:      -3.8      4.317      6.427
REMARK  Name = 
REMARK  10 active torsions:
REMARK  status: ('A' for Active; 'I' for Inactive)
REMARK    1  A    between atoms: O_1  and  C_2
REMARK    2  A    between atoms: C_2  and  C_4
REMARK    3  A    between atoms: C_2  and  C_10
REMARK    4  A    between atoms: C_4  and  O_5
REMARK    5  A    between atoms: O_5  and  P_6
REMARK    6  A    between atoms: P_6  and  O_7
REMARK    7  A    between atoms: P_6  and  O_8
REMARK    8  A    between atoms: C_10  and  O_12
REMARK    9  A    between atoms: C_10  and  C_13
REMARK   10  A    between atoms: C_13  and  O_14
REMARK                            x       y       z     vdW  Elec       q    Type
REMARK                         _______ _______ _______ _____ _____    ______ ____
ROOT
ATOM      1  C   UNL     1       9.381   1.997  24.045  0.00  0.00    +0.180 C 
ENDROOT
BRANCH   1   2
ATOM      2  O   UNL     1       8.129   1.335  24.265  0.00  0.00    -0.386 OA
ATOM      3  H   UNL     1       7.472   2.032  24.433  0.00  0.00    +0.210 HD
ENDBRANCH   1   2
BRANCH   1   4
ATOM      4  C   UNL     1       9.342   2.806  22.735  0.00  0.00    +0.253 C 
BRANCH   4   5
ATOM      5  C   UNL     1       8.156   2.362  21.891  0.00  0.00    +0.336 C 
ATOM      6  O   UNL     1       7.049   2.888  21.915  0.00  0.00    -0.248 OA
BRANCH   5   7
ATOM      7  O   UNL     1       8.481   1.324  21.075  0.00  0.00    -0.479 OA
ATOM      8  H   UNL     1       8.919   0.641  21.642  0.00  0.00    +0.295 HD
ENDBRANCH   5   7
ENDBRANCH   4   5
BRANCH   4   9
ATOM      9  O   UNL     1      10.539   2.662  21.940  0.00  0.00    -0.378 OA
ATOM     10  H   UNL     1      11.305   2.858  22.505  0.00  0.00    +0.211 HD
ENDBRANCH   4   9
ENDBRANCH   1   4
BRANCH   1  11
ATOM     11  C   UNL     1      10.476   0.934  23.992  0.00  0.00    +0.206 C 
BRANCH  11  12
ATOM     12  O   UNL     1      10.323   0.122  22.824  0.00  0.00    -0.284 OA
BRANCH  12  13
ATOM     13  P   UNL     1      10.047  -1.524  23.280  0.00  0.00    +0.472 P 
ATOM     14  O   UNL     1       9.801  -2.998  23.688  0.00  0.00    -0.228 OA
BRANCH  13  15
ATOM     15  O   UNL     1      10.522  -1.840  21.748  0.00  0.00    -0.303 OA
ATOM     16  H   UNL     1      10.140  -2.707  21.518  0.00  0.00    +0.222 HD
ENDBRANCH  13  15
BRANCH  13  17
ATOM     17  O   UNL     1       8.490  -1.222  22.872  0.00  0.00    -0.303 OA
ATOM     18  H   UNL     1       8.321  -1.431  21.937  0.00  0.00    +0.222 HD
ENDBRANCH  13  17
ENDBRANCH  12  13
ENDBRANCH  11  12
ENDBRANCH   1  11
TORSDOF 10
ENDMDL
MODEL 9
REMARK VINA RESULT:      -3.8      4.222      6.547
REMARK  Name = 
REMARK  10 active torsions:
REMARK  status: ('A' for Active; 'I' for Inactive)
REMARK    1  A    between atoms: O_1  and  C_2
REMARK    2  A    between atoms: C_2  and  C_4
REMARK    3  A    between atoms: C_2  and  C_10
REMARK    4  A    between atoms: C_4  and  O_5
REMARK    5  A    between atoms: O_5  and  P_6
REMARK    6  A    between atoms: P_6  and  O_7
REMARK    7  A    between atoms: P_6  and  O_8
REMARK    8  A    between atoms: C_10  and  O_12
REMARK    9  A    between atoms: C_10  and  C_13
REMARK   10  A    between atoms: C_13  and  O_14
REMARK                            x       y       z     vdW  Elec       q    Type
REMARK                         _______ _______ _______ _____ _____    ______ ____
ROOT
ATOM      1  C   UNL     1       8.160   2.068  22.779  0.00  0.00    +0.180 C 
ENDROOT
BRANCH   1   2
ATOM      2  O   UNL     1       8.965   2.280  21.611  0.00  0.00    -0.386 OA
ATOM      3  H   UNL     1       8.980   1.436  21.129  0.00  0.00    +0.210 HD
ENDBRANCH   1   2
BRANCH   1   4
ATOM      4  C   UNL     1       8.827   2.695  24.016  0.00  0.00    +0.253 C 
BRANCH   4   5
ATOM      5  C   UNL     1      10.203   3.231  23.644  0.00  0.00    +0.336 C 
ATOM      6  O   UNL     1      11.224   2.555  23.600  0.00  0.00    -0.248 OA
BRANCH   5   7
ATOM      7  O   UNL     1      10.158   4.553  23.328  0.00  0.00    -0.479 OA
ATOM      8  H   UNL     1      10.430   4.630  22.379  0.00  0.00    +0.295 HD
ENDBRANCH   5   7
ENDBRANCH   4   5
BRANCH   4   9
ATOM      9  O   UNL     1       8.987   1.768  25.111  0.00  0.00    -0.378 OA
ATOM     10  H   UNL     1       9.492   1.002  24.790  0.00  0.00    +0.211 HD
ENDBRANCH   4   9
ENDBRANCH   1   4
BRANCH   1  11
ATOM     11  C   UNL     1       7.982   0.562  22.964  0.00  0.00    +0.206 C 
BRANCH  11  12
ATOM     12  O   UNL     1       8.843  -0.152  22.072  0.00  0.00    -0.284 OA
BRANCH  12  13
ATOM     13  P   UNL     1       9.553  -1.501  22.889  0.00  0.00    +0.472 P 
ATOM     14  O   UNL     1      10.189  -2.709  23.621  0.00  0.00    -0.228 OA
BRANCH  13  15
ATOM     15  O   UNL     1      10.501  -0.358  23.573  0.00  0.00    -0.303 OA
ATOM     16  H   UNL     1       9.978   0.465  23.572  0.00  0.00    +0.222 HD
ENDBRANCH  13  15
BRANCH  13  17
ATOM     17  O   UNL     1      10.475  -1.643  21.543  0.00  0.00    -0.303 OA
ATOM     18  H   UNL     1      11.276  -1.093  21.601  0.00  0.00    +0.222 HD
ENDBRANCH  13  17
ENDBRANCH  12  13
ENDBRANCH  11  12
ENDBRANCH   1  11
TORSDOF 10
ENDMDL
