MODEL 1
REMARK VINA RESULT:      -6.3      0.000      0.000
REMARK  Name = 
REMARK  11 active torsions:
REMARK  status: ('A' for Active; 'I' for Inactive)
REMARK    1  A    between atoms: C_2  and  C_3
REMARK    2  A    between atoms: C_2  and  C_5
REMARK    3  A    between atoms: C_2  and  C_7
REMARK    4  A    between atoms: C_3  and  C_4
REMARK    5  A    between atoms: C_7  and  C_9
REMARK    6  A    between atoms: C_7  and  C_21
REMARK    7  A    between atoms: C_9  and  N_10
REMARK    8  A    between atoms: N_10  and  S_11
REMARK    9  A    between atoms: S_11  and  C_14
REMARK   10  A    between atoms: C_17  and  C_18
REMARK   11  A    between atoms: C_21  and  O_22
REMARK                            x       y       z     vdW  Elec       q    Type
REMARK                         _______ _______ _______ _____ _____    ______ ____
ROOT
ATOM      1  N   UNL     1       8.444  -2.257  24.614  0.00  0.00    -0.189 NA
ATOM      2  H   UNL     1       9.132  -2.565  25.318  0.00  0.00    +0.148 HD
ENDROOT
BRANCH   1   3
ATOM      3  S   UNL     1       9.261  -2.066  23.129  0.00  0.00    +0.058 S 
ATOM      4  O   UNL     1       8.288  -2.206  22.068  0.00  0.00    -0.153 OA
ATOM      5  O   UNL     1      10.432  -2.909  23.204  0.00  0.00    -0.153 OA
BRANCH   3   6
ATOM      6  C   UNL     1       9.784  -0.375  23.206  0.00  0.00    +0.105 A 
ATOM      7  C   UNL     1       9.726   0.409  22.050  0.00  0.00    +0.029 A 
ATOM      8  C   UNL     1      10.072   1.756  22.115  0.00  0.00    +0.005 A 
ATOM      9  C   UNL     1      10.505   2.322  23.320  0.00  0.00    -0.050 A 
ATOM     10  C   UNL     1      10.841   3.782  23.379  0.00  0.00    +0.044 C 
ATOM     11  C   UNL     1      10.614   1.510  24.457  0.00  0.00    +0.005 A 
ATOM     12  C   UNL     1      10.258   0.160  24.403  0.00  0.00    +0.029 A 
ENDBRANCH   3   6
ENDBRANCH   1   3
BRANCH   1  13
ATOM     13  C   UNL     1       7.203  -3.066  24.583  0.00  0.00    +0.121 C 
BRANCH  13  14
ATOM     14  C   UNL     1       7.447  -4.517  24.114  0.00  0.00    +0.123 C 
BRANCH  14  15
ATOM     15  C   UNL     1       8.313  -5.199  25.151  0.00  0.00    +0.310 C 
ATOM     16  O   UNL     1       7.885  -5.656  26.201  0.00  0.00    -0.251 OA
BRANCH  15  17
ATOM     17  O   UNL     1       9.614  -5.295  24.805  0.00  0.00    -0.480 OA
ATOM     18  H   UNL     1      10.119  -6.004  25.246  0.00  0.00    +0.295 HD
ENDBRANCH  15  17
ENDBRANCH  14  15
BRANCH  14  19
ATOM     19  C   UNL     1       6.158  -5.327  23.852  0.00  0.00    +0.067 C 
BRANCH  19  20
ATOM     20  C   UNL     1       4.965  -4.402  23.727  0.00  0.00    +0.227 C 
ATOM     21  O   UNL     1       4.095  -4.547  22.874  0.00  0.00    -0.301 OA
ENDBRANCH  19  20
BRANCH  19  22
ATOM     22  C   UNL     1       6.202  -6.242  22.608  0.00  0.00    +0.008 C 
ATOM     23  C   UNL     1       7.088  -5.761  21.463  0.00  0.00    +0.004 C 
ENDBRANCH  19  22
ENDBRANCH  14  19
ENDBRANCH  13  14
ENDBRANCH   1  13
TORSDOF 9
ENDMDL
MODEL 2
REMARK VINA RESULT:      -6.2      2.133      3.731
REMARK  Name = 
REMARK  11 active torsions:
REMARK  status: ('A' for Active; 'I' for Inactive)
REMARK    1  A    between atoms: C_2  and  C_3
REMARK    2  A    between atoms: C_2  and  C_5
REMARK    3  A    between atoms: C_2  and  C_7
REMARK    4  A    between atoms: C_3  and  C_4
REMARK    5  A    between atoms: C_7  and  C_9
REMARK    6  A    between atoms: C_7  and  C_21
REMARK    7  A    between atoms: C_9  and  N_10
REMARK    8  A    between atoms: N_10  and  S_11
REMARK    9  A    between atoms: S_11  and  C_14
REMARK   10  A    between atoms: C_17  and  C_18
REMARK   11  A    between atoms: C_21  and  O_22
REMARK                            x       y       z     vdW  Elec       q    Type
REMARK                         _______ _______ _______ _____ _____    ______ ____
ROOT
ATOM      1  N   UNL     1       6.037  -3.470  24.065  0.00  0.00    -0.189 NA
ATOM      2  H   UNL     1       6.074  -2.517  24.460  0.00  0.00    +0.148 HD
ENDROOT
BRANCH   1   3
ATOM      3  S   UNL     1       6.523  -3.380  22.433  0.00  0.00    +0.058 S 
ATOM      4  O   UNL     1       5.341  -3.151  21.632  0.00  0.00    -0.153 OA
ATOM      5  O   UNL     1       7.387  -4.516  22.208  0.00  0.00    -0.153 OA
BRANCH   3   6
ATOM      6  C   UNL     1       7.515  -1.912  22.419  0.00  0.00    +0.105 A 
ATOM      7  C   UNL     1       8.826  -1.979  21.937  0.00  0.00    +0.029 A 
ATOM      8  C   UNL     1       9.591  -0.818  21.860  0.00  0.00    +0.005 A 
ATOM      9  C   UNL     1       9.068   0.408  22.289  0.00  0.00    -0.050 A 
ATOM     10  C   UNL     1       9.894   1.653  22.167  0.00  0.00    +0.044 C 
ATOM     11  C   UNL     1       7.773   0.450  22.824  0.00  0.00    +0.005 A 
ATOM     12  C   UNL     1       6.995  -0.709  22.894  0.00  0.00    +0.029 A 
ENDBRANCH   3   6
ENDBRANCH   1   3
BRANCH   1  13
ATOM     13  C   UNL     1       6.704  -4.498  24.896  0.00  0.00    +0.121 C 
BRANCH  13  14
ATOM     14  C   UNL     1       7.272  -3.926  26.213  0.00  0.00    +0.123 C 
BRANCH  14  15
ATOM     15  C   UNL     1       7.249  -5.031  27.246  0.00  0.00    +0.310 C 
ATOM     16  O   UNL     1       6.548  -5.012  28.248  0.00  0.00    -0.251 OA
BRANCH  15  17
ATOM     17  O   UNL     1       8.052  -6.076  26.954  0.00  0.00    -0.480 OA
ATOM     18  H   UNL     1       8.104  -6.774  27.634  0.00  0.00    +0.295 HD
ENDBRANCH  15  17
ENDBRANCH  14  15
BRANCH  14  19
ATOM     19  C   UNL     1       8.686  -3.317  26.087  0.00  0.00    +0.067 C 
BRANCH  19  20
ATOM     20  C   UNL     1       9.431  -3.944  24.927  0.00  0.00    +0.227 C 
ATOM     21  O   UNL     1      10.146  -4.934  25.050  0.00  0.00    -0.301 OA
ENDBRANCH  19  20
BRANCH  19  22
ATOM     22  C   UNL     1       8.727  -1.782  25.925  0.00  0.00    +0.008 C 
ATOM     23  C   UNL     1       7.586  -1.016  26.588  0.00  0.00    +0.004 C 
ENDBRANCH  19  22
ENDBRANCH  14  19
ENDBRANCH  13  14
ENDBRANCH   1  13
TORSDOF 9
ENDMDL
MODEL 3
REMARK VINA RESULT:      -6.1      1.662      2.358
REMARK  Name = 
REMARK  11 active torsions:
REMARK  status: ('A' for Active; 'I' for Inactive)
REMARK    1  A    between atoms: C_2  and  C_3
REMARK    2  A    between atoms: C_2  and  C_5
REMARK    3  A    between atoms: C_2  and  C_7
REMARK    4  A    between atoms: C_3  and  C_4
REMARK    5  A    between atoms: C_7  and  C_9
REMARK    6  A    between atoms: C_7  and  C_21
REMARK    7  A    between atoms: C_9  and  N_10
REMARK    8  A    between atoms: N_10  and  S_11
REMARK    9  A    between atoms: S_11  and  C_14
REMARK   10  A    between atoms: C_17  and  C_18
REMARK   11  A    between atoms: C_21  and  O_22
REMARK                            x       y       z     vdW  Elec       q    Type
REMARK                         _______ _______ _______ _____ _____    ______ ____
ROOT
ATOM      1  N   UNL     1       8.709  -2.326  24.854  0.00  0.00    -0.189 NA
ATOM      2  H   UNL     1       9.503  -2.675  25.411  0.00  0.00    +0.148 HD
ENDROOT
BRANCH   1   3
ATOM      3  S   UNL     1       9.259  -2.067  23.261  0.00  0.00    +0.058 S 
ATOM      4  O   UNL     1       8.145  -2.291  22.366  0.00  0.00    -0.153 OA
ATOM      5  O   UNL     1      10.495  -2.806  23.137  0.00  0.00    -0.153 OA
BRANCH   3   6
ATOM      6  C   UNL     1       9.642  -0.337  23.273  0.00  0.00    +0.105 A 
ATOM      7  C   UNL     1       9.814   0.314  24.498  0.00  0.00    +0.029 A 
ATOM      8  C   UNL     1      10.180   1.658  24.517  0.00  0.00    +0.005 A 
ATOM      9  C   UNL     1      10.347   2.366  23.322  0.00  0.00    -0.050 A 
ATOM     10  C   UNL     1      10.774   3.802  23.361  0.00  0.00    +0.044 C 
ATOM     11  C   UNL     1      10.114   1.716  22.102  0.00  0.00    +0.005 A 
ATOM     12  C   UNL     1       9.757   0.365  22.074  0.00  0.00    +0.029 A 
ENDBRANCH   3   6
ENDBRANCH   1   3
BRANCH   1  13
ATOM     13  C   UNL     1       7.467  -3.119  25.001  0.00  0.00    +0.121 C 
BRANCH  13  14
ATOM     14  C   UNL     1       7.739  -4.634  25.134  0.00  0.00    +0.123 C 
BRANCH  14  15
ATOM     15  C   UNL     1       9.119  -4.806  25.728  0.00  0.00    +0.310 C 
ATOM     16  O   UNL     1       9.382  -4.613  26.907  0.00  0.00    -0.251 OA
BRANCH  15  17
ATOM     17  O   UNL     1      10.050  -5.229  24.848  0.00  0.00    -0.480 OA
ATOM     18  H   UNL     1      10.087  -4.741  24.003  0.00  0.00    +0.295 HD
ENDBRANCH  15  17
ENDBRANCH  14  15
BRANCH  14  19
ATOM     19  C   UNL     1       6.682  -5.401  25.959  0.00  0.00    +0.067 C 
BRANCH  19  20
ATOM     20  C   UNL     1       6.172  -4.542  27.098  0.00  0.00    +0.227 C 
ATOM     21  O   UNL     1       6.354  -4.823  28.279  0.00  0.00    -0.301 OA
ENDBRANCH  19  20
BRANCH  19  22
ATOM     22  C   UNL     1       5.471  -5.919  25.154  0.00  0.00    +0.008 C 
ATOM     23  C   UNL     1       4.525  -6.851  25.906  0.00  0.00    +0.004 C 
ENDBRANCH  19  22
ENDBRANCH  14  19
ENDBRANCH  13  14
ENDBRANCH   1  13
TORSDOF 9
ENDMDL
MODEL 4
REMARK VINA RESULT:      -6.1      2.759      6.722
REMARK  Name = 
REMARK  11 active torsions:
REMARK  status: ('A' for Active; 'I' for Inactive)
REMARK    1  A    between atoms: C_2  and  C_3
REMARK    2  A    between atoms: C_2  and  C_5
REMARK    3  A    between atoms: C_2  and  C_7
REMARK    4  A    between atoms: C_3  and  C_4
REMARK    5  A    between atoms: C_7  and  C_9
REMARK    6  A    between atoms: C_7  and  C_21
REMARK    7  A    between atoms: C_9  and  N_10
REMARK    8  A    between atoms: N_10  and  S_11
REMARK    9  A    between atoms: S_11  and  C_14
REMARK   10  A    between atoms: C_17  and  C_18
REMARK   11  A    between atoms: C_21  and  O_22
REMARK                            x       y       z     vdW  Elec       q    Type
REMARK                         _______ _______ _______ _____ _____    ______ ____
ROOT
ATOM      1  N   UNL     1       6.332   0.132  23.767  0.00  0.00    -0.189 NA
ATOM      2  H   UNL     1       6.074  -0.237  22.839  0.00  0.00    +0.148 HD
ENDROOT
BRANCH   1   3
ATOM      3  S   UNL     1       6.101  -1.113  24.909  0.00  0.00    +0.058 S 
ATOM      4  O   UNL     1       4.734  -1.036  25.376  0.00  0.00    -0.153 OA
ATOM      5  O   UNL     1       7.221  -1.037  25.819  0.00  0.00    -0.153 OA
BRANCH   3   6
ATOM      6  C   UNL     1       6.285  -2.569  23.917  0.00  0.00    +0.105 A 
ATOM      7  C   UNL     1       6.603  -3.781  24.537  0.00  0.00    +0.029 A 
ATOM      8  C   UNL     1       6.684  -4.943  23.774  0.00  0.00    +0.005 A 
ATOM      9  C   UNL     1       6.480  -4.901  22.390  0.00  0.00    -0.050 A 
ATOM     10  C   UNL     1       6.538  -6.168  21.590  0.00  0.00    +0.044 C 
ATOM     11  C   UNL     1       6.221  -3.669  21.773  0.00  0.00    +0.005 A 
ATOM     12  C   UNL     1       6.127  -2.500  22.533  0.00  0.00    +0.029 A 
ENDBRANCH   3   6
ENDBRANCH   1   3
BRANCH   1  13
ATOM     13  C   UNL     1       7.640   0.825  23.803  0.00  0.00    +0.121 C 
BRANCH  13  14
ATOM     14  C   UNL     1       8.466   0.610  22.515  0.00  0.00    +0.123 C 
BRANCH  14  15
ATOM     15  C   UNL     1       8.715   1.967  21.894  0.00  0.00    +0.310 C 
ATOM     16  O   UNL     1       7.851   2.820  21.753  0.00  0.00    -0.251 OA
BRANCH  15  17
ATOM     17  O   UNL     1       9.997   2.180  21.531  0.00  0.00    -0.480 OA
ATOM     18  H   UNL     1      10.225   1.933  20.614  0.00  0.00    +0.295 HD
ENDBRANCH  15  17
ENDBRANCH  14  15
BRANCH  14  19
ATOM     19  C   UNL     1       9.792  -0.152  22.728  0.00  0.00    +0.067 C 
BRANCH  19  20
ATOM     20  C   UNL     1      10.351   0.130  24.107  0.00  0.00    +0.227 C 
ATOM     21  O   UNL     1      11.123   1.057  24.337  0.00  0.00    -0.301 OA
ENDBRANCH  19  20
BRANCH  19  22
ATOM     22  C   UNL     1       9.706  -1.682  22.537  0.00  0.00    +0.008 C 
ATOM     23  C   UNL     1       9.946  -2.520  23.790  0.00  0.00    +0.004 C 
ENDBRANCH  19  22
ENDBRANCH  14  19
ENDBRANCH  13  14
ENDBRANCH   1  13
TORSDOF 9
ENDMDL
MODEL 5
REMARK VINA RESULT:      -5.9      1.358      2.905
REMARK  Name = 
REMARK  11 active torsions:
REMARK  status: ('A' for Active; 'I' for Inactive)
REMARK    1  A    between atoms: C_2  and  C_3
REMARK    2  A    between atoms: C_2  and  C_5
REMARK    3  A    between atoms: C_2  and  C_7
REMARK    4  A    between atoms: C_3  and  C_4
REMARK    5  A    between atoms: C_7  and  C_9
REMARK    6  A    between atoms: C_7  and  C_21
REMARK    7  A    between atoms: C_9  and  N_10
REMARK    8  A    between atoms: N_10  and  S_11
REMARK    9  A    between atoms: S_11  and  C_14
REMARK   10  A    between atoms: C_17  and  C_18
REMARK   11  A    between atoms: C_21  and  O_22
REMARK                            x       y       z     vdW  Elec       q    Type
REMARK                         _______ _______ _______ _____ _____    ______ ____
ROOT
ATOM      1  N   UNL     1       7.581  -1.807  23.470  0.00  0.00    -0.189 NA
ATOM      2  H   UNL     1       7.170  -0.861  23.512  0.00  0.00    +0.148 HD
ENDROOT
BRANCH   1   3
ATOM      3  S   UNL     1       9.239  -1.643  23.104  0.00  0.00    +0.058 S 
ATOM      4  O   UNL     1       9.429  -2.044  21.727  0.00  0.00    -0.153 OA
ATOM      5  O   UNL     1       9.954  -2.278  24.187  0.00  0.00    -0.153 OA
BRANCH   3   6
ATOM      6  C   UNL     1       9.477   0.108  23.226  0.00  0.00    +0.105 A 
ATOM      7  C   UNL     1       9.196   0.751  24.435  0.00  0.00    +0.029 A 
ATOM      8  C   UNL     1       9.443   2.116  24.561  0.00  0.00    +0.005 A 
ATOM      9  C   UNL     1       9.943   2.852  23.480  0.00  0.00    -0.050 A 
ATOM     10  C   UNL     1      10.235   4.313  23.645  0.00  0.00    +0.044 C 
ATOM     11  C   UNL     1      10.165   2.205  22.257  0.00  0.00    +0.005 A 
ATOM     12  C   UNL     1       9.930   0.834  22.125  0.00  0.00    +0.029 A 
ENDBRANCH   3   6
ENDBRANCH   1   3
BRANCH   1  13
ATOM     13  C   UNL     1       7.243  -2.667  24.627  0.00  0.00    +0.121 C 
BRANCH  13  14
ATOM     14  C   UNL     1       6.326  -3.850  24.244  0.00  0.00    +0.123 C 
BRANCH  14  15
ATOM     15  C   UNL     1       6.215  -3.879  22.735  0.00  0.00    +0.310 C 
ATOM     16  O   UNL     1       5.256  -3.443  22.115  0.00  0.00    -0.251 OA
BRANCH  15  17
ATOM     17  O   UNL     1       7.291  -4.404  22.113  0.00  0.00    -0.480 OA
ATOM     18  H   UNL     1       7.826  -3.778  21.589  0.00  0.00    +0.295 HD
ENDBRANCH  15  17
ENDBRANCH  14  15
BRANCH  14  19
ATOM     19  C   UNL     1       6.789  -5.219  24.790  0.00  0.00    +0.067 C 
BRANCH  19  20
ATOM     20  C   UNL     1       8.268  -5.187  25.117  0.00  0.00    +0.227 C 
ATOM     21  O   UNL     1       9.136  -5.506  24.310  0.00  0.00    -0.301 OA
ENDBRANCH  19  20
BRANCH  19  22
ATOM     22  C   UNL     1       6.022  -5.721  26.033  0.00  0.00    +0.008 C 
ATOM     23  C   UNL     1       6.682  -5.435  27.379  0.00  0.00    +0.004 C 
ENDBRANCH  19  22
ENDBRANCH  14  19
ENDBRANCH  13  14
ENDBRANCH   1  13
TORSDOF 9
ENDMDL
MODEL 6
REMARK VINA RESULT:      -5.9      2.006      2.519
REMARK  Name = 
REMARK  11 active torsions:
REMARK  status: ('A' for Active; 'I' for Inactive)
REMARK    1  A    between atoms: C_2  and  C_3
REMARK    2  A    between atoms: C_2  and  C_5
REMARK    3  A    between atoms: C_2  and  C_7
REMARK    4  A    between atoms: C_3  and  C_4
REMARK    5  A    between atoms: C_7  and  C_9
REMARK    6  A    between atoms: C_7  and  C_21
REMARK    7  A    between atoms: C_9  and  N_10
REMARK    8  A    between atoms: N_10  and  S_11
REMARK    9  A    between atoms: S_11  and  C_14
REMARK   10  A    between atoms: C_17  and  C_18
REMARK   11  A    between atoms: C_21  and  O_22
REMARK                            x       y       z     vdW  Elec       q    Type
REMARK                         _______ _______ _______ _____ _____    ______ ____
ROOT
ATOM      1  N   UNL     1       7.570  -3.005  25.045  0.00  0.00    -0.189 NA
ATOM      2  H   UNL     1       8.017  -3.177  25.959  0.00  0.00    +0.148 HD
ENDROOT
BRANCH   1   3
ATOM      3  S   UNL     1       8.765  -3.155  23.839  0.00  0.00    +0.058 S 
ATOM      4  O   UNL     1       8.104  -3.517  22.604  0.00  0.00    -0.153 OA
ATOM      5  O   UNL     1       9.812  -3.971  24.409  0.00  0.00    -0.153 OA
BRANCH   3   6
ATOM      6  C   UNL     1       9.366  -1.494  23.699  0.00  0.00    +0.105 A 
ATOM      7  C   UNL     1       9.555  -0.943  22.428  0.00  0.00    +0.029 A 
ATOM      8  C   UNL     1       9.963   0.384  22.308  0.00  0.00    +0.005 A 
ATOM      9  C   UNL     1      10.213   1.157  23.448  0.00  0.00    -0.050 A 
ATOM     10  C   UNL     1      10.618   2.592  23.300  0.00  0.00    +0.044 C 
ATOM     11  C   UNL     1      10.075   0.573  24.715  0.00  0.00    +0.005 A 
ATOM     12  C   UNL     1       9.655  -0.753  24.844  0.00  0.00    +0.029 A 
ENDBRANCH   3   6
ENDBRANCH   1   3
BRANCH   1  13
ATOM     13  C   UNL     1       6.317  -3.766  24.830  0.00  0.00    +0.121 C 
BRANCH  13  14
ATOM     14  C   UNL     1       6.366  -5.182  25.445  0.00  0.00    +0.123 C 
BRANCH  14  15
ATOM     15  C   UNL     1       7.270  -5.130  26.657  0.00  0.00    +0.310 C 
ATOM     16  O   UNL     1       7.003  -4.514  27.679  0.00  0.00    -0.251 OA
BRANCH  15  17
ATOM     17  O   UNL     1       8.400  -5.857  26.534  0.00  0.00    -0.480 OA
ATOM     18  H   UNL     1       8.934  -5.951  27.346  0.00  0.00    +0.295 HD
ENDBRANCH  15  17
ENDBRANCH  14  15
BRANCH  14  19
ATOM     19  C   UNL     1       4.984  -5.767  25.811  0.00  0.00    +0.067 C 
BRANCH  19  20
ATOM     20  C   UNL     1       4.324  -6.373  24.590  0.00  0.00    +0.227 C 
ATOM     21  O   UNL     1       4.191  -7.584  24.436  0.00  0.00    -0.301 OA
ENDBRANCH  19  20
BRANCH  19  22
ATOM     22  C   UNL     1       4.997  -6.823  26.937  0.00  0.00    +0.008 C 
ATOM     23  C   UNL     1       3.979  -6.612  28.055  0.00  0.00    +0.004 C 
ENDBRANCH  19  22
ENDBRANCH  14  19
ENDBRANCH  13  14
ENDBRANCH   1  13
TORSDOF 9
ENDMDL
MODEL 7
REMARK VINA RESULT:      -5.9      1.866      2.982
REMARK  Name = 
REMARK  11 active torsions:
REMARK  status: ('A' for Active; 'I' for Inactive)
REMARK    1  A    between atoms: C_2  and  C_3
REMARK    2  A    between atoms: C_2  and  C_5
REMARK    3  A    between atoms: C_2  and  C_7
REMARK    4  A    between atoms: C_3  and  C_4
REMARK    5  A    between atoms: C_7  and  C_9
REMARK    6  A    between atoms: C_7  and  C_21
REMARK    7  A    between atoms: C_9  and  N_10
REMARK    8  A    between atoms: N_10  and  S_11
REMARK    9  A    between atoms: S_11  and  C_14
REMARK   10  A    between atoms: C_17  and  C_18
REMARK   11  A    between atoms: C_21  and  O_22
REMARK                            x       y       z     vdW  Elec       q    Type
REMARK                         _______ _______ _______ _____ _____    ______ ____
ROOT
ATOM      1  N   UNL     1       7.724  -3.879  23.511  0.00  0.00    -0.189 NA
ATOM      2  H   UNL     1       7.851  -3.394  22.609  0.00  0.00    +0.148 HD
ENDROOT
BRANCH   1   3
ATOM      3  S   UNL     1       8.943  -3.340  24.574  0.00  0.00    +0.058 S 
ATOM      4  O   UNL     1      10.065  -4.246  24.455  0.00  0.00    -0.153 OA
ATOM      5  O   UNL     1       8.293  -3.096  25.841  0.00  0.00    -0.153 OA
BRANCH   3   6
ATOM      6  C   UNL     1       9.392  -1.779  23.867  0.00  0.00    +0.105 A 
ATOM      7  C   UNL     1       9.444  -1.650  22.476  0.00  0.00    +0.029 A 
ATOM      8  C   UNL     1       9.732  -0.410  21.910  0.00  0.00    +0.005 A 
ATOM      9  C   UNL     1       9.997   0.698  22.723  0.00  0.00    -0.050 A 
ATOM     10  C   UNL     1      10.271   2.032  22.097  0.00  0.00    +0.044 C 
ATOM     11  C   UNL     1       9.999   0.540  24.116  0.00  0.00    +0.005 A 
ATOM     12  C   UNL     1       9.701  -0.698  24.692  0.00  0.00    +0.029 A 
ENDBRANCH   3   6
ENDBRANCH   1   3
BRANCH   1  13
ATOM     13  C   UNL     1       6.336  -3.845  24.028  0.00  0.00    +0.121 C 
BRANCH  13  14
ATOM     14  C   UNL     1       5.416  -4.877  23.338  0.00  0.00    +0.123 C 
BRANCH  14  15
ATOM     15  C   UNL     1       5.993  -5.168  21.969  0.00  0.00    +0.310 C 
ATOM     16  O   UNL     1       5.826  -4.451  20.993  0.00  0.00    -0.251 OA
BRANCH  15  17
ATOM     17  O   UNL     1       6.748  -6.285  21.916  0.00  0.00    -0.480 OA
ATOM     18  H   UNL     1       6.813  -6.712  21.041  0.00  0.00    +0.295 HD
ENDBRANCH  15  17
ENDBRANCH  14  15
BRANCH  14  19
ATOM     19  C   UNL     1       5.207  -6.180  24.138  0.00  0.00    +0.067 C 
BRANCH  19  20
ATOM     20  C   UNL     1       5.607  -5.984  25.586  0.00  0.00    +0.227 C 
ATOM     21  O   UNL     1       5.340  -6.796  26.467  0.00  0.00    -0.301 OA
ENDBRANCH  19  20
BRANCH  19  22
ATOM     22  C   UNL     1       3.772  -6.750  24.099  0.00  0.00    +0.008 C 
ATOM     23  C   UNL     1       2.727  -5.867  23.421  0.00  0.00    +0.004 C 
ENDBRANCH  19  22
ENDBRANCH  14  19
ENDBRANCH  13  14
ENDBRANCH   1  13
TORSDOF 9
ENDMDL
MODEL 8
REMARK VINA RESULT:      -5.7      2.118      3.664
REMARK  Name = 
REMARK  11 active torsions:
REMARK  status: ('A' for Active; 'I' for Inactive)
REMARK    1  A    between atoms: C_2  and  C_3
REMARK    2  A    between atoms: C_2  and  C_5
REMARK    3  A    between atoms: C_2  and  C_7
REMARK    4  A    between atoms: C_3  and  C_4
REMARK    5  A    between atoms: C_7  and  C_9
REMARK    6  A    between atoms: C_7  and  C_21
REMARK    7  A    between atoms: C_9  and  N_10
REMARK    8  A    between atoms: N_10  and  S_11
REMARK    9  A    between atoms: S_11  and  C_14
REMARK   10  A    between atoms: C_17  and  C_18
REMARK   11  A    between atoms: C_21  and  O_22
REMARK                            x       y       z     vdW  Elec       q    Type
REMARK                         _______ _______ _______ _____ _____    ______ ____
ROOT
ATOM      1  N   UNL     1       7.311  -4.518  23.135  0.00  0.00    -0.189 NA
ATOM      2  H   UNL     1       7.426  -5.233  22.400  0.00  0.00    +0.148 HD
ENDROOT
BRANCH   1   3
ATOM      3  S   UNL     1       6.264  -3.312  22.536  0.00  0.00    +0.058 S 
ATOM      4  O   UNL     1       5.236  -3.087  23.528  0.00  0.00    -0.153 OA
ATOM      5  O   UNL     1       5.943  -3.696  21.180  0.00  0.00    -0.153 OA
BRANCH   3   6
ATOM      6  C   UNL     1       7.323  -1.893  22.478  0.00  0.00    +0.105 A 
ATOM      7  C   UNL     1       8.600  -2.017  21.923  0.00  0.00    +0.029 A 
ATOM      8  C   UNL     1       9.414  -0.892  21.813  0.00  0.00    +0.005 A 
ATOM      9  C   UNL     1       8.975   0.352  22.280  0.00  0.00    -0.050 A 
ATOM     10  C   UNL     1       9.852   1.558  22.122  0.00  0.00    +0.044 C 
ATOM     11  C   UNL     1       7.716   0.450  22.887  0.00  0.00    +0.005 A 
ATOM     12  C   UNL     1       6.888  -0.672  22.992  0.00  0.00    +0.029 A 
ENDBRANCH   3   6
ENDBRANCH   1   3
BRANCH   1  13
ATOM     13  C   UNL     1       6.985  -5.068  24.471  0.00  0.00    +0.121 C 
BRANCH  13  14
ATOM     14  C   UNL     1       7.861  -4.468  25.594  0.00  0.00    +0.123 C 
BRANCH  14  15
ATOM     15  C   UNL     1       9.309  -4.626  25.184  0.00  0.00    +0.310 C 
ATOM     16  O   UNL     1       9.866  -3.911  24.363  0.00  0.00    -0.251 OA
BRANCH  15  17
ATOM     17  O   UNL     1       9.961  -5.614  25.832  0.00  0.00    -0.480 OA
ATOM     18  H   UNL     1      10.675  -5.328  26.433  0.00  0.00    +0.295 HD
ENDBRANCH  15  17
ENDBRANCH  14  15
BRANCH  14  19
ATOM     19  C   UNL     1       7.541  -2.997  25.935  0.00  0.00    +0.067 C 
BRANCH  19  20
ATOM     20  C   UNL     1       6.294  -2.910  26.791  0.00  0.00    +0.227 C 
ATOM     21  O   UNL     1       6.009  -3.748  27.641  0.00  0.00    -0.301 OA
ENDBRANCH  19  20
BRANCH  19  22
ATOM     22  C   UNL     1       8.677  -2.226  26.644  0.00  0.00    +0.008 C 
ATOM     23  C   UNL     1       8.834  -0.762  26.243  0.00  0.00    +0.004 C 
ENDBRANCH  19  22
ENDBRANCH  14  19
ENDBRANCH  13  14
ENDBRANCH   1  13
TORSDOF 9
ENDMDL
MODEL 9
REMARK VINA RESULT:      -5.6      1.745      2.088
REMARK  Name = 
REMARK  11 active torsions:
REMARK  status: ('A' for Active; 'I' for Inactive)
REMARK    1  A    between atoms: C_2  and  C_3
REMARK    2  A    between atoms: C_2  and  C_5
REMARK    3  A    between atoms: C_2  and  C_7
REMARK    4  A    between atoms: C_3  and  C_4
REMARK    5  A    between atoms: C_7  and  C_9
REMARK    6  A    between atoms: C_7  and  C_21
REMARK    7  A    between atoms: C_9  and  N_10
REMARK    8  A    between atoms: N_10  and  S_11
REMARK    9  A    between atoms: S_11  and  C_14
REMARK   10  A    between atoms: C_17  and  C_18
REMARK   11  A    between atoms: C_21  and  O_22
REMARK                            x       y       z     vdW  Elec       q    Type
REMARK                         _______ _______ _______ _____ _____    ______ ____
ROOT
ATOM      1  N   UNL     1       7.994  -1.497  23.401  0.00  0.00    -0.189 NA
ATOM      2  H   UNL     1       8.218  -1.819  24.356  0.00  0.00    +0.148 HD
ENDROOT
BRANCH   1   3
ATOM      3  S   UNL     1       9.356  -0.671  22.793  0.00  0.00    +0.058 S 
ATOM      4  O   UNL     1       9.459  -0.968  21.381  0.00  0.00    -0.153 OA
ATOM      5  O   UNL     1      10.438  -0.947  23.710  0.00  0.00    -0.153 OA
BRANCH   3   6
ATOM      6  C   UNL     1       8.880   1.025  22.985  0.00  0.00    +0.105 A 
ATOM      7  C   UNL     1       9.295   1.725  24.122  0.00  0.00    +0.029 A 
ATOM      8  C   UNL     1       8.983   3.076  24.251  0.00  0.00    +0.005 A 
ATOM      9  C   UNL     1       8.232   3.729  23.266  0.00  0.00    -0.050 A 
ATOM     10  C   UNL     1       7.935   5.191  23.404  0.00  0.00    +0.044 C 
ATOM     11  C   UNL     1       7.773   3.000  22.159  0.00  0.00    +0.005 A 
ATOM     12  C   UNL     1       8.092   1.647  22.018  0.00  0.00    +0.029 A 
ENDBRANCH   3   6
ENDBRANCH   1   3
BRANCH   1  13
ATOM     13  C   UNL     1       7.415  -2.544  22.529  0.00  0.00    +0.121 C 
BRANCH  13  14
ATOM     14  C   UNL     1       7.642  -3.971  23.075  0.00  0.00    +0.123 C 
BRANCH  14  15
ATOM     15  C   UNL     1       8.356  -3.849  24.404  0.00  0.00    +0.310 C 
ATOM     16  O   UNL     1       7.781  -3.780  25.481  0.00  0.00    -0.251 OA
BRANCH  15  17
ATOM     17  O   UNL     1       9.702  -3.856  24.309  0.00  0.00    -0.480 OA
ATOM     18  H   UNL     1      10.069  -3.539  23.463  0.00  0.00    +0.295 HD
ENDBRANCH  15  17
ENDBRANCH  14  15
BRANCH  14  19
ATOM     19  C   UNL     1       6.355  -4.813  23.215  0.00  0.00    +0.067 C 
BRANCH  19  20
ATOM     20  C   UNL     1       5.133  -3.966  22.923  0.00  0.00    +0.227 C 
ATOM     21  O   UNL     1       3.995  -4.427  22.890  0.00  0.00    -0.301 OA
ENDBRANCH  19  20
BRANCH  19  22
ATOM     22  C   UNL     1       6.299  -6.077  22.329  0.00  0.00    +0.008 C 
ATOM     23  C   UNL     1       6.261  -5.829  20.824  0.00  0.00    +0.004 C 
ENDBRANCH  19  22
ENDBRANCH  14  19
ENDBRANCH  13  14
ENDBRANCH   1  13
TORSDOF 9
ENDMDL
