MODEL 1
REMARK VINA RESULT:      -7.6      0.000      0.000
REMARK  Name = 
REMARK  17 active torsions:
REMARK  status: ('A' for Active; 'I' for Inactive)
REMARK    1  A    between atoms: C_1  and  C_2
REMARK    2  A    between atoms: C_2  and  C_3
REMARK    3  A    between atoms: C_2  and  C_4
REMARK    4  A    between atoms: C_2  and  N_5
REMARK    5  A    between atoms: C_6  and  C_8
REMARK    6  A    between atoms: N_11  and  C_12
REMARK    7  A    between atoms: C_12  and  C_13
REMARK    8  A    between atoms: N_24  and  C_25
REMARK    9  A    between atoms: C_25  and  C_26
REMARK   10  A    between atoms: C_26  and  O_28
REMARK   11  A    between atoms: C_26  and  C_29
REMARK   12  A    between atoms: C_29  and  C_30
REMARK   13  A    between atoms: C_30  and  C_32
REMARK   14  A    between atoms: C_30  and  C_39
REMARK   15  A    between atoms: C_32  and  C_33
REMARK   16  A    between atoms: N_41  and  C_42
REMARK   17  A    between atoms: C_44  and  O_46
REMARK                            x       y       z     vdW  Elec       q    Type
REMARK                         _______ _______ _______ _____ _____    ______ ____
ROOT
ATOM      1  C   UNL     1       8.004  -0.358  26.263  0.00  0.00    +0.129 C 
ENDROOT
BRANCH   1   2
ATOM      2  O   UNL     1       7.205  -1.158  27.132  0.00  0.00    -0.391 OA
ATOM      3  H   UNL     1       7.717  -1.219  27.952  0.00  0.00    +0.210 HD
ENDBRANCH   1   2
BRANCH   1   4
ATOM      4  C   UNL     1       7.359   1.033  26.159  0.00  0.00    +0.116 C 
BRANCH   4   6
ATOM      5  C   UNL     1       5.121   1.937  27.046  0.00  0.00    +0.157 C 
ATOM      6  N   UNL     1       6.538   1.489  27.339  0.00  0.00    -0.287 NA
ATOM      7  C   UNL     1       7.197   2.724  27.881  0.00  0.00    +0.100 C 
ATOM      8  C   UNL     1       7.165   3.952  26.923  0.00  0.00    +0.100 C 
ATOM      9  N   UNL     1       5.828   4.278  26.387  0.00  0.00    -0.292 NA
ATOM     10  C   UNL     1       5.064   3.062  25.981  0.00  0.00    +0.113 C 
BRANCH   5  13
ATOM     11  N   UNL     1       4.420  -0.436  27.320  0.00  0.00    -0.309 N 
ATOM     12  H   UNL     1       5.191  -0.392  27.985  0.00  0.00    +0.149 HD
ATOM     13  C   UNL     1       4.077   0.803  26.808  0.00  0.00    +0.232 C 
ATOM     14  O   UNL     1       3.027   0.987  26.198  0.00  0.00    -0.274 OA
BRANCH  11  16
ATOM     15  C   UNL     1       2.170  -1.617  27.090  0.00  0.00    +0.031 C 
ATOM     16  C   UNL     1       3.711  -1.733  27.167  0.00  0.00    +0.026 C 
ATOM     17  C   UNL     1       4.193  -2.365  25.845  0.00  0.00    +0.031 C 
ATOM     18  C   UNL     1       4.057  -2.682  28.320  0.00  0.00    +0.031 C 
ENDBRANCH  11  16
ENDBRANCH   5  13
BRANCH   9  19
ATOM     19  C   UNL     1       5.945   5.236  25.265  0.00  0.00    +0.158 C 
BRANCH  19  20
ATOM     20  C   UNL     1       7.366   5.533  24.936  0.00  0.00    +0.120 A 
ATOM     21  O   UNL     1       8.026   6.395  25.767  0.00  0.00    -0.458 OA
ATOM     22  C   UNL     1       9.330   6.399  25.375  0.00  0.00    +0.135 A 
ATOM     23  C   UNL     1      10.361   7.108  25.990  0.00  0.00    +0.047 A 
ATOM     24  C   UNL     1      11.644   6.927  25.462  0.00  0.00    +0.004 A 
ATOM     25  C   UNL     1      11.864   6.085  24.369  0.00  0.00    +0.001 A 
ATOM     26  C   UNL     1      10.803   5.402  23.757  0.00  0.00    +0.011 A 
ATOM     27  C   UNL     1       9.509   5.565  24.277  0.00  0.00    +0.020 A 
ATOM     28  C   UNL     1       8.225   5.046  23.973  0.00  0.00    +0.054 A 
ENDBRANCH  19  20
ENDBRANCH   9  19
ENDBRANCH   4   6
ENDBRANCH   1   4
BRANCH   1  29
ATOM     29  C   UNL     1       8.052  -1.243  25.026  0.00  0.00    +0.045 C 
BRANCH  29  30
ATOM     30  C   UNL     1       9.220  -2.206  24.874  0.00  0.00    +0.082 C 
BRANCH  30  31
ATOM     31  C   UNL     1       8.800  -3.665  25.101  0.00  0.00    +0.217 C 
ATOM     32  N   UNL     1       7.661  -3.899  25.835  0.00  0.00    -0.306 N 
ATOM     33  H   UNL     1       6.989  -3.157  25.971  0.00  0.00    +0.149 HD
ATOM     34  O   UNL     1       9.526  -4.574  24.687  0.00  0.00    -0.275 OA
BRANCH  32  35
ATOM     35  C   UNL     1       7.191  -5.256  26.045  0.00  0.00    +0.132 C 
ATOM     36  C   UNL     1       6.029  -5.603  25.160  0.00  0.00    -0.022 A 
ATOM     37  C   UNL     1       4.932  -6.057  25.894  0.00  0.00    -0.040 A 
ATOM     38  C   UNL     1       3.776  -6.490  25.262  0.00  0.00    +0.004 A 
ATOM     39  C   UNL     1       3.726  -6.470  23.868  0.00  0.00    +0.000 A 
ATOM     40  C   UNL     1       4.825  -6.016  23.127  0.00  0.00    +0.000 A 
ATOM     41  C   UNL     1       5.179  -6.012  27.365  0.00  0.00    +0.069 C 
ATOM     42  C   UNL     1       5.987  -5.581  23.771  0.00  0.00    +0.006 A 
ATOM     43  C   UNL     1       6.621  -5.477  27.481  0.00  0.00    +0.143 C 
BRANCH  43  44
ATOM     44  O   UNL     1       7.420  -6.412  28.220  0.00  0.00    -0.389 OA
ATOM     45  H   UNL     1       8.336  -6.347  27.894  0.00  0.00    +0.210 HD
ENDBRANCH  43  44
ENDBRANCH  32  35
ENDBRANCH  30  31
BRANCH  30  46
ATOM     46  C   UNL     1       9.874  -1.914  23.511  0.00  0.00    +0.048 C 
BRANCH  46  47
ATOM     47  C   UNL     1       9.888  -0.472  23.082  0.00  0.00    -0.047 A 
ATOM     48  C   UNL     1       9.250  -0.046  21.912  0.00  0.00    +0.003 A 
ATOM     49  C   UNL     1       9.331   1.285  21.507  0.00  0.00    +0.000 A 
ATOM     50  C   UNL     1      10.060   2.198  22.261  0.00  0.00    +0.000 A 
ATOM     51  C   UNL     1      10.711   1.785  23.422  0.00  0.00    +0.000 A 
ATOM     52  C   UNL     1      10.630   0.453  23.830  0.00  0.00    +0.003 A 
ENDBRANCH  46  47
ENDBRANCH  30  46
ENDBRANCH  29  30
ENDBRANCH   1  29
TORSDOF 14
ENDMDL
MODEL 2
REMARK VINA RESULT:      -7.6      2.072      3.326
REMARK  Name = 
REMARK  17 active torsions:
REMARK  status: ('A' for Active; 'I' for Inactive)
REMARK    1  A    between atoms: C_1  and  C_2
REMARK    2  A    between atoms: C_2  and  C_3
REMARK    3  A    between atoms: C_2  and  C_4
REMARK    4  A    between atoms: C_2  and  N_5
REMARK    5  A    between atoms: C_6  and  C_8
REMARK    6  A    between atoms: N_11  and  C_12
REMARK    7  A    between atoms: C_12  and  C_13
REMARK    8  A    between atoms: N_24  and  C_25
REMARK    9  A    between atoms: C_25  and  C_26
REMARK   10  A    between atoms: C_26  and  O_28
REMARK   11  A    between atoms: C_26  and  C_29
REMARK   12  A    between atoms: C_29  and  C_30
REMARK   13  A    between atoms: C_30  and  C_32
REMARK   14  A    between atoms: C_30  and  C_39
REMARK   15  A    between atoms: C_32  and  C_33
REMARK   16  A    between atoms: N_41  and  C_42
REMARK   17  A    between atoms: C_44  and  O_46
REMARK                            x       y       z     vdW  Elec       q    Type
REMARK                         _______ _______ _______ _____ _____    ______ ____
ROOT
ATOM      1  C   UNL     1       6.677   0.819  28.463  0.00  0.00    +0.129 C 
ENDROOT
BRANCH   1   2
ATOM      2  O   UNL     1       5.778   0.774  29.569  0.00  0.00    -0.391 OA
ATOM      3  H   UNL     1       6.017   1.539  30.113  0.00  0.00    +0.210 HD
ENDBRANCH   1   2
BRANCH   1   4
ATOM      4  C   UNL     1       6.702   2.256  27.919  0.00  0.00    +0.116 C 
BRANCH   4   6
ATOM      5  C   UNL     1       4.507   3.387  27.199  0.00  0.00    +0.157 C 
ATOM      6  N   UNL     1       5.534   3.138  28.284  0.00  0.00    -0.287 NA
ATOM      7  C   UNL     1       6.088   4.503  28.570  0.00  0.00    +0.100 C 
ATOM      8  C   UNL     1       6.712   5.222  27.336  0.00  0.00    +0.100 C 
ATOM      9  N   UNL     1       5.843   5.262  26.143  0.00  0.00    -0.292 NA
ATOM     10  C   UNL     1       5.138   3.968  25.908  0.00  0.00    +0.113 C 
BRANCH   5  13
ATOM     11  N   UNL     1       3.070   1.542  28.053  0.00  0.00    -0.309 N 
ATOM     12  H   UNL     1       3.284   2.029  28.923  0.00  0.00    +0.149 HD
ATOM     13  C   UNL     1       3.497   2.228  26.930  0.00  0.00    +0.232 C 
ATOM     14  O   UNL     1       3.113   1.933  25.802  0.00  0.00    -0.274 OA
BRANCH  11  16
ATOM     15  C   UNL     1       2.684  -0.847  27.245  0.00  0.00    +0.031 C 
ATOM     16  C   UNL     1       2.212   0.330  28.130  0.00  0.00    +0.026 C 
ATOM     17  C   UNL     1       2.236  -0.155  29.594  0.00  0.00    +0.031 C 
ATOM     18  C   UNL     1       0.767   0.662  27.745  0.00  0.00    +0.031 C 
ENDBRANCH  11  16
ENDBRANCH   5  13
BRANCH   9  19
ATOM     19  C   UNL     1       6.622   5.672  24.954  0.00  0.00    +0.158 C 
BRANCH  19  20
ATOM     20  C   UNL     1       7.448   4.554  24.420  0.00  0.00    +0.120 A 
ATOM     21  O   UNL     1       6.993   3.937  23.288  0.00  0.00    -0.458 OA
ATOM     22  C   UNL     1       7.966   3.067  22.896  0.00  0.00    +0.135 A 
ATOM     23  C   UNL     1       7.929   2.269  21.754  0.00  0.00    +0.047 A 
ATOM     24  C   UNL     1       9.062   1.487  21.503  0.00  0.00    +0.004 A 
ATOM     25  C   UNL     1      10.160   1.506  22.367  0.00  0.00    +0.001 A 
ATOM     26  C   UNL     1      10.158   2.304  23.521  0.00  0.00    +0.011 A 
ATOM     27  C   UNL     1       9.034   3.101  23.786  0.00  0.00    +0.020 A 
ATOM     28  C   UNL     1       8.669   4.032  24.791  0.00  0.00    +0.054 A 
ENDBRANCH  19  20
ENDBRANCH   9  19
ENDBRANCH   4   6
ENDBRANCH   1   4
BRANCH   1  29
ATOM     29  C   UNL     1       6.110  -0.291  27.590  0.00  0.00    +0.045 C 
BRANCH  29  30
ATOM     30  C   UNL     1       7.068  -1.067  26.698  0.00  0.00    +0.082 C 
BRANCH  30  31
ATOM     31  C   UNL     1       6.599  -2.509  26.463  0.00  0.00    +0.217 C 
ATOM     32  N   UNL     1       5.565  -2.713  25.579  0.00  0.00    -0.306 N 
ATOM     33  H   UNL     1       5.323  -1.993  24.914  0.00  0.00    +0.149 HD
ATOM     34  O   UNL     1       7.107  -3.423  27.119  0.00  0.00    -0.275 OA
BRANCH  32  35
ATOM     35  C   UNL     1       5.109  -4.059  25.285  0.00  0.00    +0.132 C 
ATOM     36  C   UNL     1       5.845  -4.673  24.129  0.00  0.00    -0.022 A 
ATOM     37  C   UNL     1       4.975  -5.114  23.132  0.00  0.00    -0.040 A 
ATOM     38  C   UNL     1       5.449  -5.770  22.005  0.00  0.00    +0.004 A 
ATOM     39  C   UNL     1       6.821  -5.988  21.883  0.00  0.00    +0.000 A 
ATOM     40  C   UNL     1       7.698  -5.547  22.882  0.00  0.00    +0.000 A 
ATOM     41  C   UNL     1       3.550  -4.798  23.444  0.00  0.00    +0.069 C 
ATOM     42  C   UNL     1       7.213  -4.888  24.015  0.00  0.00    +0.006 A 
ATOM     43  C   UNL     1       3.620  -4.098  24.817  0.00  0.00    +0.143 C 
BRANCH  43  44
ATOM     44  O   UNL     1       2.798  -4.805  25.757  0.00  0.00    -0.389 OA
ATOM     45  H   UNL     1       2.624  -5.692  25.395  0.00  0.00    +0.210 HD
ENDBRANCH  43  44
ENDBRANCH  32  35
ENDBRANCH  30  31
BRANCH  30  46
ATOM     46  C   UNL     1       7.281  -0.227  25.423  0.00  0.00    +0.048 C 
BRANCH  46  47
ATOM     47  C   UNL     1       8.020  -0.905  24.303  0.00  0.00    -0.047 A 
ATOM     48  C   UNL     1       7.391  -1.228  23.095  0.00  0.00    +0.003 A 
ATOM     49  C   UNL     1       8.084  -1.911  22.098  0.00  0.00    +0.000 A 
ATOM     50  C   UNL     1       9.407  -2.288  22.304  0.00  0.00    +0.000 A 
ATOM     51  C   UNL     1      10.042  -1.985  23.506  0.00  0.00    +0.000 A 
ATOM     52  C   UNL     1       9.350  -1.299  24.506  0.00  0.00    +0.003 A 
ENDBRANCH  46  47
ENDBRANCH  30  46
ENDBRANCH  29  30
ENDBRANCH   1  29
TORSDOF 14
ENDMDL
MODEL 3
REMARK VINA RESULT:      -7.5      1.878      2.612
REMARK  Name = 
REMARK  17 active torsions:
REMARK  status: ('A' for Active; 'I' for Inactive)
REMARK    1  A    between atoms: C_1  and  C_2
REMARK    2  A    between atoms: C_2  and  C_3
REMARK    3  A    between atoms: C_2  and  C_4
REMARK    4  A    between atoms: C_2  and  N_5
REMARK    5  A    between atoms: C_6  and  C_8
REMARK    6  A    between atoms: N_11  and  C_12
REMARK    7  A    between atoms: C_12  and  C_13
REMARK    8  A    between atoms: N_24  and  C_25
REMARK    9  A    between atoms: C_25  and  C_26
REMARK   10  A    between atoms: C_26  and  O_28
REMARK   11  A    between atoms: C_26  and  C_29
REMARK   12  A    between atoms: C_29  and  C_30
REMARK   13  A    between atoms: C_30  and  C_32
REMARK   14  A    between atoms: C_30  and  C_39
REMARK   15  A    between atoms: C_32  and  C_33
REMARK   16  A    between atoms: N_41  and  C_42
REMARK   17  A    between atoms: C_44  and  O_46
REMARK                            x       y       z     vdW  Elec       q    Type
REMARK                         _______ _______ _______ _____ _____    ______ ____
ROOT
ATOM      1  C   UNL     1       6.394  -0.669  25.017  0.00  0.00    +0.129 C 
ENDROOT
BRANCH   1   2
ATOM      2  O   UNL     1       5.724   0.214  24.119  0.00  0.00    -0.391 OA
ATOM      3  H   UNL     1       5.951   1.103  24.432  0.00  0.00    +0.210 HD
ENDBRANCH   1   2
BRANCH   1   4
ATOM      4  C   UNL     1       7.055   0.173  26.119  0.00  0.00    +0.116 C 
BRANCH   4   6
ATOM      5  C   UNL     1       5.066  -0.182  27.710  0.00  0.00    +0.157 C 
ATOM      6  N   UNL     1       6.565  -0.049  27.527  0.00  0.00    -0.287 NA
ATOM      7  C   UNL     1       6.912   1.182  28.313  0.00  0.00    +0.100 C 
ATOM      8  C   UNL     1       6.158   2.471  27.867  0.00  0.00    +0.100 C 
ATOM      9  N   UNL     1       4.692   2.322  27.769  0.00  0.00    -0.292 NA
ATOM     10  C   UNL     1       4.291   1.032  27.137  0.00  0.00    +0.113 C 
BRANCH   5  13
ATOM     11  N   UNL     1       3.105  -1.529  26.978  0.00  0.00    -0.309 N 
ATOM     12  H   UNL     1       2.761  -0.586  26.798  0.00  0.00    +0.149 HD
ATOM     13  C   UNL     1       4.446  -1.558  27.319  0.00  0.00    +0.232 C 
ATOM     14  O   UNL     1       5.093  -2.601  27.324  0.00  0.00    -0.274 OA
BRANCH  11  16
ATOM     15  C   UNL     1       2.106  -3.731  27.793  0.00  0.00    +0.031 C 
ATOM     16  C   UNL     1       2.199  -2.667  26.673  0.00  0.00    +0.026 C 
ATOM     17  C   UNL     1       0.785  -2.085  26.470  0.00  0.00    +0.031 C 
ATOM     18  C   UNL     1       2.629  -3.374  25.384  0.00  0.00    +0.031 C 
ENDBRANCH  11  16
ENDBRANCH   5  13
BRANCH   9  19
ATOM     19  C   UNL     1       4.107   3.476  27.049  0.00  0.00    +0.158 C 
BRANCH  19  20
ATOM     20  C   UNL     1       5.023   3.997  25.999  0.00  0.00    +0.120 A 
ATOM     21  O   UNL     1       5.371   3.133  24.999  0.00  0.00    -0.458 OA
ATOM     22  C   UNL     1       6.075   3.854  24.082  0.00  0.00    +0.135 A 
ATOM     23  C   UNL     1       6.577   3.367  22.877  0.00  0.00    +0.047 A 
ATOM     24  C   UNL     1       7.222   4.293  22.050  0.00  0.00    +0.004 A 
ATOM     25  C   UNL     1       7.360   5.630  22.431  0.00  0.00    +0.001 A 
ATOM     26  C   UNL     1       6.864   6.086  23.660  0.00  0.00    +0.011 A 
ATOM     27  C   UNL     1       6.206   5.174  24.501  0.00  0.00    +0.020 A 
ATOM     28  C   UNL     1       5.562   5.245  25.762  0.00  0.00    +0.054 A 
ENDBRANCH  19  20
ENDBRANCH   9  19
ENDBRANCH   4   6
ENDBRANCH   1   4
BRANCH   1  29
ATOM     29  C   UNL     1       7.278  -1.442  24.049  0.00  0.00    +0.045 C 
BRANCH  29  30
ATOM     30  C   UNL     1       8.524  -2.121  24.596  0.00  0.00    +0.082 C 
BRANCH  30  31
ATOM     31  C   UNL     1       8.288  -3.608  24.897  0.00  0.00    +0.217 C 
ATOM     32  N   UNL     1       7.277  -3.934  25.770  0.00  0.00    -0.306 N 
ATOM     33  H   UNL     1       6.554  -3.260  25.977  0.00  0.00    +0.149 HD
ATOM     34  O   UNL     1       9.049  -4.450  24.410  0.00  0.00    -0.275 OA
BRANCH  32  35
ATOM     35  C   UNL     1       6.980  -5.325  26.057  0.00  0.00    +0.132 C 
ATOM     36  C   UNL     1       5.752  -5.808  25.341  0.00  0.00    -0.022 A 
ATOM     37  C   UNL     1       4.814  -6.349  26.222  0.00  0.00    -0.040 A 
ATOM     38  C   UNL     1       3.634  -6.910  25.757  0.00  0.00    +0.004 A 
ATOM     39  C   UNL     1       3.397  -6.931  24.382  0.00  0.00    +0.000 A 
ATOM     40  C   UNL     1       4.336  -6.389  23.495  0.00  0.00    +0.000 A 
ATOM     41  C   UNL     1       5.248  -6.242  27.646  0.00  0.00    +0.069 C 
ATOM     42  C   UNL     1       5.523  -5.825  23.971  0.00  0.00    +0.006 A 
ATOM     43  C   UNL     1       6.631  -5.565  27.560  0.00  0.00    +0.143 C 
BRANCH  43  44
ATOM     44  O   UNL     1       7.612  -6.398  28.195  0.00  0.00    -0.389 OA
ATOM     45  H   UNL     1       7.619  -7.256  27.735  0.00  0.00    +0.210 HD
ENDBRANCH  43  44
ENDBRANCH  32  35
ENDBRANCH  30  31
BRANCH  30  46
ATOM     46  C   UNL     1       9.673  -1.822  23.614  0.00  0.00    +0.048 C 
BRANCH  46  47
ATOM     47  C   UNL     1       9.943  -0.368  23.340  0.00  0.00    -0.047 A 
ATOM     48  C   UNL     1      10.414   0.494  24.336  0.00  0.00    +0.003 A 
ATOM     49  C   UNL     1      10.598   1.849  24.070  0.00  0.00    +0.000 A 
ATOM     50  C   UNL     1      10.300   2.357  22.810  0.00  0.00    +0.000 A 
ATOM     51  C   UNL     1       9.818   1.513  21.812  0.00  0.00    +0.000 A 
ATOM     52  C   UNL     1       9.636   0.155  22.076  0.00  0.00    +0.003 A 
ENDBRANCH  46  47
ENDBRANCH  30  46
ENDBRANCH  29  30
ENDBRANCH   1  29
TORSDOF 14
ENDMDL
MODEL 4
REMARK VINA RESULT:      -7.3      2.490      9.033
REMARK  Name = 
REMARK  17 active torsions:
REMARK  status: ('A' for Active; 'I' for Inactive)
REMARK    1  A    between atoms: C_1  and  C_2
REMARK    2  A    between atoms: C_2  and  C_3
REMARK    3  A    between atoms: C_2  and  C_4
REMARK    4  A    between atoms: C_2  and  N_5
REMARK    5  A    between atoms: C_6  and  C_8
REMARK    6  A    between atoms: N_11  and  C_12
REMARK    7  A    between atoms: C_12  and  C_13
REMARK    8  A    between atoms: N_24  and  C_25
REMARK    9  A    between atoms: C_25  and  C_26
REMARK   10  A    between atoms: C_26  and  O_28
REMARK   11  A    between atoms: C_26  and  C_29
REMARK   12  A    between atoms: C_29  and  C_30
REMARK   13  A    between atoms: C_30  and  C_32
REMARK   14  A    between atoms: C_30  and  C_39
REMARK   15  A    between atoms: C_32  and  C_33
REMARK   16  A    between atoms: N_41  and  C_42
REMARK   17  A    between atoms: C_44  and  O_46
REMARK                            x       y       z     vdW  Elec       q    Type
REMARK                         _______ _______ _______ _____ _____    ______ ____
ROOT
ATOM      1  C   UNL     1       8.963   0.129  22.383  0.00  0.00    +0.129 C 
ENDROOT
BRANCH   1   2
ATOM      2  O   UNL     1       9.454  -0.289  21.111  0.00  0.00    -0.391 OA
ATOM      3  H   UNL     1      10.148  -0.933  21.313  0.00  0.00    +0.210 HD
ENDBRANCH   1   2
BRANCH   1   4
ATOM      4  C   UNL     1       8.383  -1.098  23.103  0.00  0.00    +0.116 C 
BRANCH   4   6
ATOM      5  C   UNL     1       6.157  -1.242  24.382  0.00  0.00    +0.157 C 
ATOM      6  N   UNL     1       6.885  -1.267  23.054  0.00  0.00    -0.287 NA
ATOM      7  C   UNL     1       6.616  -2.646  22.527  0.00  0.00    +0.100 C 
ATOM      8  C   UNL     1       7.079  -3.802  23.463  0.00  0.00    +0.100 C 
ATOM      9  N   UNL     1       6.611  -3.687  24.860  0.00  0.00    -0.292 NA
ATOM     10  C   UNL     1       6.707  -2.292  25.380  0.00  0.00    +0.113 C 
BRANCH   5  13
ATOM     11  N   UNL     1       6.495   0.343  26.273  0.00  0.00    -0.309 N 
ATOM     12  H   UNL     1       7.172  -0.381  26.513  0.00  0.00    +0.149 HD
ATOM     13  C   UNL     1       5.937   0.166  25.019  0.00  0.00    +0.232 C 
ATOM     14  O   UNL     1       5.303   1.055  24.457  0.00  0.00    -0.274 OA
BRANCH  11  16
ATOM     15  C   UNL     1       4.919   1.987  27.424  0.00  0.00    +0.031 C 
ATOM     16  C   UNL     1       6.371   1.508  27.188  0.00  0.00    +0.026 C 
ATOM     17  C   UNL     1       6.944   1.079  28.555  0.00  0.00    +0.031 C 
ATOM     18  C   UNL     1       7.183   2.698  26.666  0.00  0.00    +0.031 C 
ENDBRANCH  11  16
ENDBRANCH   5  13
BRANCH   9  19
ATOM     19  C   UNL     1       7.345  -4.635  25.726  0.00  0.00    +0.158 C 
BRANCH  19  20
ATOM     20  C   UNL     1       6.459  -5.251  26.751  0.00  0.00    +0.120 A 
ATOM     21  O   UNL     1       6.375  -4.615  27.958  0.00  0.00    -0.458 OA
ATOM     22  C   UNL     1       5.407  -5.253  28.673  0.00  0.00    +0.135 A 
ATOM     23  C   UNL     1       4.965  -4.892  29.944  0.00  0.00    +0.047 A 
ATOM     24  C   UNL     1       3.916  -5.648  30.478  0.00  0.00    +0.004 A 
ATOM     25  C   UNL     1       3.357  -6.713  29.767  0.00  0.00    +0.001 A 
ATOM     26  C   UNL     1       3.838  -7.066  28.498  0.00  0.00    +0.011 A 
ATOM     27  C   UNL     1       4.885  -6.315  27.943  0.00  0.00    +0.020 A 
ATOM     28  C   UNL     1       5.604  -6.333  26.720  0.00  0.00    +0.054 A 
ENDBRANCH  19  20
ENDBRANCH   9  19
ENDBRANCH   4   6
ENDBRANCH   1   4
BRANCH   1  29
ATOM     29  C   UNL     1       8.024   1.254  21.970  0.00  0.00    +0.045 C 
BRANCH  29  30
ATOM     30  C   UNL     1       8.451   2.687  22.249  0.00  0.00    +0.082 C 
BRANCH  30  31
ATOM     31  C   UNL     1       7.263   3.659  22.231  0.00  0.00    +0.217 C 
ATOM     32  N   UNL     1       6.038   3.183  22.635  0.00  0.00    -0.306 N 
ATOM     33  H   UNL     1       5.983   2.333  23.179  0.00  0.00    +0.149 HD
ATOM     34  O   UNL     1       7.424   4.801  21.791  0.00  0.00    -0.275 OA
BRANCH  32  35
ATOM     35  C   UNL     1       4.888   4.067  22.680  0.00  0.00    +0.132 C 
ATOM     36  C   UNL     1       4.576   4.530  24.074  0.00  0.00    -0.022 A 
ATOM     37  C   UNL     1       3.257   4.249  24.433  0.00  0.00    -0.040 A 
ATOM     38  C   UNL     1       2.746   4.651  25.658  0.00  0.00    +0.004 A 
ATOM     39  C   UNL     1       3.577   5.352  26.533  0.00  0.00    +0.000 A 
ATOM     40  C   UNL     1       4.901   5.636  26.177  0.00  0.00    +0.000 A 
ATOM     41  C   UNL     1       2.527   3.504  23.366  0.00  0.00    +0.069 C 
ATOM     42  C   UNL     1       5.409   5.227  24.940  0.00  0.00    +0.006 A 
ATOM     43  C   UNL     1       3.569   3.358  22.238  0.00  0.00    +0.143 C 
BRANCH  43  44
ATOM     44  O   UNL     1       3.050   3.931  21.030  0.00  0.00    -0.389 OA
ATOM     45  H   UNL     1       2.839   3.202  20.419  0.00  0.00    +0.210 HD
ENDBRANCH  43  44
ENDBRANCH  32  35
ENDBRANCH  30  31
BRANCH  30  46
ATOM     46  C   UNL     1       9.269   2.671  23.555  0.00  0.00    +0.048 C 
BRANCH  46  47
ATOM     47  C   UNL     1      10.198   3.834  23.766  0.00  0.00    -0.047 A 
ATOM     48  C   UNL     1       9.757   5.036  24.331  0.00  0.00    +0.003 A 
ATOM     49  C   UNL     1      10.625   6.118  24.458  0.00  0.00    +0.000 A 
ATOM     50  C   UNL     1      11.938   6.013  24.010  0.00  0.00    +0.000 A 
ATOM     51  C   UNL     1      12.387   4.827  23.434  0.00  0.00    +0.000 A 
ATOM     52  C   UNL     1      11.520   3.741  23.307  0.00  0.00    +0.003 A 
ENDBRANCH  46  47
ENDBRANCH  30  46
ENDBRANCH  29  30
ENDBRANCH   1  29
TORSDOF 14
ENDMDL
MODEL 5
REMARK VINA RESULT:      -7.3      2.459      9.753
REMARK  Name = 
REMARK  17 active torsions:
REMARK  status: ('A' for Active; 'I' for Inactive)
REMARK    1  A    between atoms: C_1  and  C_2
REMARK    2  A    between atoms: C_2  and  C_3
REMARK    3  A    between atoms: C_2  and  C_4
REMARK    4  A    between atoms: C_2  and  N_5
REMARK    5  A    between atoms: C_6  and  C_8
REMARK    6  A    between atoms: N_11  and  C_12
REMARK    7  A    between atoms: C_12  and  C_13
REMARK    8  A    between atoms: N_24  and  C_25
REMARK    9  A    between atoms: C_25  and  C_26
REMARK   10  A    between atoms: C_26  and  O_28
REMARK   11  A    between atoms: C_26  and  C_29
REMARK   12  A    between atoms: C_29  and  C_30
REMARK   13  A    between atoms: C_30  and  C_32
REMARK   14  A    between atoms: C_30  and  C_39
REMARK   15  A    between atoms: C_32  and  C_33
REMARK   16  A    between atoms: N_41  and  C_42
REMARK   17  A    between atoms: C_44  and  O_46
REMARK                            x       y       z     vdW  Elec       q    Type
REMARK                         _______ _______ _______ _____ _____    ______ ____
ROOT
ATOM      1  C   UNL     1       7.350  -2.253  26.543  0.00  0.00    +0.129 C 
ENDROOT
BRANCH   1   2
ATOM      2  O   UNL     1       8.665  -1.720  26.684  0.00  0.00    -0.391 OA
ATOM      3  H   UNL     1       9.247  -2.495  26.685  0.00  0.00    +0.210 HD
ENDBRANCH   1   2
BRANCH   1   4
ATOM      4  C   UNL     1       7.411  -3.432  25.559  0.00  0.00    +0.116 C 
BRANCH   4   6
ATOM      5  C   UNL     1       8.338  -2.839  23.235  0.00  0.00    +0.157 C 
ATOM      6  N   UNL     1       8.574  -3.454  24.600  0.00  0.00    -0.287 NA
ATOM      7  C   UNL     1       8.865  -4.894  24.295  0.00  0.00    +0.100 C 
ATOM      8  C   UNL     1       7.739  -5.634  23.514  0.00  0.00    +0.100 C 
ATOM      9  N   UNL     1       7.275  -4.938  22.297  0.00  0.00    -0.292 NA
ATOM     10  C   UNL     1       7.125  -3.468  22.504  0.00  0.00    +0.113 C 
BRANCH   5  13
ATOM     11  N   UNL     1       9.508  -0.685  23.671  0.00  0.00    -0.309 N 
ATOM     12  H   UNL     1      10.276  -1.343  23.797  0.00  0.00    +0.149 HD
ATOM     13  C   UNL     1       8.364  -1.280  23.169  0.00  0.00    +0.232 C 
ATOM     14  O   UNL     1       7.432  -0.621  22.718  0.00  0.00    -0.274 OA
BRANCH  11  16
ATOM     15  C   UNL     1       8.816   1.492  24.808  0.00  0.00    +0.031 C 
ATOM     16  C   UNL     1       9.796   0.761  23.859  0.00  0.00    +0.026 C 
ATOM     17  C   UNL     1      11.205   0.871  24.477  0.00  0.00    +0.031 C 
ATOM     18  C   UNL     1       9.790   1.497  22.515  0.00  0.00    +0.031 C 
ENDBRANCH  11  16
ENDBRANCH   5  13
BRANCH   9  19
ATOM     19  C   UNL     1       6.016  -5.542  21.809  0.00  0.00    +0.158 C 
BRANCH  19  20
ATOM     20  C   UNL     1       4.993  -5.641  22.886  0.00  0.00    +0.120 A 
ATOM     21  O   UNL     1       3.930  -4.786  22.807  0.00  0.00    -0.458 OA
ATOM     22  C   UNL     1       3.058  -5.150  23.788  0.00  0.00    +0.135 A 
ATOM     23  C   UNL     1       1.814  -4.569  24.026  0.00  0.00    +0.047 A 
ATOM     24  C   UNL     1       1.046  -5.135  25.050  0.00  0.00    +0.004 A 
ATOM     25  C   UNL     1       1.520  -6.219  25.794  0.00  0.00    +0.001 A 
ATOM     26  C   UNL     1       2.785  -6.769  25.544  0.00  0.00    +0.011 A 
ATOM     27  C   UNL     1       3.567  -6.219  24.516  0.00  0.00    +0.020 A 
ATOM     28  C   UNL     1       4.839  -6.499  23.954  0.00  0.00    +0.054 A 
ENDBRANCH  19  20
ENDBRANCH   9  19
ENDBRANCH   4   6
ENDBRANCH   1   4
BRANCH   1  29
ATOM     29  C   UNL     1       6.577  -1.003  26.149  0.00  0.00    +0.045 C 
BRANCH  29  30
ATOM     30  C   UNL     1       5.121  -0.892  26.575  0.00  0.00    +0.082 C 
BRANCH  30  31
ATOM     31  C   UNL     1       4.514   0.471  26.212  0.00  0.00    +0.217 C 
ATOM     32  N   UNL     1       5.298   1.357  25.513  0.00  0.00    -0.306 N 
ATOM     33  H   UNL     1       6.117   1.026  25.022  0.00  0.00    +0.149 HD
ATOM     34  O   UNL     1       3.383   0.754  26.617  0.00  0.00    -0.275 OA
BRANCH  32  35
ATOM     35  C   UNL     1       4.763   2.643  25.105  0.00  0.00    +0.132 C 
ATOM     36  C   UNL     1       5.626   3.324  24.082  0.00  0.00    -0.022 A 
ATOM     37  C   UNL     1       5.999   4.606  24.486  0.00  0.00    -0.040 A 
ATOM     38  C   UNL     1       6.746   5.430  23.657  0.00  0.00    +0.004 A 
ATOM     39  C   UNL     1       7.119   4.956  22.399  0.00  0.00    +0.000 A 
ATOM     40  C   UNL     1       6.746   3.669  21.990  0.00  0.00    +0.000 A 
ATOM     41  C   UNL     1       5.501   4.936  25.854  0.00  0.00    +0.069 C 
ATOM     42  C   UNL     1       5.994   2.845  22.831  0.00  0.00    +0.006 A 
ATOM     43  C   UNL     1       4.722   3.674  26.276  0.00  0.00    +0.143 C 
BRANCH  43  44
ATOM     44  O   UNL     1       3.372   4.033  26.606  0.00  0.00    -0.389 OA
ATOM     45  H   UNL     1       3.347   4.995  26.759  0.00  0.00    +0.210 HD
ENDBRANCH  43  44
ENDBRANCH  32  35
ENDBRANCH  30  31
BRANCH  30  46
ATOM     46  C   UNL     1       4.385  -2.116  25.997  0.00  0.00    +0.048 C 
BRANCH  46  47
ATOM     47  C   UNL     1       3.638  -2.965  26.989  0.00  0.00    -0.047 A 
ATOM     48  C   UNL     1       2.328  -2.661  27.378  0.00  0.00    +0.003 A 
ATOM     49  C   UNL     1       1.682  -3.429  28.344  0.00  0.00    +0.000 A 
ATOM     50  C   UNL     1       2.343  -4.500  28.938  0.00  0.00    +0.000 A 
ATOM     51  C   UNL     1       3.651  -4.805  28.570  0.00  0.00    +0.000 A 
ATOM     52  C   UNL     1       4.300  -4.038  27.600  0.00  0.00    +0.003 A 
ENDBRANCH  46  47
ENDBRANCH  30  46
ENDBRANCH  29  30
ENDBRANCH   1  29
TORSDOF 14
ENDMDL
MODEL 6
REMARK VINA RESULT:      -7.2      3.098      7.919
REMARK  Name = 
REMARK  17 active torsions:
REMARK  status: ('A' for Active; 'I' for Inactive)
REMARK    1  A    between atoms: C_1  and  C_2
REMARK    2  A    between atoms: C_2  and  C_3
REMARK    3  A    between atoms: C_2  and  C_4
REMARK    4  A    between atoms: C_2  and  N_5
REMARK    5  A    between atoms: C_6  and  C_8
REMARK    6  A    between atoms: N_11  and  C_12
REMARK    7  A    between atoms: C_12  and  C_13
REMARK    8  A    between atoms: N_24  and  C_25
REMARK    9  A    between atoms: C_25  and  C_26
REMARK   10  A    between atoms: C_26  and  O_28
REMARK   11  A    between atoms: C_26  and  C_29
REMARK   12  A    between atoms: C_29  and  C_30
REMARK   13  A    between atoms: C_30  and  C_32
REMARK   14  A    between atoms: C_30  and  C_39
REMARK   15  A    between atoms: C_32  and  C_33
REMARK   16  A    between atoms: N_41  and  C_42
REMARK   17  A    between atoms: C_44  and  O_46
REMARK                            x       y       z     vdW  Elec       q    Type
REMARK                         _______ _______ _______ _____ _____    ______ ____
ROOT
ATOM      1  C   UNL     1       7.895  -5.121  27.030  0.00  0.00    +0.129 C 
ENDROOT
BRANCH   1   2
ATOM      2  O   UNL     1       8.630  -6.080  26.272  0.00  0.00    -0.391 OA
ATOM      3  H   UNL     1       8.376  -5.915  25.351  0.00  0.00    +0.210 HD
ENDBRANCH   1   2
BRANCH   1   4
ATOM      4  C   UNL     1       6.405  -5.272  26.684  0.00  0.00    +0.116 C 
BRANCH   4   6
ATOM      5  C   UNL     1       4.198  -6.500  27.164  0.00  0.00    +0.157 C 
ATOM      6  N   UNL     1       5.712  -6.508  27.198  0.00  0.00    -0.287 NA
ATOM      7  C   UNL     1       6.035  -6.616  28.660  0.00  0.00    +0.100 C 
ATOM      8  C   UNL     1       5.442  -5.477  29.542  0.00  0.00    +0.100 C 
ATOM      9  N   UNL     1       3.996  -5.241  29.352  0.00  0.00    -0.292 NA
ATOM     10  C   UNL     1       3.595  -5.287  27.916  0.00  0.00    +0.113 C 
BRANCH   5  13
ATOM     11  N   UNL     1       2.482  -5.927  25.453  0.00  0.00    -0.309 N 
ATOM     12  H   UNL     1       2.423  -5.108  26.057  0.00  0.00    +0.149 HD
ATOM     13  C   UNL     1       3.540  -6.759  25.773  0.00  0.00    +0.232 C 
ATOM     14  O   UNL     1       3.923  -7.646  25.015  0.00  0.00    -0.274 OA
BRANCH  11  16
ATOM     15  C   UNL     1       0.770  -7.297  24.148  0.00  0.00    +0.031 C 
ATOM     16  C   UNL     1       1.579  -5.985  24.274  0.00  0.00    +0.026 C 
ATOM     17  C   UNL     1       0.567  -4.830  24.415  0.00  0.00    +0.031 C 
ATOM     18  C   UNL     1       2.368  -5.790  22.975  0.00  0.00    +0.031 C 
ENDBRANCH  11  16
ENDBRANCH   5  13
BRANCH   9  19
ATOM     19  C   UNL     1       3.598  -3.962  29.980  0.00  0.00    +0.158 C 
BRANCH  19  20
ATOM     20  C   UNL     1       3.716  -2.819  29.034  0.00  0.00    +0.120 A 
ATOM     21  O   UNL     1       2.618  -2.017  28.896  0.00  0.00    -0.458 OA
ATOM     22  C   UNL     1       2.995  -0.965  28.116  0.00  0.00    +0.135 A 
ATOM     23  C   UNL     1       2.190   0.118  27.769  0.00  0.00    +0.047 A 
ATOM     24  C   UNL     1       2.792   1.124  27.005  0.00  0.00    +0.004 A 
ATOM     25  C   UNL     1       4.129   1.029  26.610  0.00  0.00    +0.001 A 
ATOM     26  C   UNL     1       4.908  -0.084  26.957  0.00  0.00    +0.011 A 
ATOM     27  C   UNL     1       4.324  -1.100  27.729  0.00  0.00    +0.020 A 
ATOM     28  C   UNL     1       4.767  -2.325  28.290  0.00  0.00    +0.054 A 
ENDBRANCH  19  20
ENDBRANCH   9  19
ENDBRANCH   4   6
ENDBRANCH   1   4
BRANCH   1  29
ATOM     29  C   UNL     1       8.616  -3.839  26.641  0.00  0.00    +0.045 C 
BRANCH  29  30
ATOM     30  C   UNL     1       8.148  -3.097  25.398  0.00  0.00    +0.082 C 
BRANCH  30  31
ATOM     31  C   UNL     1       8.471  -1.597  25.464  0.00  0.00    +0.217 C 
ATOM     32  N   UNL     1       8.810  -0.962  24.293  0.00  0.00    -0.306 N 
ATOM     33  H   UNL     1       8.583  -1.387  23.405  0.00  0.00    +0.149 HD
ATOM     34  O   UNL     1       8.488  -1.031  26.561  0.00  0.00    -0.275 OA
BRANCH  32  35
ATOM     35  C   UNL     1       9.083   0.463  24.287  0.00  0.00    +0.132 C 
ATOM     36  C   UNL     1       7.987   1.254  23.632  0.00  0.00    -0.022 A 
ATOM     37  C   UNL     1       8.470   2.058  22.599  0.00  0.00    -0.040 A 
ATOM     38  C   UNL     1       7.629   2.916  21.906  0.00  0.00    +0.004 A 
ATOM     39  C   UNL     1       6.282   2.968  22.262  0.00  0.00    +0.000 A 
ATOM     40  C   UNL     1       5.793   2.163  23.299  0.00  0.00    +0.000 A 
ATOM     41  C   UNL     1       9.933   1.870  22.372  0.00  0.00    +0.069 C 
ATOM     42  C   UNL     1       6.646   1.301  23.993  0.00  0.00    +0.006 A 
ATOM     43  C   UNL     1      10.340   0.829  23.436  0.00  0.00    +0.143 C 
BRANCH  43  44
ATOM     44  O   UNL     1      11.385   1.369  24.257  0.00  0.00    -0.389 OA
ATOM     45  H   UNL     1      11.296   0.982  25.147  0.00  0.00    +0.210 HD
ENDBRANCH  43  44
ENDBRANCH  32  35
ENDBRANCH  30  31
BRANCH  30  46
ATOM     46  C   UNL     1       8.725  -3.843  24.180  0.00  0.00    +0.048 C 
BRANCH  46  47
ATOM     47  C   UNL     1       7.719  -4.380  23.199  0.00  0.00    -0.047 A 
ATOM     48  C   UNL     1       7.666  -5.738  22.869  0.00  0.00    +0.003 A 
ATOM     49  C   UNL     1       6.765  -6.199  21.911  0.00  0.00    +0.000 A 
ATOM     50  C   UNL     1       5.918  -5.303  21.266  0.00  0.00    +0.000 A 
ATOM     51  C   UNL     1       5.969  -3.946  21.576  0.00  0.00    +0.000 A 
ATOM     52  C   UNL     1       6.869  -3.483  22.537  0.00  0.00    +0.003 A 
ENDBRANCH  46  47
ENDBRANCH  30  46
ENDBRANCH  29  30
ENDBRANCH   1  29
TORSDOF 14
ENDMDL
MODEL 7
REMARK VINA RESULT:      -7.2      2.702      7.954
REMARK  Name = 
REMARK  17 active torsions:
REMARK  status: ('A' for Active; 'I' for Inactive)
REMARK    1  A    between atoms: C_1  and  C_2
REMARK    2  A    between atoms: C_2  and  C_3
REMARK    3  A    between atoms: C_2  and  C_4
REMARK    4  A    between atoms: C_2  and  N_5
REMARK    5  A    between atoms: C_6  and  C_8
REMARK    6  A    between atoms: N_11  and  C_12
REMARK    7  A    between atoms: C_12  and  C_13
REMARK    8  A    between atoms: N_24  and  C_25
REMARK    9  A    between atoms: C_25  and  C_26
REMARK   10  A    between atoms: C_26  and  O_28
REMARK   11  A    between atoms: C_26  and  C_29
REMARK   12  A    between atoms: C_29  and  C_30
REMARK   13  A    between atoms: C_30  and  C_32
REMARK   14  A    between atoms: C_30  and  C_39
REMARK   15  A    between atoms: C_32  and  C_33
REMARK   16  A    between atoms: N_41  and  C_42
REMARK   17  A    between atoms: C_44  and  O_46
REMARK                            x       y       z     vdW  Elec       q    Type
REMARK                         _______ _______ _______ _____ _____    ______ ____
ROOT
ATOM      1  C   UNL     1       7.438  -0.910  26.749  0.00  0.00    +0.129 C 
ENDROOT
BRANCH   1   2
ATOM      2  O   UNL     1       8.724  -0.293  26.749  0.00  0.00    -0.391 OA
ATOM      3  H   UNL     1       9.321  -0.964  27.112  0.00  0.00    +0.210 HD
ENDBRANCH   1   2
BRANCH   1   4
ATOM      4  C   UNL     1       7.548  -2.253  26.010  0.00  0.00    +0.116 C 
BRANCH   4   6
ATOM      5  C   UNL     1       9.282  -2.411  24.117  0.00  0.00    +0.157 C 
ATOM      6  N   UNL     1       8.928  -2.671  25.567  0.00  0.00    -0.287 NA
ATOM      7  C   UNL     1       8.993  -4.165  25.687  0.00  0.00    +0.100 C 
ATOM      8  C   UNL     1       8.052  -4.937  24.713  0.00  0.00    +0.100 C 
ATOM      9  N   UNL     1       8.166  -4.531  23.298  0.00  0.00    -0.292 NA
ATOM     10  C   UNL     1       8.268  -3.052  23.136  0.00  0.00    +0.113 C 
BRANCH   5  13
ATOM     11  N   UNL     1       8.591  -0.129  23.398  0.00  0.00    -0.309 N 
ATOM     12  H   UNL     1       7.686  -0.528  23.647  0.00  0.00    +0.149 HD
ATOM     13  C   UNL     1       9.654  -0.940  23.754  0.00  0.00    +0.232 C 
ATOM     14  O   UNL     1      10.811  -0.527  23.768  0.00  0.00    -0.274 OA
BRANCH  11  16
ATOM     15  C   UNL     1       9.632   1.519  21.753  0.00  0.00    +0.031 C 
ATOM     16  C   UNL     1       8.616   1.268  22.892  0.00  0.00    +0.026 C 
ATOM     17  C   UNL     1       7.212   1.580  22.336  0.00  0.00    +0.031 C 
ATOM     18  C   UNL     1       8.926   2.251  24.027  0.00  0.00    +0.031 C 
ENDBRANCH  11  16
ENDBRANCH   5  13
BRANCH   9  19
ATOM     19  C   UNL     1       7.036  -5.080  22.515  0.00  0.00    +0.158 C 
BRANCH  19  20
ATOM     20  C   UNL     1       5.807  -5.226  23.343  0.00  0.00    +0.120 A 
ATOM     21  O   UNL     1       5.218  -4.073  23.782  0.00  0.00    -0.458 OA
ATOM     22  C   UNL     1       4.045  -4.432  24.375  0.00  0.00    +0.135 A 
ATOM     23  C   UNL     1       3.107  -3.554  24.916  0.00  0.00    +0.047 A 
ATOM     24  C   UNL     1       1.938  -4.128  25.427  0.00  0.00    +0.004 A 
ATOM     25  C   UNL     1       1.740  -5.511  25.400  0.00  0.00    +0.001 A 
ATOM     26  C   UNL     1       2.712  -6.371  24.868  0.00  0.00    +0.011 A 
ATOM     27  C   UNL     1       3.889  -5.813  24.344  0.00  0.00    +0.020 A 
ATOM     28  C   UNL     1       5.054  -6.320  23.715  0.00  0.00    +0.054 A 
ENDBRANCH  19  20
ENDBRANCH   9  19
ENDBRANCH   4   6
ENDBRANCH   1   4
BRANCH   1  29
ATOM     29  C   UNL     1       6.590   0.199  26.143  0.00  0.00    +0.045 C 
BRANCH  29  30
ATOM     30  C   UNL     1       5.203   0.442  26.719  0.00  0.00    +0.082 C 
BRANCH  30  31
ATOM     31  C   UNL     1       4.909  -0.467  27.921  0.00  0.00    +0.217 C 
ATOM     32  N   UNL     1       4.449  -1.738  27.668  0.00  0.00    -0.306 N 
ATOM     33  H   UNL     1       4.569  -2.143  26.750  0.00  0.00    +0.149 HD
ATOM     34  O   UNL     1       5.023  -0.013  29.063  0.00  0.00    -0.275 OA
BRANCH  32  35
ATOM     35  C   UNL     1       4.195  -2.655  28.763  0.00  0.00    +0.132 C 
ATOM     36  C   UNL     1       4.511  -4.078  28.403  0.00  0.00    -0.022 A 
ATOM     37  C   UNL     1       3.422  -4.924  28.615  0.00  0.00    -0.040 A 
ATOM     38  C   UNL     1       3.523  -6.291  28.404  0.00  0.00    +0.004 A 
ATOM     39  C   UNL     1       4.743  -6.815  27.976  0.00  0.00    +0.000 A 
ATOM     40  C   UNL     1       5.840  -5.970  27.763  0.00  0.00    +0.000 A 
ATOM     41  C   UNL     1       2.211  -4.182  29.077  0.00  0.00    +0.069 C 
ATOM     42  C   UNL     1       5.730  -4.593  27.978  0.00  0.00    +0.006 A 
ATOM     43  C   UNL     1       2.686  -2.716  29.156  0.00  0.00    +0.143 C 
BRANCH  43  44
ATOM     44  O   UNL     1       2.474  -2.216  30.485  0.00  0.00    -0.389 OA
ATOM     45  H   UNL     1       2.089  -1.324  30.411  0.00  0.00    +0.210 HD
ENDBRANCH  43  44
ENDBRANCH  32  35
ENDBRANCH  30  31
BRANCH  30  46
ATOM     46  C   UNL     1       5.084   1.953  26.991  0.00  0.00    +0.048 C 
BRANCH  46  47
ATOM     47  C   UNL     1       5.155   2.848  25.784  0.00  0.00    -0.047 A 
ATOM     48  C   UNL     1       6.022   3.945  25.731  0.00  0.00    +0.003 A 
ATOM     49  C   UNL     1       6.023   4.792  24.626  0.00  0.00    +0.000 A 
ATOM     50  C   UNL     1       5.149   4.558  23.569  0.00  0.00    +0.000 A 
ATOM     51  C   UNL     1       4.271   3.477  23.614  0.00  0.00    +0.000 A 
ATOM     52  C   UNL     1       4.270   2.626  24.720  0.00  0.00    +0.003 A 
ENDBRANCH  46  47
ENDBRANCH  30  46
ENDBRANCH  29  30
ENDBRANCH   1  29
TORSDOF 14
ENDMDL
MODEL 8
REMARK VINA RESULT:      -7.2      2.709      8.201
REMARK  Name = 
REMARK  17 active torsions:
REMARK  status: ('A' for Active; 'I' for Inactive)
REMARK    1  A    between atoms: C_1  and  C_2
REMARK    2  A    between atoms: C_2  and  C_3
REMARK    3  A    between atoms: C_2  and  C_4
REMARK    4  A    between atoms: C_2  and  N_5
REMARK    5  A    between atoms: C_6  and  C_8
REMARK    6  A    between atoms: N_11  and  C_12
REMARK    7  A    between atoms: C_12  and  C_13
REMARK    8  A    between atoms: N_24  and  C_25
REMARK    9  A    between atoms: C_25  and  C_26
REMARK   10  A    between atoms: C_26  and  O_28
REMARK   11  A    between atoms: C_26  and  C_29
REMARK   12  A    between atoms: C_29  and  C_30
REMARK   13  A    between atoms: C_30  and  C_32
REMARK   14  A    between atoms: C_30  and  C_39
REMARK   15  A    between atoms: C_32  and  C_33
REMARK   16  A    between atoms: N_41  and  C_42
REMARK   17  A    between atoms: C_44  and  O_46
REMARK                            x       y       z     vdW  Elec       q    Type
REMARK                         _______ _______ _______ _____ _____    ______ ____
ROOT
ATOM      1  C   UNL     1       8.292   1.384  22.126  0.00  0.00    +0.129 C 
ENDROOT
BRANCH   1   2
ATOM      2  O   UNL     1       8.638   1.124  20.767  0.00  0.00    -0.391 OA
ATOM      3  H   UNL     1       9.547   0.791  20.803  0.00  0.00    +0.210 HD
ENDBRANCH   1   2
BRANCH   1   4
ATOM      4  C   UNL     1       7.731   0.091  22.738  0.00  0.00    +0.116 C 
BRANCH   4   6
ATOM      5  C   UNL     1       8.225  -2.270  23.630  0.00  0.00    +0.157 C 
ATOM      6  N   UNL     1       8.657  -1.099  22.771  0.00  0.00    -0.287 NA
ATOM      7  C   UNL     1       9.936  -0.643  23.409  0.00  0.00    +0.100 C 
ATOM      8  C   UNL     1       9.808  -0.244  24.910  0.00  0.00    +0.100 C 
ATOM      9  N   UNL     1       9.143  -1.252  25.759  0.00  0.00    -0.292 NA
ATOM     10  C   UNL     1       7.951  -1.858  25.099  0.00  0.00    +0.113 C 
BRANCH   5  13
ATOM     11  N   UNL     1       6.534  -4.075  23.918  0.00  0.00    -0.309 N 
ATOM     12  H   UNL     1       6.726  -3.843  24.892  0.00  0.00    +0.149 HD
ATOM     13  C   UNL     1       7.122  -3.194  23.027  0.00  0.00    +0.232 C 
ATOM     14  O   UNL     1       6.802  -3.157  21.842  0.00  0.00    -0.274 OA
BRANCH  11  16
ATOM     15  C   UNL     1       4.180  -4.655  23.122  0.00  0.00    +0.031 C 
ATOM     16  C   UNL     1       5.548  -5.153  23.644  0.00  0.00    +0.026 C 
ATOM     17  C   UNL     1       6.155  -6.062  22.556  0.00  0.00    +0.031 C 
ATOM     18  C   UNL     1       5.297  -5.993  24.902  0.00  0.00    +0.031 C 
ENDBRANCH  11  16
ENDBRANCH   5  13
BRANCH   9  19
ATOM     19  C   UNL     1       8.790  -0.665  27.071  0.00  0.00    +0.158 C 
BRANCH  19  20
ATOM     20  C   UNL     1       7.486   0.052  27.024  0.00  0.00    +0.120 A 
ATOM     21  O   UNL     1       7.448   1.216  26.308  0.00  0.00    -0.458 OA
ATOM     22  C   UNL     1       6.145   1.612  26.272  0.00  0.00    +0.135 A 
ATOM     23  C   UNL     1       5.654   2.729  25.598  0.00  0.00    +0.047 A 
ATOM     24  C   UNL     1       4.269   2.925  25.639  0.00  0.00    +0.004 A 
ATOM     25  C   UNL     1       3.436   2.045  26.334  0.00  0.00    +0.001 A 
ATOM     26  C   UNL     1       3.961   0.941  27.021  0.00  0.00    +0.011 A 
ATOM     27  C   UNL     1       5.348   0.724  26.985  0.00  0.00    +0.020 A 
ATOM     28  C   UNL     1       6.231  -0.256  27.505  0.00  0.00    +0.054 A 
ENDBRANCH  19  20
ENDBRANCH   9  19
ENDBRANCH   4   6
ENDBRANCH   1   4
BRANCH   1  29
ATOM     29  C   UNL     1       7.368   2.582  21.960  0.00  0.00    +0.045 C 
BRANCH  29  30
ATOM     30  C   UNL     1       7.892   3.956  22.352  0.00  0.00    +0.082 C 
BRANCH  30  31
ATOM     31  C   UNL     1       6.793   5.027  22.313  0.00  0.00    +0.217 C 
ATOM     32  N   UNL     1       5.503   4.634  22.581  0.00  0.00    -0.306 N 
ATOM     33  H   UNL     1       5.332   3.757  23.053  0.00  0.00    +0.149 HD
ATOM     34  O   UNL     1       7.084   6.178  21.974  0.00  0.00    -0.275 OA
BRANCH  32  35
ATOM     35  C   UNL     1       4.430   5.610  22.600  0.00  0.00    +0.132 C 
ATOM     36  C   UNL     1       4.034   5.998  23.996  0.00  0.00    -0.022 A 
ATOM     37  C   UNL     1       2.670   5.810  24.222  0.00  0.00    -0.040 A 
ATOM     38  C   UNL     1       2.087   6.167  25.429  0.00  0.00    +0.004 A 
ATOM     39  C   UNL     1       2.891   6.727  26.422  0.00  0.00    +0.000 A 
ATOM     40  C   UNL     1       4.260   6.918  26.199  0.00  0.00    +0.000 A 
ATOM     41  C   UNL     1       1.978   5.209  23.043  0.00  0.00    +0.069 C 
ATOM     42  C   UNL     1       4.840   6.556  24.980  0.00  0.00    +0.006 A 
ATOM     43  C   UNL     1       3.102   5.053  21.997  0.00  0.00    +0.143 C 
BRANCH  43  44
ATOM     44  O   UNL     1       2.740   5.755  20.799  0.00  0.00    -0.389 OA
ATOM     45  H   UNL     1       2.021   5.260  20.367  0.00  0.00    +0.210 HD
ENDBRANCH  43  44
ENDBRANCH  32  35
ENDBRANCH  30  31
BRANCH  30  46
ATOM     46  C   UNL     1       8.609   3.797  23.707  0.00  0.00    +0.048 C 
BRANCH  46  47
ATOM     47  C   UNL     1       9.923   4.515  23.845  0.00  0.00    -0.047 A 
ATOM     48  C   UNL     1      10.010   5.787  24.419  0.00  0.00    +0.003 A 
ATOM     49  C   UNL     1      11.232   6.454  24.479  0.00  0.00    +0.000 A 
ATOM     50  C   UNL     1      12.375   5.860  23.953  0.00  0.00    +0.000 A 
ATOM     51  C   UNL     1      12.301   4.599  23.367  0.00  0.00    +0.000 A 
ATOM     52  C   UNL     1      11.078   3.928  23.308  0.00  0.00    +0.003 A 
ENDBRANCH  46  47
ENDBRANCH  30  46
ENDBRANCH  29  30
ENDBRANCH   1  29
TORSDOF 14
ENDMDL
MODEL 9
REMARK VINA RESULT:      -7.1      2.131      3.977
REMARK  Name = 
REMARK  17 active torsions:
REMARK  status: ('A' for Active; 'I' for Inactive)
REMARK    1  A    between atoms: C_1  and  C_2
REMARK    2  A    between atoms: C_2  and  C_3
REMARK    3  A    between atoms: C_2  and  C_4
REMARK    4  A    between atoms: C_2  and  N_5
REMARK    5  A    between atoms: C_6  and  C_8
REMARK    6  A    between atoms: N_11  and  C_12
REMARK    7  A    between atoms: C_12  and  C_13
REMARK    8  A    between atoms: N_24  and  C_25
REMARK    9  A    between atoms: C_25  and  C_26
REMARK   10  A    between atoms: C_26  and  O_28
REMARK   11  A    between atoms: C_26  and  C_29
REMARK   12  A    between atoms: C_29  and  C_30
REMARK   13  A    between atoms: C_30  and  C_32
REMARK   14  A    between atoms: C_30  and  C_39
REMARK   15  A    between atoms: C_32  and  C_33
REMARK   16  A    between atoms: N_41  and  C_42
REMARK   17  A    between atoms: C_44  and  O_46
REMARK                            x       y       z     vdW  Elec       q    Type
REMARK                         _______ _______ _______ _____ _____    ______ ____
ROOT
ATOM      1  C   UNL     1       8.460   0.854  26.019  0.00  0.00    +0.129 C 
ENDROOT
BRANCH   1   2
ATOM      2  O   UNL     1       8.930  -0.335  26.652  0.00  0.00    -0.391 OA
ATOM      3  H   UNL     1       8.543  -0.311  27.540  0.00  0.00    +0.210 HD
ENDBRANCH   1   2
BRANCH   1   4
ATOM      4  C   UNL     1       7.193   1.322  26.752  0.00  0.00    +0.116 C 
BRANCH   4   6
ATOM      5  C   UNL     1       5.437  -0.157  27.912  0.00  0.00    +0.157 C 
ATOM      6  N   UNL     1       6.785   0.532  27.971  0.00  0.00    -0.287 NA
ATOM      7  C   UNL     1       6.635   1.511  29.098  0.00  0.00    +0.100 C 
ATOM      8  C   UNL     1       5.470   2.531  28.923  0.00  0.00    +0.100 C 
ATOM      9  N   UNL     1       4.165   1.923  28.595  0.00  0.00    -0.292 NA
ATOM     10  C   UNL     1       4.283   0.826  27.591  0.00  0.00    +0.113 C 
BRANCH   5  13
ATOM     11  N   UNL     1       4.125  -2.059  26.984  0.00  0.00    -0.309 N 
ATOM     12  H   UNL     1       3.372  -1.430  27.259  0.00  0.00    +0.149 HD
ATOM     13  C   UNL     1       5.377  -1.478  27.084  0.00  0.00    +0.232 C 
ATOM     14  O   UNL     1       6.371  -1.980  26.566  0.00  0.00    -0.274 OA
BRANCH  11  16
ATOM     15  C   UNL     1       4.544  -4.575  26.916  0.00  0.00    +0.031 C 
ATOM     16  C   UNL     1       3.752  -3.362  26.374  0.00  0.00    +0.026 C 
ATOM     17  C   UNL     1       2.262  -3.605  26.689  0.00  0.00    +0.031 C 
ATOM     18  C   UNL     1       3.931  -3.321  24.852  0.00  0.00    +0.031 C 
ENDBRANCH  11  16
ENDBRANCH   5  13
BRANCH   9  19
ATOM     19  C   UNL     1       3.213   2.963  28.144  0.00  0.00    +0.158 C 
BRANCH  19  20
ATOM     20  C   UNL     1       3.578   3.506  26.807  0.00  0.00    +0.120 A 
ATOM     21  O   UNL     1       3.024   2.892  25.719  0.00  0.00    -0.458 OA
ATOM     22  C   UNL     1       3.364   3.637  24.631  0.00  0.00    +0.135 A 
ATOM     23  C   UNL     1       2.960   3.391  23.320  0.00  0.00    +0.047 A 
ATOM     24  C   UNL     1       3.375   4.316  22.355  0.00  0.00    +0.004 A 
ATOM     25  C   UNL     1       4.162   5.418  22.701  0.00  0.00    +0.001 A 
ATOM     26  C   UNL     1       4.571   5.627  24.026  0.00  0.00    +0.011 A 
ATOM     27  C   UNL     1       4.159   4.714  25.009  0.00  0.00    +0.020 A 
ATOM     28  C   UNL     1       4.329   4.594  26.412  0.00  0.00    +0.054 A 
ENDBRANCH  19  20
ENDBRANCH   9  19
ENDBRANCH   4   6
ENDBRANCH   1   4
BRANCH   1  29
ATOM     29  C   UNL     1       8.345   0.382  24.577  0.00  0.00    +0.045 C 
BRANCH  29  30
ATOM     30  C   UNL     1       9.620  -0.007  23.843  0.00  0.00    +0.082 C 
BRANCH  30  31
ATOM     31  C   UNL     1       9.709  -1.521  23.604  0.00  0.00    +0.217 C 
ATOM     32  N   UNL     1       8.992  -2.347  24.436  0.00  0.00    -0.306 N 
ATOM     33  H   UNL     1       8.232  -1.970  24.985  0.00  0.00    +0.149 HD
ATOM     34  O   UNL     1      10.470  -1.950  22.730  0.00  0.00    -0.275 OA
BRANCH  32  35
ATOM     35  C   UNL     1       9.003  -3.783  24.230  0.00  0.00    +0.132 C 
ATOM     36  C   UNL     1       7.783  -4.267  23.501  0.00  0.00    -0.022 A 
ATOM     37  C   UNL     1       7.117  -5.268  24.209  0.00  0.00    -0.040 A 
ATOM     38  C   UNL     1       5.998  -5.896  23.681  0.00  0.00    +0.004 A 
ATOM     39  C   UNL     1       5.547  -5.513  22.418  0.00  0.00    +0.000 A 
ATOM     40  C   UNL     1       6.214  -4.508  21.704  0.00  0.00    +0.000 A 
ATOM     41  C   UNL     1       7.752  -5.545  25.531  0.00  0.00    +0.069 C 
ATOM     42  C   UNL     1       7.340  -3.880  22.243  0.00  0.00    +0.006 A 
ATOM     43  C   UNL     1       8.955  -4.581  25.571  0.00  0.00    +0.143 C 
BRANCH  43  44
ATOM     44  O   UNL     1      10.162  -5.331  25.774  0.00  0.00    -0.389 OA
ATOM     45  H   UNL     1      10.469  -5.645  24.904  0.00  0.00    +0.210 HD
ENDBRANCH  43  44
ENDBRANCH  32  35
ENDBRANCH  30  31
BRANCH  30  46
ATOM     46  C   UNL     1       9.699   0.866  22.576  0.00  0.00    +0.048 C 
BRANCH  46  47
ATOM     47  C   UNL     1       9.137   2.256  22.698  0.00  0.00    -0.047 A 
ATOM     48  C   UNL     1       9.746   3.228  23.499  0.00  0.00    +0.003 A 
ATOM     49  C   UNL     1       9.170   4.489  23.642  0.00  0.00    +0.000 A 
ATOM     50  C   UNL     1       7.974   4.784  22.995  0.00  0.00    +0.000 A 
ATOM     51  C   UNL     1       7.350   3.822  22.204  0.00  0.00    +0.000 A 
ATOM     52  C   UNL     1       7.927   2.559  22.058  0.00  0.00    +0.003 A 
ENDBRANCH  46  47
ENDBRANCH  30  46
ENDBRANCH  29  30
ENDBRANCH   1  29
TORSDOF 14
ENDMDL
