MODEL 1
REMARK VINA RESULT:      -8.6      0.000      0.000
REMARK  Name = 
REMARK  2 active torsions:
REMARK  status: ('A' for Active; 'I' for Inactive)
REMARK    1  A    between atoms: O_1  and  S_2
REMARK    2  A    between atoms: S_2  and  C_5
REMARK                            x       y       z     vdW  Elec       q    Type
REMARK                         _______ _______ _______ _____ _____    ______ ____
ROOT
ATOM      1  C   UNL     1       5.390  -6.083  26.356  0.00  0.00    +0.118 A 
ATOM      2  C   UNL     1       5.948  -5.105  25.540  0.00  0.00    +0.040 A 
ATOM      3  C   UNL     1       5.847  -5.244  24.170  0.00  0.00    +0.012 A 
ATOM      4  C   UNL     1       5.009  -6.220  23.634  0.00  0.00    +0.042 A 
ATOM      5  N   UNL     1       4.933  -6.069  22.249  0.00  0.00    -0.281 N 
ATOM      6  H   UNL     1       4.365  -6.627  21.627  0.00  0.00    +0.155 HD
ATOM      7  C   UNL     1       5.728  -5.011  21.806  0.00  0.00    +0.251 C 
ATOM      8  O   UNL     1       5.851  -4.599  20.668  0.00  0.00    -0.270 OA
ATOM      9  C   UNL     1       4.361  -7.150  24.432  0.00  0.00    +0.026 A 
ATOM     10  C   UNL     1       6.420  -4.506  23.042  0.00  0.00    +0.071 C 
ATOM     11  C   UNL     1       7.430  -3.619  23.034  0.00  0.00    +0.092 C 
ATOM     12  C   UNL     1       8.235  -3.353  24.279  0.00  0.00    +0.210 C 
ATOM     13  O   UNL     1       8.477  -4.052  25.245  0.00  0.00    -0.285 OA
ATOM     14  C   UNL     1       8.897  -2.086  24.050  0.00  0.00    +0.045 A 
ATOM     15  C   UNL     1       8.734  -1.795  22.696  0.00  0.00    +0.042 A 
ATOM     16  C   UNL     1       9.435  -0.731  22.181  0.00  0.00    +0.024 A 
ATOM     17  C   UNL     1      10.204   0.057  23.068  0.00  0.00    +0.002 A 
ATOM     18  C   UNL     1      10.269  -0.225  24.449  0.00  0.00    +0.001 A 
ATOM     19  C   UNL     1       9.610  -1.330  24.959  0.00  0.00    +0.013 A 
ATOM     20  N   UNL     1       7.958  -2.778  22.058  0.00  0.00    -0.310 N 
ATOM     21  H   UNL     1       7.436  -2.605  21.209  0.00  0.00    +0.152 HD
ATOM     22  C   UNL     1       4.589  -7.102  25.817  0.00  0.00    +0.031 A 
ENDROOT
BRANCH   1  23
ATOM     23  S   UNL     1       5.823  -6.029  28.076  0.00  0.00    +0.110 S 
ATOM     24  O   UNL     1       7.263  -5.920  28.169  0.00  0.00    -0.142 OA
ATOM     25  O   UNL     1       4.943  -5.094  28.741  0.00  0.00    -0.142 OA
BRANCH  23  26
ATOM     26  O   UNL     1       5.449  -7.502  28.623  0.00  0.00    -0.250 OA
ATOM     27  H   UNL     1       6.276  -7.977  28.845  0.00  0.00    +0.245 HD
ENDBRANCH  23  26
ENDBRANCH   1  23
TORSDOF 2
ENDMDL
MODEL 2
REMARK VINA RESULT:      -7.4      3.309      3.724
REMARK  Name = 
REMARK  2 active torsions:
REMARK  status: ('A' for Active; 'I' for Inactive)
REMARK    1  A    between atoms: O_1  and  S_2
REMARK    2  A    between atoms: S_2  and  C_5
REMARK                            x       y       z     vdW  Elec       q    Type
REMARK                         _______ _______ _______ _____ _____    ______ ____
ROOT
ATOM      1  C   UNL     1       5.032  -3.696  27.340  0.00  0.00    +0.118 A 
ATOM      2  C   UNL     1       5.919  -3.317  26.337  0.00  0.00    +0.040 A 
ATOM      3  C   UNL     1       7.136  -3.963  26.247  0.00  0.00    +0.012 A 
ATOM      4  C   UNL     1       7.367  -5.113  26.999  0.00  0.00    +0.042 A 
ATOM      5  N   UNL     1       8.583  -5.686  26.626  0.00  0.00    -0.281 N 
ATOM      6  H   UNL     1       8.965  -6.545  26.994  0.00  0.00    +0.155 HD
ATOM      7  C   UNL     1       9.219  -4.934  25.636  0.00  0.00    +0.251 C 
ATOM      8  O   UNL     1      10.270  -5.182  25.076  0.00  0.00    -0.270 OA
ATOM      9  C   UNL     1       6.456  -5.571  27.939  0.00  0.00    +0.026 A 
ATOM     10  C   UNL     1       8.333  -3.737  25.433  0.00  0.00    +0.071 C 
ATOM     11  C   UNL     1       8.676  -2.658  24.709  0.00  0.00    +0.092 C 
ATOM     12  C   UNL     1       7.846  -1.401  24.756  0.00  0.00    +0.210 C 
ATOM     13  O   UNL     1       7.126  -0.945  25.624  0.00  0.00    -0.285 OA
ATOM     14  C   UNL     1       8.217  -0.647  23.577  0.00  0.00    +0.045 A 
ATOM     15  C   UNL     1       9.358  -1.259  23.060  0.00  0.00    +0.042 A 
ATOM     16  C   UNL     1      10.021  -0.620  22.040  0.00  0.00    +0.024 A 
ATOM     17  C   UNL     1       9.459   0.568  21.517  0.00  0.00    +0.002 A 
ATOM     18  C   UNL     1       8.253   1.103  22.015  0.00  0.00    +0.001 A 
ATOM     19  C   UNL     1       7.615   0.492  23.080  0.00  0.00    +0.013 A 
ATOM     20  N   UNL     1       9.706  -2.394  23.812  0.00  0.00    -0.310 N 
ATOM     21  H   UNL     1      10.252  -3.160  23.436  0.00  0.00    +0.152 HD
ATOM     22  C   UNL     1       5.284  -4.823  28.139  0.00  0.00    +0.031 A 
ENDROOT
BRANCH   1  23
ATOM     23  S   UNL     1       3.639  -2.633  27.615  0.00  0.00    +0.110 S 
ATOM     24  O   UNL     1       2.459  -3.464  27.725  0.00  0.00    -0.142 OA
ATOM     25  O   UNL     1       3.990  -1.671  28.636  0.00  0.00    -0.142 OA
BRANCH  23  26
ATOM     26  O   UNL     1       3.485  -1.818  26.229  0.00  0.00    -0.250 OA
ATOM     27  H   UNL     1       2.961  -1.008  26.395  0.00  0.00    +0.245 HD
ENDBRANCH  23  26
ENDBRANCH   1  23
TORSDOF 2
ENDMDL
MODEL 3
REMARK VINA RESULT:      -7.4      4.226      7.038
REMARK  Name = 
REMARK  2 active torsions:
REMARK  status: ('A' for Active; 'I' for Inactive)
REMARK    1  A    between atoms: O_1  and  S_2
REMARK    2  A    between atoms: S_2  and  C_5
REMARK                            x       y       z     vdW  Elec       q    Type
REMARK                         _______ _______ _______ _____ _____    ______ ____
ROOT
ATOM      1  C   UNL     1       6.322   2.068  23.312  0.00  0.00    +0.118 A 
ATOM      2  C   UNL     1       6.861   0.885  23.808  0.00  0.00    +0.040 A 
ATOM      3  C   UNL     1       7.873   0.267  23.103  0.00  0.00    +0.012 A 
ATOM      4  C   UNL     1       8.489   0.936  22.046  0.00  0.00    +0.042 A 
ATOM      5  N   UNL     1       9.585   0.200  21.595  0.00  0.00    -0.281 N 
ATOM      6  H   UNL     1      10.219   0.481  20.862  0.00  0.00    +0.155 HD
ATOM      7  C   UNL     1       9.729  -0.991  22.309  0.00  0.00    +0.251 C 
ATOM      8  O   UNL     1      10.601  -1.830  22.184  0.00  0.00    -0.270 OA
ATOM      9  C   UNL     1       8.034   2.164  21.590  0.00  0.00    +0.026 A 
ATOM     10  C   UNL     1       8.556  -1.020  23.249  0.00  0.00    +0.071 C 
ATOM     11  C   UNL     1       8.202  -2.091  23.981  0.00  0.00    +0.092 C 
ATOM     12  C   UNL     1       6.881  -2.129  24.703  0.00  0.00    +0.210 C 
ATOM     13  O   UNL     1       5.821  -1.579  24.471  0.00  0.00    -0.285 OA
ATOM     14  C   UNL     1       7.016  -3.165  25.705  0.00  0.00    +0.045 A 
ATOM     15  C   UNL     1       8.185  -3.861  25.398  0.00  0.00    +0.042 A 
ATOM     16  C   UNL     1       8.443  -5.018  26.092  0.00  0.00    +0.024 A 
ATOM     17  C   UNL     1       7.559  -5.385  27.134  0.00  0.00    +0.002 A 
ATOM     18  C   UNL     1       6.435  -4.602  27.467  0.00  0.00    +0.001 A 
ATOM     19  C   UNL     1       6.142  -3.467  26.731  0.00  0.00    +0.013 A 
ATOM     20  N   UNL     1       8.833  -3.293  24.288  0.00  0.00    -0.310 N 
ATOM     21  H   UNL     1       9.824  -3.397  24.113  0.00  0.00    +0.152 HD
ATOM     22  C   UNL     1       6.904   2.720  22.212  0.00  0.00    +0.031 A 
ENDROOT
BRANCH   1  23
ATOM     23  S   UNL     1       4.824   2.642  24.069  0.00  0.00    +0.110 S 
ATOM     24  O   UNL     1       4.380   1.629  25.001  0.00  0.00    -0.142 OA
ATOM     25  O   UNL     1       5.013   4.018  24.473  0.00  0.00    -0.142 OA
BRANCH  23  26
ATOM     26  O   UNL     1       3.750   2.645  22.864  0.00  0.00    -0.250 OA
ATOM     27  H   UNL     1       3.460   1.725  22.695  0.00  0.00    +0.245 HD
ENDBRANCH  23  26
ENDBRANCH   1  23
TORSDOF 2
ENDMDL
MODEL 4
REMARK VINA RESULT:      -7.0      3.324      4.736
REMARK  Name = 
REMARK  2 active torsions:
REMARK  status: ('A' for Active; 'I' for Inactive)
REMARK    1  A    between atoms: O_1  and  S_2
REMARK    2  A    between atoms: S_2  and  C_5
REMARK                            x       y       z     vdW  Elec       q    Type
REMARK                         _______ _______ _______ _____ _____    ______ ____
ROOT
ATOM      1  C   UNL     1       5.976  -4.631  23.528  0.00  0.00    +0.118 A 
ATOM      2  C   UNL     1       6.654  -3.452  23.820  0.00  0.00    +0.040 A 
ATOM      3  C   UNL     1       6.340  -2.774  24.980  0.00  0.00    +0.012 A 
ATOM      4  C   UNL     1       5.529  -3.380  25.938  0.00  0.00    +0.042 A 
ATOM      5  N   UNL     1       5.484  -2.591  27.088  0.00  0.00    -0.281 N 
ATOM      6  H   UNL     1       4.995  -2.823  27.940  0.00  0.00    +0.155 HD
ATOM      7  C   UNL     1       6.237  -1.425  26.937  0.00  0.00    +0.251 C 
ATOM      8  O   UNL     1       6.430  -0.554  27.763  0.00  0.00    -0.270 OA
ATOM      9  C   UNL     1       4.916  -4.604  25.713  0.00  0.00    +0.026 A 
ATOM     10  C   UNL     1       6.738  -1.471  25.520  0.00  0.00    +0.071 C 
ATOM     11  C   UNL     1       7.339  -0.443  24.897  0.00  0.00    +0.092 C 
ATOM     12  C   UNL     1       7.584  -0.477  23.412  0.00  0.00    +0.210 C 
ATOM     13  O   UNL     1       7.001  -1.052  22.513  0.00  0.00    -0.285 OA
ATOM     14  C   UNL     1       8.601   0.524  23.164  0.00  0.00    +0.045 A 
ATOM     15  C   UNL     1       8.716   1.268  24.337  0.00  0.00    +0.042 A 
ATOM     16  C   UNL     1       9.487   2.406  24.301  0.00  0.00    +0.024 A 
ATOM     17  C   UNL     1      10.187   2.702  23.108  0.00  0.00    +0.002 A 
ATOM     18  C   UNL     1      10.109   1.870  21.972  0.00  0.00    +0.001 A 
ATOM     19  C   UNL     1       9.288   0.756  21.988  0.00  0.00    +0.013 A 
ATOM     20  N   UNL     1       7.869   0.766  25.339  0.00  0.00    -0.310 N 
ATOM     21  H   UNL     1       8.035   0.910  26.326  0.00  0.00    +0.152 HD
ATOM     22  C   UNL     1       5.115  -5.220  24.467  0.00  0.00    +0.031 A 
ENDROOT
BRANCH   1  23
ATOM     23  S   UNL     1       6.181  -5.284  21.890  0.00  0.00    +0.110 S 
ATOM     24  O   UNL     1       5.917  -4.217  20.950  0.00  0.00    -0.142 OA
ATOM     25  O   UNL     1       7.408  -6.047  21.851  0.00  0.00    -0.142 OA
BRANCH  23  26
ATOM     26  O   UNL     1       4.964  -6.334  21.730  0.00  0.00    -0.250 OA
ATOM     27  H   UNL     1       4.120  -5.869  21.904  0.00  0.00    +0.245 HD
ENDBRANCH  23  26
ENDBRANCH   1  23
TORSDOF 2
ENDMDL
MODEL 5
REMARK VINA RESULT:      -6.9      2.974      7.216
REMARK  Name = 
REMARK  2 active torsions:
REMARK  status: ('A' for Active; 'I' for Inactive)
REMARK    1  A    between atoms: O_1  and  S_2
REMARK    2  A    between atoms: S_2  and  C_5
REMARK                            x       y       z     vdW  Elec       q    Type
REMARK                         _______ _______ _______ _____ _____    ______ ____
ROOT
ATOM      1  C   UNL     1       7.347  -3.184  24.554  0.00  0.00    +0.118 A 
ATOM      2  C   UNL     1       6.292  -4.062  24.781  0.00  0.00    +0.040 A 
ATOM      3  C   UNL     1       6.406  -4.991  25.796  0.00  0.00    +0.012 A 
ATOM      4  C   UNL     1       7.455  -4.894  26.709  0.00  0.00    +0.042 A 
ATOM      5  N   UNL     1       7.277  -5.823  27.734  0.00  0.00    -0.281 N 
ATOM      6  H   UNL     1       7.879  -5.933  28.538  0.00  0.00    +0.155 HD
ATOM      7  C   UNL     1       6.127  -6.588  27.537  0.00  0.00    +0.251 C 
ATOM      8  O   UNL     1       5.675  -7.451  28.264  0.00  0.00    -0.270 OA
ATOM      9  C   UNL     1       8.472  -3.962  26.562  0.00  0.00    +0.026 A 
ATOM     10  C   UNL     1       5.580  -6.126  26.214  0.00  0.00    +0.071 C 
ATOM     11  C   UNL     1       4.587  -6.743  25.550  0.00  0.00    +0.092 C 
ATOM     12  C   UNL     1       4.266  -6.375  24.126  0.00  0.00    +0.210 C 
ATOM     13  O   UNL     1       4.958  -5.914  23.238  0.00  0.00    -0.285 OA
ATOM     14  C   UNL     1       2.928  -6.875  23.888  0.00  0.00    +0.045 A 
ATOM     15  C   UNL     1       2.622  -7.709  24.963  0.00  0.00    +0.042 A 
ATOM     16  C   UNL     1       1.474  -8.460  24.884  0.00  0.00    +0.024 A 
ATOM     17  C   UNL     1       0.629  -8.276  23.765  0.00  0.00    +0.002 A 
ATOM     18  C   UNL     1       0.937  -7.354  22.743  0.00  0.00    +0.001 A 
ATOM     19  C   UNL     1       2.121  -6.640  22.792  0.00  0.00    +0.013 A 
ATOM     20  N   UNL     1       3.668  -7.728  25.901  0.00  0.00    -0.310 N 
ATOM     21  H   UNL     1       3.532  -7.962  26.876  0.00  0.00    +0.152 HD
ATOM     22  C   UNL     1       8.435  -3.118  25.440  0.00  0.00    +0.031 A 
ENDROOT
BRANCH   1  23
ATOM     23  S   UNL     1       7.290  -2.240  23.053  0.00  0.00    +0.110 S 
ATOM     24  O   UNL     1       6.245  -2.793  22.219  0.00  0.00    -0.142 OA
ATOM     25  O   UNL     1       7.330  -0.835  23.393  0.00  0.00    -0.142 OA
BRANCH  23  26
ATOM     26  O   UNL     1       8.684  -2.589  22.316  0.00  0.00    -0.250 OA
ATOM     27  H   UNL     1       8.661  -3.522  22.021  0.00  0.00    +0.245 HD
ENDBRANCH  23  26
ENDBRANCH   1  23
TORSDOF 2
ENDMDL
MODEL 6
REMARK VINA RESULT:      -6.9      4.530      7.356
REMARK  Name = 
REMARK  2 active torsions:
REMARK  status: ('A' for Active; 'I' for Inactive)
REMARK    1  A    between atoms: O_1  and  S_2
REMARK    2  A    between atoms: S_2  and  C_5
REMARK                            x       y       z     vdW  Elec       q    Type
REMARK                         _______ _______ _______ _____ _____    ______ ____
ROOT
ATOM      1  C   UNL     1       7.786   3.293  25.440  0.00  0.00    +0.118 A 
ATOM      2  C   UNL     1       8.078   1.957  25.185  0.00  0.00    +0.040 A 
ATOM      3  C   UNL     1       8.409   1.582  23.898  0.00  0.00    +0.012 A 
ATOM      4  C   UNL     1       8.665   2.559  22.937  0.00  0.00    +0.042 A 
ATOM      5  N   UNL     1       9.141   1.960  21.770  0.00  0.00    -0.281 N 
ATOM      6  H   UNL     1       9.434   2.450  20.937  0.00  0.00    +0.155 HD
ATOM      7  C   UNL     1       9.199   0.571  21.895  0.00  0.00    +0.251 C 
ATOM      8  O   UNL     1       9.601  -0.232  21.076  0.00  0.00    -0.270 OA
ATOM      9  C   UNL     1       8.476   3.909  23.193  0.00  0.00    +0.026 A 
ATOM     10  C   UNL     1       8.631   0.284  23.258  0.00  0.00    +0.071 C 
ATOM     11  C   UNL     1       8.319  -0.946  23.701  0.00  0.00    +0.092 C 
ATOM     12  C   UNL     1       7.527  -1.131  24.969  0.00  0.00    +0.210 C 
ATOM     13  O   UNL     1       6.715  -0.414  25.523  0.00  0.00    -0.285 OA
ATOM     14  C   UNL     1       7.755  -2.503  25.373  0.00  0.00    +0.045 A 
ATOM     15  C   UNL     1       8.370  -3.134  24.292  0.00  0.00    +0.042 A 
ATOM     16  C   UNL     1       8.525  -4.499  24.351  0.00  0.00    +0.024 A 
ATOM     17  C   UNL     1       8.135  -5.166  25.536  0.00  0.00    +0.002 A 
ATOM     18  C   UNL     1       7.597  -4.472  26.639  0.00  0.00    +0.001 A 
ATOM     19  C   UNL     1       7.388  -3.106  26.559  0.00  0.00    +0.013 A 
ATOM     20  N   UNL     1       8.597  -2.230  23.241  0.00  0.00    -0.310 N 
ATOM     21  H   UNL     1       9.313  -2.366  22.539  0.00  0.00    +0.152 HD
ATOM     22  C   UNL     1       7.989   4.276  24.458  0.00  0.00    +0.031 A 
ENDROOT
BRANCH   1  23
ATOM     23  S   UNL     1       7.059   3.664  27.016  0.00  0.00    +0.110 S 
ATOM     24  O   UNL     1       7.666   4.880  27.511  0.00  0.00    -0.142 OA
ATOM     25  O   UNL     1       5.625   3.520  26.904  0.00  0.00    -0.142 OA
BRANCH  23  26
ATOM     26  O   UNL     1       7.581   2.477  27.979  0.00  0.00    -0.250 OA
ATOM     27  H   UNL     1       6.900   2.300  28.660  0.00  0.00    +0.245 HD
ENDBRANCH  23  26
ENDBRANCH   1  23
TORSDOF 2
ENDMDL
MODEL 7
REMARK VINA RESULT:      -6.9      4.329      7.391
REMARK  Name = 
REMARK  2 active torsions:
REMARK  status: ('A' for Active; 'I' for Inactive)
REMARK    1  A    between atoms: O_1  and  S_2
REMARK    2  A    between atoms: S_2  and  C_5
REMARK                            x       y       z     vdW  Elec       q    Type
REMARK                         _______ _______ _______ _____ _____    ______ ____
ROOT
ATOM      1  C   UNL     1       8.672   1.631  23.916  0.00  0.00    +0.118 A 
ATOM      2  C   UNL     1       7.832   0.530  23.785  0.00  0.00    +0.040 A 
ATOM      3  C   UNL     1       6.823   0.349  24.709  0.00  0.00    +0.012 A 
ATOM      4  C   UNL     1       6.519   1.367  25.611  0.00  0.00    +0.042 A 
ATOM      5  N   UNL     1       5.369   1.036  26.328  0.00  0.00    -0.281 N 
ATOM      6  H   UNL     1       4.918   1.621  27.017  0.00  0.00    +0.155 HD
ATOM      7  C   UNL     1       4.877  -0.216  25.955  0.00  0.00    +0.251 C 
ATOM      8  O   UNL     1       3.875  -0.772  26.363  0.00  0.00    -0.270 OA
ATOM      9  C   UNL     1       7.281   2.522  25.698  0.00  0.00    +0.026 A 
ATOM     10  C   UNL     1       5.871  -0.737  24.954  0.00  0.00    +0.071 C 
ATOM     11  C   UNL     1       5.885  -1.999  24.491  0.00  0.00    +0.092 C 
ATOM     12  C   UNL     1       7.052  -2.514  23.690  0.00  0.00    +0.210 C 
ATOM     13  O   UNL     1       8.225  -2.195  23.682  0.00  0.00    -0.285 OA
ATOM     14  C   UNL     1       6.560  -3.689  23.000  0.00  0.00    +0.045 A 
ATOM     15  C   UNL     1       5.328  -3.996  23.574  0.00  0.00    +0.042 A 
ATOM     16  C   UNL     1       4.736  -5.185  23.222  0.00  0.00    +0.024 A 
ATOM     17  C   UNL     1       5.365  -5.980  22.235  0.00  0.00    +0.002 A 
ATOM     18  C   UNL     1       6.570  -5.584  21.617  0.00  0.00    +0.001 A 
ATOM     19  C   UNL     1       7.196  -4.415  22.013  0.00  0.00    +0.013 A 
ATOM     20  N   UNL     1       4.978  -3.053  24.555  0.00  0.00    -0.310 N 
ATOM     21  H   UNL     1       4.022  -2.875  24.836  0.00  0.00    +0.152 HD
ATOM     22  C   UNL     1       8.403   2.635  24.860  0.00  0.00    +0.031 A 
ENDROOT
BRANCH   1  23
ATOM     23  S   UNL     1      10.134   1.644  22.910  0.00  0.00    +0.110 S 
ATOM     24  O   UNL     1      11.032   2.646  23.443  0.00  0.00    -0.142 OA
ATOM     25  O   UNL     1      10.556   0.277  22.699  0.00  0.00    -0.142 OA
BRANCH  23  26
ATOM     26  O   UNL     1       9.626   2.208  21.485  0.00  0.00    -0.250 OA
ATOM     27  H   UNL     1       9.760   3.178  21.463  0.00  0.00    +0.245 HD
ENDBRANCH  23  26
ENDBRANCH   1  23
TORSDOF 2
ENDMDL
MODEL 8
REMARK VINA RESULT:      -6.8      4.212      7.345
REMARK  Name = 
REMARK  2 active torsions:
REMARK  status: ('A' for Active; 'I' for Inactive)
REMARK    1  A    between atoms: O_1  and  S_2
REMARK    2  A    between atoms: S_2  and  C_5
REMARK                            x       y       z     vdW  Elec       q    Type
REMARK                         _______ _______ _______ _____ _____    ______ ____
ROOT
ATOM      1  C   UNL     1       7.884   1.630  22.974  0.00  0.00    +0.118 A 
ATOM      2  C   UNL     1       7.714   0.567  23.856  0.00  0.00    +0.040 A 
ATOM      3  C   UNL     1       8.478  -0.569  23.684  0.00  0.00    +0.012 A 
ATOM      4  C   UNL     1       9.548  -0.555  22.790  0.00  0.00    +0.042 A 
ATOM      5  N   UNL     1      10.274  -1.741  22.904  0.00  0.00    -0.281 N 
ATOM      6  H   UNL     1      11.116  -1.965  22.393  0.00  0.00    +0.155 HD
ATOM      7  C   UNL     1       9.710  -2.597  23.851  0.00  0.00    +0.251 C 
ATOM      8  O   UNL     1      10.122  -3.684  24.208  0.00  0.00    -0.270 OA
ATOM      9  C   UNL     1       9.802   0.531  21.966  0.00  0.00    +0.026 A 
ATOM     10  C   UNL     1       8.466  -1.891  24.315  0.00  0.00    +0.071 C 
ATOM     11  C   UNL     1       7.518  -2.456  25.082  0.00  0.00    +0.092 C 
ATOM     12  C   UNL     1       6.192  -1.776  25.297  0.00  0.00    +0.210 C 
ATOM     13  O   UNL     1       5.569  -0.991  24.607  0.00  0.00    -0.285 OA
ATOM     14  C   UNL     1       5.622  -2.400  26.473  0.00  0.00    +0.045 A 
ATOM     15  C   UNL     1       6.397  -3.528  26.736  0.00  0.00    +0.042 A 
ATOM     16  C   UNL     1       5.950  -4.403  27.697  0.00  0.00    +0.024 A 
ATOM     17  C   UNL     1       4.785  -4.062  28.422  0.00  0.00    +0.002 A 
ATOM     18  C   UNL     1       4.081  -2.864  28.181  0.00  0.00    +0.001 A 
ATOM     19  C   UNL     1       4.498  -2.010  27.174  0.00  0.00    +0.013 A 
ATOM     20  N   UNL     1       7.463  -3.632  25.826  0.00  0.00    -0.310 N 
ATOM     21  H   UNL     1       8.316  -4.137  26.028  0.00  0.00    +0.152 HD
ATOM     22  C   UNL     1       8.927   1.627  22.034  0.00  0.00    +0.031 A 
ENDROOT
BRANCH   1  23
ATOM     23  S   UNL     1       6.667   2.920  23.036  0.00  0.00    +0.110 S 
ATOM     24  O   UNL     1       6.577   3.382  24.404  0.00  0.00    -0.142 OA
ATOM     25  O   UNL     1       6.909   3.831  21.939  0.00  0.00    -0.142 OA
BRANCH  23  26
ATOM     26  O   UNL     1       5.275   2.163  22.725  0.00  0.00    -0.250 OA
ATOM     27  H   UNL     1       5.268   1.888  21.785  0.00  0.00    +0.245 HD
ENDBRANCH  23  26
ENDBRANCH   1  23
TORSDOF 2
ENDMDL
MODEL 9
REMARK VINA RESULT:      -6.8      3.470      4.261
REMARK  Name = 
REMARK  2 active torsions:
REMARK  status: ('A' for Active; 'I' for Inactive)
REMARK    1  A    between atoms: O_1  and  S_2
REMARK    2  A    between atoms: S_2  and  C_5
REMARK                            x       y       z     vdW  Elec       q    Type
REMARK                         _______ _______ _______ _____ _____    ______ ____
ROOT
ATOM      1  C   UNL     1       6.095  -4.032  27.417  0.00  0.00    +0.118 A 
ATOM      2  C   UNL     1       6.381  -2.934  26.613  0.00  0.00    +0.040 A 
ATOM      3  C   UNL     1       5.483  -1.886  26.572  0.00  0.00    +0.012 A 
ATOM      4  C   UNL     1       4.435  -1.837  27.490  0.00  0.00    +0.042 A 
ATOM      5  N   UNL     1       3.763  -0.620  27.376  0.00  0.00    -0.281 N 
ATOM      6  H   UNL     1       2.988  -0.321  27.950  0.00  0.00    +0.155 HD
ATOM      7  C   UNL     1       4.315   0.176  26.370  0.00  0.00    +0.251 C 
ATOM      8  O   UNL     1       3.983   1.300  26.048  0.00  0.00    -0.270 OA
ATOM      9  C   UNL     1       4.184  -2.876  28.373  0.00  0.00    +0.026 A 
ATOM     10  C   UNL     1       5.393  -0.673  25.756  0.00  0.00    +0.071 C 
ATOM     11  C   UNL     1       6.041  -0.365  24.620  0.00  0.00    +0.092 C 
ATOM     12  C   UNL     1       6.924  -1.376  23.936  0.00  0.00    +0.210 C 
ATOM     13  O   UNL     1       6.897  -2.592  23.928  0.00  0.00    -0.285 OA
ATOM     14  C   UNL     1       7.777  -0.611  23.051  0.00  0.00    +0.045 A 
ATOM     15  C   UNL     1       7.242   0.675  23.002  0.00  0.00    +0.042 A 
ATOM     16  C   UNL     1       7.763   1.551  22.080  0.00  0.00    +0.024 A 
ATOM     17  C   UNL     1       8.865   1.127  21.302  0.00  0.00    +0.002 A 
ATOM     18  C   UNL     1       9.430  -0.157  21.448  0.00  0.00    +0.001 A 
ATOM     19  C   UNL     1       8.870  -1.060  22.336  0.00  0.00    +0.013 A 
ATOM     20  N   UNL     1       6.126   0.791  23.849  0.00  0.00    -0.310 N 
ATOM     21  H   UNL     1       5.811   1.673  24.232  0.00  0.00    +0.152 HD
ATOM     22  C   UNL     1       5.008  -4.012  28.306  0.00  0.00    +0.031 A 
ENDROOT
BRANCH   1  23
ATOM     23  S   UNL     1       7.104  -5.474  27.188  0.00  0.00    +0.110 S 
ATOM     24  O   UNL     1       7.061  -6.246  28.410  0.00  0.00    -0.142 OA
ATOM     25  O   UNL     1       6.782  -6.059  25.906  0.00  0.00    -0.142 OA
BRANCH  23  26
ATOM     26  O   UNL     1       8.605  -4.890  27.079  0.00  0.00    -0.250 OA
ATOM     27  H   UNL     1       9.166  -5.542  26.610  0.00  0.00    +0.245 HD
ENDBRANCH  23  26
ENDBRANCH   1  23
TORSDOF 2
ENDMDL
