MODEL 1
REMARK VINA RESULT:      -5.4      0.000      0.000
REMARK  Name = 
REMARK  5 active torsions:
REMARK  status: ('A' for Active; 'I' for Inactive)
REMARK    1  A    between atoms: C_1  and  C_2
REMARK    2  A    between atoms: C_2  and  C_3
REMARK    3  A    between atoms: C_3  and  N_4
REMARK    4  A    between atoms: C_3  and  C_5
REMARK    5  A    between atoms: C_5  and  C_6
REMARK                            x       y       z     vdW  Elec       q    Type
REMARK                         _______ _______ _______ _____ _____    ______ ____
ROOT
ATOM      1  C   UNL     1       9.466  -1.416  24.444  0.00  0.00    -0.021 A 
ATOM      2  C   UNL     1       9.589  -0.174  23.740  0.00  0.00    +0.003 A 
ATOM      3  C   UNL     1       9.381   0.851  24.662  0.00  0.00    +0.047 A 
ATOM      4  C   UNL     1       9.533   2.204  24.339  0.00  0.00    +0.026 A 
ATOM      5  C   UNL     1       9.897   2.520  23.025  0.00  0.00    +0.002 A 
ATOM      6  C   UNL     1      10.067   1.524  22.069  0.00  0.00    +0.001 A 
ATOM      7  N   UNL     1       9.034   0.257  25.854  0.00  0.00    -0.360 N 
ATOM      8  H   UNL     1       8.805   0.761  26.699  0.00  0.00    +0.165 HD
ATOM      9  C   UNL     1       9.908   0.177  22.410  0.00  0.00    +0.010 A 
ATOM     10  C   UNL     1       9.086  -1.106  25.736  0.00  0.00    +0.087 A 
ENDROOT
BRANCH   1  11
ATOM     11  C   UNL     1       9.756  -2.789  23.908  0.00  0.00    +0.055 C 
BRANCH  11  12
ATOM     12  C   UNL     1       9.169  -3.925  24.786  0.00  0.00    +0.055 C 
BRANCH  12  13
ATOM     13  N   UNL     1      10.178  -4.983  24.956  0.00  0.00    -0.327 NA
ATOM     14  H   UNL     1      10.877  -4.902  24.220  0.00  0.00    +0.118 HD
ATOM     15  H   UNL     1      10.679  -4.837  25.834  0.00  0.00    +0.118 HD
ENDBRANCH  12  13
BRANCH  12  17
ATOM     16  C   UNL     1       7.543  -3.989  22.803  0.00  0.00    +0.005 C 
ATOM     17  C   UNL     1       7.858  -4.496  24.206  0.00  0.00    +0.015 C 
ENDBRANCH  12  17
ENDBRANCH  11  12
ENDBRANCH   1  11
TORSDOF 4
ENDMDL
MODEL 2
REMARK VINA RESULT:      -5.4      1.816      2.340
REMARK  Name = 
REMARK  5 active torsions:
REMARK  status: ('A' for Active; 'I' for Inactive)
REMARK    1  A    between atoms: C_1  and  C_2
REMARK    2  A    between atoms: C_2  and  C_3
REMARK    3  A    between atoms: C_3  and  N_4
REMARK    4  A    between atoms: C_3  and  C_5
REMARK    5  A    between atoms: C_5  and  C_6
REMARK                            x       y       z     vdW  Elec       q    Type
REMARK                         _______ _______ _______ _____ _____    ______ ____
ROOT
ATOM      1  C   UNL     1       9.791  -1.699  23.075  0.00  0.00    -0.021 A 
ATOM      2  C   UNL     1      10.138  -0.319  23.238  0.00  0.00    +0.003 A 
ATOM      3  C   UNL     1       9.789   0.341  22.060  0.00  0.00    +0.047 A 
ATOM      4  C   UNL     1       9.890   1.729  21.911  0.00  0.00    +0.026 A 
ATOM      5  C   UNL     1      10.376   2.465  22.997  0.00  0.00    +0.002 A 
ATOM      6  C   UNL     1      10.776   1.832  24.171  0.00  0.00    +0.001 A 
ATOM      7  N   UNL     1       9.353  -0.617  21.174  0.00  0.00    -0.360 N 
ATOM      8  H   UNL     1       9.054  -0.427  20.229  0.00  0.00    +0.165 HD
ATOM      9  C   UNL     1      10.670   0.444  24.301  0.00  0.00    +0.010 A 
ATOM     10  C   UNL     1       9.347  -1.848  21.774  0.00  0.00    +0.087 A 
ENDROOT
BRANCH   1  11
ATOM     11  C   UNL     1       9.837  -2.772  24.125  0.00  0.00    +0.055 C 
BRANCH  11  12
ATOM     12  C   UNL     1       8.438  -3.144  24.683  0.00  0.00    +0.055 C 
BRANCH  12  13
ATOM     13  N   UNL     1       8.356  -2.756  26.100  0.00  0.00    -0.327 NA
ATOM     14  H   UNL     1       7.380  -2.615  26.353  0.00  0.00    +0.118 HD
ATOM     15  H   UNL     1       8.689  -3.525  26.683  0.00  0.00    +0.118 HD
ENDBRANCH  12  13
BRANCH  12  17
ATOM     16  C   UNL     1       7.525  -4.971  23.131  0.00  0.00    +0.005 C 
ATOM     17  C   UNL     1       8.114  -4.642  24.497  0.00  0.00    +0.015 C 
ENDBRANCH  12  17
ENDBRANCH  11  12
ENDBRANCH   1  11
TORSDOF 4
ENDMDL
MODEL 3
REMARK VINA RESULT:      -5.0      1.442      5.219
REMARK  Name = 
REMARK  5 active torsions:
REMARK  status: ('A' for Active; 'I' for Inactive)
REMARK    1  A    between atoms: C_1  and  C_2
REMARK    2  A    between atoms: C_2  and  C_3
REMARK    3  A    between atoms: C_3  and  N_4
REMARK    4  A    between atoms: C_3  and  C_5
REMARK    5  A    between atoms: C_5  and  C_6
REMARK                            x       y       z     vdW  Elec       q    Type
REMARK                         _______ _______ _______ _____ _____    ______ ____
ROOT
ATOM      1  C   UNL     1       8.464  -2.870  24.514  0.00  0.00    -0.021 A 
ATOM      2  C   UNL     1       7.655  -3.379  23.447  0.00  0.00    +0.003 A 
ATOM      3  C   UNL     1       7.785  -4.768  23.452  0.00  0.00    +0.047 A 
ATOM      4  C   UNL     1       7.044  -5.601  22.607  0.00  0.00    +0.026 A 
ATOM      5  C   UNL     1       6.149  -4.994  21.718  0.00  0.00    +0.002 A 
ATOM      6  C   UNL     1       6.029  -3.609  21.657  0.00  0.00    +0.001 A 
ATOM      7  N   UNL     1       8.724  -5.082  24.408  0.00  0.00    -0.360 N 
ATOM      8  H   UNL     1       9.035  -6.020  24.617  0.00  0.00    +0.165 HD
ATOM      9  C   UNL     1       6.780  -2.792  22.508  0.00  0.00    +0.010 A 
ATOM     10  C   UNL     1       9.136  -3.949  25.056  0.00  0.00    +0.087 A 
ENDROOT
BRANCH   1  11
ATOM     11  C   UNL     1       8.528  -1.449  24.998  0.00  0.00    +0.055 C 
BRANCH  11  12
ATOM     12  C   UNL     1       9.695  -0.640  24.373  0.00  0.00    +0.055 C 
BRANCH  12  13
ATOM     13  N   UNL     1      10.238   0.290  25.375  0.00  0.00    -0.327 NA
ATOM     14  H   UNL     1       9.971   1.241  25.130  0.00  0.00    +0.118 HD
ATOM     15  H   UNL     1       9.807   0.102  26.282  0.00  0.00    +0.118 HD
ENDBRANCH  12  13
BRANCH  12  17
ATOM     16  C   UNL     1       9.714  -0.580  21.808  0.00  0.00    +0.005 C 
ATOM     17  C   UNL     1       9.267   0.109  23.092  0.00  0.00    +0.015 C 
ENDBRANCH  12  17
ENDBRANCH  11  12
ENDBRANCH   1  11
TORSDOF 4
ENDMDL
MODEL 4
REMARK VINA RESULT:      -4.9      1.778      4.843
REMARK  Name = 
REMARK  5 active torsions:
REMARK  status: ('A' for Active; 'I' for Inactive)
REMARK    1  A    between atoms: C_1  and  C_2
REMARK    2  A    between atoms: C_2  and  C_3
REMARK    3  A    between atoms: C_3  and  N_4
REMARK    4  A    between atoms: C_3  and  C_5
REMARK    5  A    between atoms: C_5  and  C_6
REMARK                            x       y       z     vdW  Elec       q    Type
REMARK                         _______ _______ _______ _____ _____    ______ ____
ROOT
ATOM      1  C   UNL     1       9.445  -0.989  24.814  0.00  0.00    -0.021 A 
ATOM      2  C   UNL     1       9.042  -2.344  25.050  0.00  0.00    +0.003 A 
ATOM      3  C   UNL     1       8.154  -2.334  26.125  0.00  0.00    +0.047 A 
ATOM      4  C   UNL     1       7.478  -3.479  26.560  0.00  0.00    +0.026 A 
ATOM      5  C   UNL     1       7.728  -4.678  25.882  0.00  0.00    +0.002 A 
ATOM      6  C   UNL     1       8.644  -4.731  24.835  0.00  0.00    +0.001 A 
ATOM      7  N   UNL     1       8.105  -1.042  26.596  0.00  0.00    -0.360 N 
ATOM      8  H   UNL     1       7.554  -0.743  27.388  0.00  0.00    +0.165 HD
ATOM      9  C   UNL     1       9.312  -3.576  24.416  0.00  0.00    +0.010 A 
ATOM     10  C   UNL     1       8.874  -0.224  25.813  0.00  0.00    +0.087 A 
ENDROOT
BRANCH   1  11
ATOM     11  C   UNL     1      10.272  -0.481  23.669  0.00  0.00    +0.055 C 
BRANCH  11  12
ATOM     12  C   UNL     1       9.498  -0.436  22.325  0.00  0.00    +0.055 C 
BRANCH  12  13
ATOM     13  N   UNL     1      10.013  -1.481  21.427  0.00  0.00    -0.327 NA
ATOM     14  H   UNL     1       9.347  -1.634  20.672  0.00  0.00    +0.118 HD
ATOM     15  H   UNL     1      10.872  -1.154  20.982  0.00  0.00    +0.118 HD
ENDBRANCH  12  13
BRANCH  12  17
ATOM     16  C   UNL     1       9.867   2.084  22.634  0.00  0.00    +0.005 C 
ATOM     17  C   UNL     1       9.566   0.954  21.657  0.00  0.00    +0.015 C 
ENDBRANCH  12  17
ENDBRANCH  11  12
ENDBRANCH   1  11
TORSDOF 4
ENDMDL
MODEL 5
REMARK VINA RESULT:      -4.9      2.134      5.317
REMARK  Name = 
REMARK  5 active torsions:
REMARK  status: ('A' for Active; 'I' for Inactive)
REMARK    1  A    between atoms: C_1  and  C_2
REMARK    2  A    between atoms: C_2  and  C_3
REMARK    3  A    between atoms: C_3  and  N_4
REMARK    4  A    between atoms: C_3  and  C_5
REMARK    5  A    between atoms: C_5  and  C_6
REMARK                            x       y       z     vdW  Elec       q    Type
REMARK                         _______ _______ _______ _____ _____    ______ ____
ROOT
ATOM      1  C   UNL     1       9.299  -1.200  22.370  0.00  0.00    -0.021 A 
ATOM      2  C   UNL     1       8.148  -1.851  22.922  0.00  0.00    +0.003 A 
ATOM      3  C   UNL     1       8.600  -2.756  23.881  0.00  0.00    +0.047 A 
ATOM      4  C   UNL     1       7.734  -3.491  24.699  0.00  0.00    +0.026 A 
ATOM      5  C   UNL     1       6.358  -3.303  24.520  0.00  0.00    +0.002 A 
ATOM      6  C   UNL     1       5.874  -2.442  23.541  0.00  0.00    +0.001 A 
ATOM      7  N   UNL     1       9.976  -2.740  23.835  0.00  0.00    -0.360 N 
ATOM      8  H   UNL     1      10.573  -3.316  24.410  0.00  0.00    +0.165 HD
ATOM      9  C   UNL     1       6.755  -1.718  22.731  0.00  0.00    +0.010 A 
ATOM     10  C   UNL     1      10.407  -1.805  22.933  0.00  0.00    +0.087 A 
ENDROOT
BRANCH   1  11
ATOM     11  C   UNL     1       9.309  -0.042  21.414  0.00  0.00    +0.055 C 
BRANCH  11  12
ATOM     12  C   UNL     1       9.012   1.319  22.097  0.00  0.00    +0.055 C 
BRANCH  12  13
ATOM     13  N   UNL     1       8.224   2.163  21.185  0.00  0.00    -0.327 NA
ATOM     14  H   UNL     1       7.246   2.139  21.467  0.00  0.00    +0.118 HD
ATOM     15  H   UNL     1       8.519   3.136  21.282  0.00  0.00    +0.118 HD
ENDBRANCH  12  13
BRANCH  12  17
ATOM     16  C   UNL     1      10.641   1.811  24.016  0.00  0.00    +0.005 C 
ATOM     17  C   UNL     1      10.300   2.040  22.549  0.00  0.00    +0.015 C 
ENDBRANCH  12  17
ENDBRANCH  11  12
ENDBRANCH   1  11
TORSDOF 4
ENDMDL
MODEL 6
REMARK VINA RESULT:      -4.9      1.469      1.702
REMARK  Name = 
REMARK  5 active torsions:
REMARK  status: ('A' for Active; 'I' for Inactive)
REMARK    1  A    between atoms: C_1  and  C_2
REMARK    2  A    between atoms: C_2  and  C_3
REMARK    3  A    between atoms: C_3  and  N_4
REMARK    4  A    between atoms: C_3  and  C_5
REMARK    5  A    between atoms: C_5  and  C_6
REMARK                            x       y       z     vdW  Elec       q    Type
REMARK                         _______ _______ _______ _____ _____    ______ ____
ROOT
ATOM      1  C   UNL     1       9.822  -0.458  23.787  0.00  0.00    -0.021 A 
ATOM      2  C   UNL     1       9.078   0.595  23.162  0.00  0.00    +0.003 A 
ATOM      3  C   UNL     1       9.349   1.770  23.863  0.00  0.00    +0.047 A 
ATOM      4  C   UNL     1       8.871   3.022  23.458  0.00  0.00    +0.026 A 
ATOM      5  C   UNL     1       8.079   3.072  22.305  0.00  0.00    +0.002 A 
ATOM      6  C   UNL     1       7.753   1.912  21.609  0.00  0.00    +0.001 A 
ATOM      7  N   UNL     1      10.135   1.426  24.939  0.00  0.00    -0.360 N 
ATOM      8  H   UNL     1      10.468   2.078  25.635  0.00  0.00    +0.165 HD
ATOM      9  C   UNL     1       8.238   0.670  22.030  0.00  0.00    +0.010 A 
ATOM     10  C   UNL     1      10.429   0.090  24.902  0.00  0.00    +0.087 A 
ENDROOT
BRANCH   1  11
ATOM     11  C   UNL     1       9.971  -1.870  23.298  0.00  0.00    +0.055 C 
BRANCH  11  12
ATOM     12  C   UNL     1       8.798  -2.792  23.721  0.00  0.00    +0.055 C 
BRANCH  12  13
ATOM     13  N   UNL     1       9.334  -4.043  24.279  0.00  0.00    -0.327 NA
ATOM     14  H   UNL     1       8.772  -4.826  23.951  0.00  0.00    +0.118 HD
ATOM     15  H   UNL     1      10.275  -4.202  23.913  0.00  0.00    +0.118 HD
ENDBRANCH  12  13
BRANCH  12  17
ATOM     16  C   UNL     1       6.441  -2.474  22.760  0.00  0.00    +0.005 C 
ATOM     17  C   UNL     1       7.826  -3.075  22.555  0.00  0.00    +0.015 C 
ENDBRANCH  12  17
ENDBRANCH  11  12
ENDBRANCH   1  11
TORSDOF 4
ENDMDL
MODEL 7
REMARK VINA RESULT:      -4.8      1.950      2.619
REMARK  Name = 
REMARK  5 active torsions:
REMARK  status: ('A' for Active; 'I' for Inactive)
REMARK    1  A    between atoms: C_1  and  C_2
REMARK    2  A    between atoms: C_2  and  C_3
REMARK    3  A    between atoms: C_3  and  N_4
REMARK    4  A    between atoms: C_3  and  C_5
REMARK    5  A    between atoms: C_5  and  C_6
REMARK                            x       y       z     vdW  Elec       q    Type
REMARK                         _______ _______ _______ _____ _____    ______ ____
ROOT
ATOM      1  C   UNL     1       8.976  -1.860  24.153  0.00  0.00    -0.021 A 
ATOM      2  C   UNL     1       9.522  -0.591  23.772  0.00  0.00    +0.003 A 
ATOM      3  C   UNL     1       9.321  -0.446  22.400  0.00  0.00    +0.047 A 
ATOM      4  C   UNL     1       9.638   0.728  21.708  0.00  0.00    +0.026 A 
ATOM      5  C   UNL     1      10.190   1.785  22.441  0.00  0.00    +0.002 A 
ATOM      6  C   UNL     1      10.445   1.656  23.803  0.00  0.00    +0.001 A 
ATOM      7  N   UNL     1       8.779  -1.626  21.944  0.00  0.00    -0.360 N 
ATOM      8  H   UNL     1       8.547  -1.813  20.979  0.00  0.00    +0.165 HD
ATOM      9  C   UNL     1      10.124   0.473  24.477  0.00  0.00    +0.010 A 
ATOM     10  C   UNL     1       8.563  -2.482  22.990  0.00  0.00    +0.087 A 
ENDROOT
BRANCH   1  11
ATOM     11  C   UNL     1       8.819  -2.392  25.548  0.00  0.00    +0.055 C 
BRANCH  11  12
ATOM     12  C   UNL     1       7.746  -3.506  25.663  0.00  0.00    +0.055 C 
BRANCH  12  13
ATOM     13  N   UNL     1       6.715  -3.096  26.629  0.00  0.00    -0.327 NA
ATOM     14  H   UNL     1       6.551  -3.855  27.288  0.00  0.00    +0.118 HD
ATOM     15  H   UNL     1       7.063  -2.313  27.185  0.00  0.00    +0.118 HD
ENDBRANCH  12  13
BRANCH  12  17
ATOM     16  C   UNL     1       9.767  -5.079  25.507  0.00  0.00    +0.005 C 
ATOM     17  C   UNL     1       8.357  -4.871  26.047  0.00  0.00    +0.015 C 
ENDBRANCH  12  17
ENDBRANCH  11  12
ENDBRANCH   1  11
TORSDOF 4
ENDMDL
MODEL 8
REMARK VINA RESULT:      -4.8      2.384      2.656
REMARK  Name = 
REMARK  5 active torsions:
REMARK  status: ('A' for Active; 'I' for Inactive)
REMARK    1  A    between atoms: C_1  and  C_2
REMARK    2  A    between atoms: C_2  and  C_3
REMARK    3  A    between atoms: C_3  and  N_4
REMARK    4  A    between atoms: C_3  and  C_5
REMARK    5  A    between atoms: C_5  and  C_6
REMARK                            x       y       z     vdW  Elec       q    Type
REMARK                         _______ _______ _______ _____ _____    ______ ____
ROOT
ATOM      1  C   UNL     1       7.235  -2.308  23.392  0.00  0.00    -0.021 A 
ATOM      2  C   UNL     1       7.888  -1.256  22.671  0.00  0.00    +0.003 A 
ATOM      3  C   UNL     1       7.185  -0.079  22.924  0.00  0.00    +0.047 A 
ATOM      4  C   UNL     1       7.611   1.172  22.462  0.00  0.00    +0.026 A 
ATOM      5  C   UNL     1       8.788   1.218  21.706  0.00  0.00    +0.002 A 
ATOM      6  C   UNL     1       9.488   0.056  21.398  0.00  0.00    +0.001 A 
ATOM      7  N   UNL     1       6.083  -0.420  23.675  0.00  0.00    -0.360 N 
ATOM      8  H   UNL     1       5.381   0.235  23.988  0.00  0.00    +0.165 HD
ATOM      9  C   UNL     1       9.046  -1.186  21.866  0.00  0.00    +0.010 A 
ATOM     10  C   UNL     1       6.105  -1.757  23.966  0.00  0.00    +0.087 A 
ENDROOT
BRANCH   1  11
ATOM     11  C   UNL     1       7.712  -3.723  23.552  0.00  0.00    +0.055 C 
BRANCH  11  12
ATOM     12  C   UNL     1       6.605  -4.691  24.047  0.00  0.00    +0.055 C 
BRANCH  12  13
ATOM     13  N   UNL     1       7.038  -5.329  25.301  0.00  0.00    -0.327 NA
ATOM     14  H   UNL     1       6.378  -5.097  26.041  0.00  0.00    +0.118 HD
ATOM     15  H   UNL     1       6.996  -6.345  25.197  0.00  0.00    +0.118 HD
ENDBRANCH  12  13
BRANCH  12  17
ATOM     16  C   UNL     1       7.018  -5.607  21.687  0.00  0.00    +0.005 C 
ATOM     17  C   UNL     1       6.232  -5.747  22.985  0.00  0.00    +0.015 C 
ENDBRANCH  12  17
ENDBRANCH  11  12
ENDBRANCH   1  11
TORSDOF 4
ENDMDL
MODEL 9
REMARK VINA RESULT:      -4.8      1.654      5.414
REMARK  Name = 
REMARK  5 active torsions:
REMARK  status: ('A' for Active; 'I' for Inactive)
REMARK    1  A    between atoms: C_1  and  C_2
REMARK    2  A    between atoms: C_2  and  C_3
REMARK    3  A    between atoms: C_3  and  N_4
REMARK    4  A    between atoms: C_3  and  C_5
REMARK    5  A    between atoms: C_5  and  C_6
REMARK                            x       y       z     vdW  Elec       q    Type
REMARK                         _______ _______ _______ _____ _____    ______ ____
ROOT
ATOM      1  C   UNL     1       8.153  -1.508  23.753  0.00  0.00    -0.021 A 
ATOM      2  C   UNL     1       8.271  -2.654  24.604  0.00  0.00    +0.003 A 
ATOM      3  C   UNL     1       8.113  -3.786  23.804  0.00  0.00    +0.047 A 
ATOM      4  C   UNL     1       8.276  -5.087  24.291  0.00  0.00    +0.026 A 
ATOM      5  C   UNL     1       8.600  -5.238  25.644  0.00  0.00    +0.002 A 
ATOM      6  C   UNL     1       8.720  -4.131  26.479  0.00  0.00    +0.001 A 
ATOM      7  N   UNL     1       7.797  -3.344  22.539  0.00  0.00    -0.360 N 
ATOM      8  H   UNL     1       7.607  -3.950  21.754  0.00  0.00    +0.165 HD
ATOM      9  C   UNL     1       8.550  -2.838  25.975  0.00  0.00    +0.010 A 
ATOM     10  C   UNL     1       7.822  -1.976  22.495  0.00  0.00    +0.087 A 
ENDROOT
BRANCH   1  11
ATOM     11  C   UNL     1       8.400  -0.075  24.130  0.00  0.00    +0.055 C 
BRANCH  11  12
ATOM     12  C   UNL     1       9.906   0.297  24.169  0.00  0.00    +0.055 C 
BRANCH  12  13
ATOM     13  N   UNL     1      10.345   0.417  25.568  0.00  0.00    -0.327 NA
ATOM     14  H   UNL     1      11.228  -0.075  25.686  0.00  0.00    +0.118 HD
ATOM     15  H   UNL     1      10.539   1.397  25.781  0.00  0.00    +0.118 HD
ENDBRANCH  12  13
BRANCH  12  17
ATOM     16  C   UNL     1       9.859   1.490  21.899  0.00  0.00    +0.005 C 
ATOM     17  C   UNL     1      10.210   1.587  23.378  0.00  0.00    +0.015 C 
ENDBRANCH  12  17
ENDBRANCH  11  12
ENDBRANCH   1  11
TORSDOF 4
ENDMDL
