MODEL 1
REMARK VINA RESULT:      -5.5      0.000      0.000
REMARK  Name = 
REMARK  7 active torsions:
REMARK  status: ('A' for Active; 'I' for Inactive)
REMARK    1  A    between atoms: C_1  and  C_2
REMARK    2  A    between atoms: C_4  and  C_5
REMARK    3  A    between atoms: C_7  and  O_8
REMARK    4  A    between atoms: O_8  and  P_9
REMARK    5  A    between atoms: P_9  and  O_10
REMARK    6  A    between atoms: P_9  and  O_11
REMARK    7  A    between atoms: C_13  and  C_14
REMARK                            x       y       z     vdW  Elec       q    Type
REMARK                         _______ _______ _______ _____ _____    ______ ____
ROOT
ATOM      1  C   UNL     1       3.205  -7.607  24.510  0.00  0.00    +0.044 C 
ATOM      2  C   UNL     1       4.418  -6.745  24.681  0.00  0.00    -0.049 A 
ATOM      3  C   UNL     1       5.086  -6.231  23.563  0.00  0.00    +0.018 A 
ATOM      4  C   UNL     1       6.222  -5.406  23.691  0.00  0.00    +0.057 A 
ATOM      5  C   UNL     1       6.718  -5.120  24.970  0.00  0.00    +0.152 A 
ATOM      6  C   UNL     1       6.033  -5.633  26.092  0.00  0.00    +0.057 A 
ATOM      7  C   UNL     1       4.891  -6.426  25.950  0.00  0.00    +0.018 A 
ENDROOT
BRANCH   4   8
ATOM      8  C   UNL     1       6.747  -4.846  22.426  0.00  0.00    +0.262 C 
ATOM      9  O   UNL     1       7.099  -5.574  21.500  0.00  0.00    -0.296 OA
ENDBRANCH   4   8
BRANCH   6  10
ATOM     10  C   UNL     1       6.512  -5.351  27.468  0.00  0.00    +0.262 C 
ATOM     11  O   UNL     1       7.294  -6.091  28.051  0.00  0.00    -0.296 OA
ENDBRANCH   6  10
BRANCH   5  12
ATOM     12  O   UNL     1       7.798  -4.377  25.319  0.00  0.00    -0.403 OA
BRANCH  12  13
ATOM     13  P   UNL     1       9.357  -4.603  25.173  0.00  0.00    +0.528 P 
ATOM     14  O   UNL     1      10.150  -3.640  24.367  0.00  0.00    -0.216 OA
BRANCH  13  15
ATOM     15  O   UNL     1       9.405  -6.090  24.585  0.00  0.00    -0.293 OA
ATOM     16  H   UNL     1       8.771  -6.672  25.047  0.00  0.00    +0.223 HD
ENDBRANCH  13  15
BRANCH  13  17
ATOM     17  O   UNL     1       9.824  -4.873  26.673  0.00  0.00    -0.293 OA
ATOM     18  H   UNL     1       9.366  -5.650  27.045  0.00  0.00    +0.223 HD
ENDBRANCH  13  17
ENDBRANCH  12  13
ENDBRANCH   5  12
TORSDOF 6
ENDMDL
MODEL 2
REMARK VINA RESULT:      -5.5      0.527      3.151
REMARK  Name = 
REMARK  7 active torsions:
REMARK  status: ('A' for Active; 'I' for Inactive)
REMARK    1  A    between atoms: C_1  and  C_2
REMARK    2  A    between atoms: C_4  and  C_5
REMARK    3  A    between atoms: C_7  and  O_8
REMARK    4  A    between atoms: O_8  and  P_9
REMARK    5  A    between atoms: P_9  and  O_10
REMARK    6  A    between atoms: P_9  and  O_11
REMARK    7  A    between atoms: C_13  and  C_14
REMARK                            x       y       z     vdW  Elec       q    Type
REMARK                         _______ _______ _______ _____ _____    ______ ____
ROOT
ATOM      1  C   UNL     1       2.978  -7.693  24.685  0.00  0.00    +0.044 C 
ATOM      2  C   UNL     1       4.214  -6.869  24.881  0.00  0.00    -0.049 A 
ATOM      3  C   UNL     1       4.678  -6.584  26.171  0.00  0.00    +0.018 A 
ATOM      4  C   UNL     1       5.845  -5.823  26.388  0.00  0.00    +0.057 A 
ATOM      5  C   UNL     1       6.540  -5.309  25.286  0.00  0.00    +0.152 A 
ATOM      6  C   UNL     1       6.072  -5.610  23.990  0.00  0.00    +0.057 A 
ATOM      7  C   UNL     1       4.929  -6.388  23.789  0.00  0.00    +0.018 A 
ENDROOT
BRANCH   4   8
ATOM      8  C   UNL     1       6.273  -5.705  27.800  0.00  0.00    +0.262 C 
ATOM      9  O   UNL     1       7.254  -6.312  28.225  0.00  0.00    -0.296 OA
ENDBRANCH   4   8
BRANCH   6  10
ATOM     10  C   UNL     1       6.778  -5.096  22.789  0.00  0.00    +0.262 C 
ATOM     11  O   UNL     1       7.585  -5.775  22.167  0.00  0.00    -0.296 OA
ENDBRANCH   6  10
BRANCH   5  12
ATOM     12  O   UNL     1       7.659  -4.540  25.267  0.00  0.00    -0.403 OA
BRANCH  12  13
ATOM     13  P   UNL     1       9.191  -4.857  25.501  0.00  0.00    +0.528 P 
ATOM     14  O   UNL     1      10.190  -4.309  24.550  0.00  0.00    -0.216 OA
BRANCH  13  15
ATOM     15  O   UNL     1       9.180  -6.456  25.535  0.00  0.00    -0.293 OA
ATOM     16  H   UNL     1       8.537  -6.818  24.895  0.00  0.00    +0.223 HD
ENDBRANCH  13  15
BRANCH  13  17
ATOM     17  O   UNL     1       9.392  -4.539  27.051  0.00  0.00    -0.293 OA
ATOM     18  H   UNL     1       9.521  -3.583  27.194  0.00  0.00    +0.223 HD
ENDBRANCH  13  17
ENDBRANCH  12  13
ENDBRANCH   5  12
TORSDOF 6
ENDMDL
MODEL 3
REMARK VINA RESULT:      -5.2      1.438      3.664
REMARK  Name = 
REMARK  7 active torsions:
REMARK  status: ('A' for Active; 'I' for Inactive)
REMARK    1  A    between atoms: C_1  and  C_2
REMARK    2  A    between atoms: C_4  and  C_5
REMARK    3  A    between atoms: C_7  and  O_8
REMARK    4  A    between atoms: O_8  and  P_9
REMARK    5  A    between atoms: P_9  and  O_10
REMARK    6  A    between atoms: P_9  and  O_11
REMARK    7  A    between atoms: C_13  and  C_14
REMARK                            x       y       z     vdW  Elec       q    Type
REMARK                         _______ _______ _______ _____ _____    ______ ____
ROOT
ATOM      1  C   UNL     1       3.381  -7.259  25.228  0.00  0.00    +0.044 C 
ATOM      2  C   UNL     1       4.632  -6.519  24.863  0.00  0.00    -0.049 A 
ATOM      3  C   UNL     1       5.545  -6.139  25.855  0.00  0.00    +0.018 A 
ATOM      4  C   UNL     1       6.736  -5.453  25.541  0.00  0.00    +0.057 A 
ATOM      5  C   UNL     1       6.999  -5.113  24.208  0.00  0.00    +0.152 A 
ATOM      6  C   UNL     1       6.079  -5.509  23.215  0.00  0.00    +0.057 A 
ATOM      7  C   UNL     1       4.915  -6.212  23.536  0.00  0.00    +0.018 A 
ENDROOT
BRANCH   4   8
ATOM      8  C   UNL     1       7.655  -5.223  26.679  0.00  0.00    +0.262 C 
ATOM      9  O   UNL     1       7.479  -5.773  27.765  0.00  0.00    -0.296 OA
ENDBRANCH   4   8
BRANCH   6  10
ATOM     10  C   UNL     1       6.316  -5.180  21.787  0.00  0.00    +0.262 C 
ATOM     11  O   UNL     1       5.855  -4.173  21.263  0.00  0.00    -0.296 OA
ENDBRANCH   6  10
BRANCH   5  12
ATOM     12  O   UNL     1       8.060  -4.441  23.693  0.00  0.00    -0.403 OA
BRANCH  12  13
ATOM     13  P   UNL     1       8.516  -2.928  23.760  0.00  0.00    +0.528 P 
ATOM     14  O   UNL     1       7.821  -2.010  24.698  0.00  0.00    -0.216 OA
BRANCH  13  15
ATOM     15  O   UNL     1       8.361  -2.485  22.231  0.00  0.00    -0.293 OA
ATOM     16  H   UNL     1       9.137  -2.758  21.705  0.00  0.00    +0.223 HD
ENDBRANCH  13  15
BRANCH  13  17
ATOM     17  O   UNL     1      10.103  -3.034  23.868  0.00  0.00    -0.293 OA
ATOM     18  H   UNL     1      10.509  -2.147  23.884  0.00  0.00    +0.223 HD
ENDBRANCH  13  17
ENDBRANCH  12  13
ENDBRANCH   5  12
TORSDOF 6
ENDMDL
MODEL 4
REMARK VINA RESULT:      -5.2      3.024      4.667
REMARK  Name = 
REMARK  7 active torsions:
REMARK  status: ('A' for Active; 'I' for Inactive)
REMARK    1  A    between atoms: C_1  and  C_2
REMARK    2  A    between atoms: C_4  and  C_5
REMARK    3  A    between atoms: C_7  and  O_8
REMARK    4  A    between atoms: O_8  and  P_9
REMARK    5  A    between atoms: P_9  and  O_10
REMARK    6  A    between atoms: P_9  and  O_11
REMARK    7  A    between atoms: C_13  and  C_14
REMARK                            x       y       z     vdW  Elec       q    Type
REMARK                         _______ _______ _______ _____ _____    ______ ____
ROOT
ATOM      1  C   UNL     1      10.125  -0.975  22.603  0.00  0.00    +0.044 C 
ATOM      2  C   UNL     1       9.290  -2.142  23.034  0.00  0.00    -0.049 A 
ATOM      3  C   UNL     1       8.116  -2.466  22.342  0.00  0.00    +0.018 A 
ATOM      4  C   UNL     1       7.316  -3.566  22.715  0.00  0.00    +0.057 A 
ATOM      5  C   UNL     1       7.685  -4.334  23.827  0.00  0.00    +0.152 A 
ATOM      6  C   UNL     1       8.873  -4.005  24.512  0.00  0.00    +0.057 A 
ATOM      7  C   UNL     1       9.672  -2.930  24.114  0.00  0.00    +0.018 A 
ENDROOT
BRANCH   4   8
ATOM      8  C   UNL     1       6.174  -3.852  21.818  0.00  0.00    +0.262 C 
ATOM      9  O   UNL     1       5.014  -3.814  22.225  0.00  0.00    -0.296 OA
ENDBRANCH   4   8
BRANCH   6  10
ATOM     10  C   UNL     1       9.312  -4.793  25.691  0.00  0.00    +0.262 C 
ATOM     11  O   UNL     1       9.044  -4.456  26.837  0.00  0.00    -0.296 OA
ENDBRANCH   6  10
BRANCH   5  12
ATOM     12  O   UNL     1       7.054  -5.407  24.368  0.00  0.00    -0.403 OA
BRANCH  12  13
ATOM     13  P   UNL     1       5.767  -5.559  25.275  0.00  0.00    +0.528 P 
ATOM     14  O   UNL     1       5.854  -6.377  26.512  0.00  0.00    -0.216 OA
BRANCH  13  15
ATOM     15  O   UNL     1       4.708  -6.135  24.224  0.00  0.00    -0.293 OA
ATOM     16  H   UNL     1       4.974  -5.929  23.307  0.00  0.00    +0.223 HD
ENDBRANCH  13  15
BRANCH  13  17
ATOM     17  O   UNL     1       5.246  -4.059  25.416  0.00  0.00    -0.293 OA
ATOM     18  H   UNL     1       5.812  -3.446  24.911  0.00  0.00    +0.223 HD
ENDBRANCH  13  17
ENDBRANCH  12  13
ENDBRANCH   5  12
TORSDOF 6
ENDMDL
MODEL 5
REMARK VINA RESULT:      -5.1      1.410      1.843
REMARK  Name = 
REMARK  7 active torsions:
REMARK  status: ('A' for Active; 'I' for Inactive)
REMARK    1  A    between atoms: C_1  and  C_2
REMARK    2  A    between atoms: C_4  and  C_5
REMARK    3  A    between atoms: C_7  and  O_8
REMARK    4  A    between atoms: O_8  and  P_9
REMARK    5  A    between atoms: P_9  and  O_10
REMARK    6  A    between atoms: P_9  and  O_11
REMARK    7  A    between atoms: C_13  and  C_14
REMARK                            x       y       z     vdW  Elec       q    Type
REMARK                         _______ _______ _______ _____ _____    ______ ____
ROOT
ATOM      1  C   UNL     1       3.374  -7.337  25.131  0.00  0.00    +0.044 C 
ATOM      2  C   UNL     1       4.628  -6.588  24.798  0.00  0.00    -0.049 A 
ATOM      3  C   UNL     1       4.920  -6.250  23.470  0.00  0.00    +0.018 A 
ATOM      4  C   UNL     1       6.085  -5.534  23.126  0.00  0.00    +0.057 A 
ATOM      5  C   UNL     1       6.992  -5.181  24.134  0.00  0.00    +0.152 A 
ATOM      6  C   UNL     1       6.685  -5.516  25.469  0.00  0.00    +0.057 A 
ATOM      7  C   UNL     1       5.513  -6.201  25.799  0.00  0.00    +0.018 A 
ENDROOT
BRANCH   4   8
ATOM      8  C   UNL     1       6.197  -5.150  21.701  0.00  0.00    +0.262 C 
ATOM      9  O   UNL     1       5.726  -4.094  21.283  0.00  0.00    -0.296 OA
ENDBRANCH   4   8
BRANCH   6  10
ATOM     10  C   UNL     1       7.609  -5.156  26.573  0.00  0.00    +0.262 C 
ATOM     11  O   UNL     1       7.587  -5.728  27.656  0.00  0.00    -0.296 OA
ENDBRANCH   6  10
BRANCH   5  12
ATOM     12  O   UNL     1       8.172  -4.520  24.024  0.00  0.00    -0.403 OA
BRANCH  12  13
ATOM     13  P   UNL     1       8.545  -2.987  23.904  0.00  0.00    +0.528 P 
ATOM     14  O   UNL     1       7.881  -2.015  24.810  0.00  0.00    -0.216 OA
BRANCH  13  15
ATOM     15  O   UNL     1       8.235  -2.707  22.360  0.00  0.00    -0.293 OA
ATOM     16  H   UNL     1       8.614  -1.853  22.075  0.00  0.00    +0.223 HD
ENDBRANCH  13  15
BRANCH  13  17
ATOM     17  O   UNL     1      10.139  -3.005  23.879  0.00  0.00    -0.293 OA
ATOM     18  H   UNL     1      10.503  -2.358  24.512  0.00  0.00    +0.223 HD
ENDBRANCH  13  17
ENDBRANCH  12  13
ENDBRANCH   5  12
TORSDOF 6
ENDMDL
MODEL 6
REMARK VINA RESULT:      -5.0      3.033      5.436
REMARK  Name = 
REMARK  7 active torsions:
REMARK  status: ('A' for Active; 'I' for Inactive)
REMARK    1  A    between atoms: C_1  and  C_2
REMARK    2  A    between atoms: C_4  and  C_5
REMARK    3  A    between atoms: C_7  and  O_8
REMARK    4  A    between atoms: O_8  and  P_9
REMARK    5  A    between atoms: P_9  and  O_10
REMARK    6  A    between atoms: P_9  and  O_11
REMARK    7  A    between atoms: C_13  and  C_14
REMARK                            x       y       z     vdW  Elec       q    Type
REMARK                         _______ _______ _______ _____ _____    ______ ____
ROOT
ATOM      1  C   UNL     1      10.075  -1.025  22.833  0.00  0.00    +0.044 C 
ATOM      2  C   UNL     1       9.238  -2.227  23.146  0.00  0.00    -0.049 A 
ATOM      3  C   UNL     1       9.530  -3.024  24.260  0.00  0.00    +0.018 A 
ATOM      4  C   UNL     1       8.753  -4.154  24.588  0.00  0.00    +0.057 A 
ATOM      5  C   UNL     1       7.680  -4.510  23.759  0.00  0.00    +0.152 A 
ATOM      6  C   UNL     1       7.387  -3.696  22.646  0.00  0.00    +0.057 A 
ATOM      7  C   UNL     1       8.148  -2.563  22.348  0.00  0.00    +0.018 A 
ENDROOT
BRANCH   4   8
ATOM      8  C   UNL     1       9.113  -4.826  25.856  0.00  0.00    +0.262 C 
ATOM      9  O   UNL     1       8.566  -4.529  26.917  0.00  0.00    -0.296 OA
ENDBRANCH   4   8
BRANCH   6  10
ATOM     10  C   UNL     1       6.255  -4.025  21.743  0.00  0.00    +0.262 C 
ATOM     11  O   UNL     1       5.129  -3.578  21.918  0.00  0.00    -0.296 OA
ENDBRANCH   6  10
BRANCH   5  12
ATOM     12  O   UNL     1       6.827  -5.559  23.874  0.00  0.00    -0.403 OA
BRANCH  12  13
ATOM     13  P   UNL     1       5.603  -5.856  24.830  0.00  0.00    +0.528 P 
ATOM     14  O   UNL     1       5.868  -6.382  26.193  0.00  0.00    -0.216 OA
BRANCH  13  15
ATOM     15  O   UNL     1       4.740  -6.862  23.935  0.00  0.00    -0.293 OA
ATOM     16  H   UNL     1       4.575  -6.489  23.047  0.00  0.00    +0.223 HD
ENDBRANCH  13  15
BRANCH  13  17
ATOM     17  O   UNL     1       4.720  -4.533  24.707  0.00  0.00    -0.293 OA
ATOM     18  H   UNL     1       3.895  -4.618  25.221  0.00  0.00    +0.223 HD
ENDBRANCH  13  17
ENDBRANCH  12  13
ENDBRANCH   5  12
TORSDOF 6
ENDMDL
MODEL 7
REMARK VINA RESULT:      -4.9      3.251      4.497
REMARK  Name = 
REMARK  7 active torsions:
REMARK  status: ('A' for Active; 'I' for Inactive)
REMARK    1  A    between atoms: C_1  and  C_2
REMARK    2  A    between atoms: C_4  and  C_5
REMARK    3  A    between atoms: C_7  and  O_8
REMARK    4  A    between atoms: O_8  and  P_9
REMARK    5  A    between atoms: P_9  and  O_10
REMARK    6  A    between atoms: P_9  and  O_11
REMARK    7  A    between atoms: C_13  and  C_14
REMARK                            x       y       z     vdW  Elec       q    Type
REMARK                         _______ _______ _______ _____ _____    ______ ____
ROOT
ATOM      1  C   UNL     1       9.921  -4.947  25.454  0.00  0.00    +0.044 C 
ATOM      2  C   UNL     1       8.441  -5.034  25.240  0.00  0.00    -0.049 A 
ATOM      3  C   UNL     1       7.884  -4.691  24.002  0.00  0.00    +0.018 A 
ATOM      4  C   UNL     1       6.496  -4.774  23.765  0.00  0.00    +0.057 A 
ATOM      5  C   UNL     1       5.648  -5.179  24.804  0.00  0.00    +0.152 A 
ATOM      6  C   UNL     1       6.219  -5.532  26.044  0.00  0.00    +0.057 A 
ATOM      7  C   UNL     1       7.599  -5.471  26.257  0.00  0.00    +0.018 A 
ENDROOT
BRANCH   4   8
ATOM      8  C   UNL     1       6.071  -4.492  22.375  0.00  0.00    +0.262 C 
ATOM      9  O   UNL     1       5.487  -5.336  21.699  0.00  0.00    -0.296 OA
ENDBRANCH   4   8
BRANCH   6  10
ATOM     10  C   UNL     1       5.364  -5.975  27.174  0.00  0.00    +0.262 C 
ATOM     11  O   UNL     1       5.317  -7.144  27.537  0.00  0.00    -0.296 OA
ENDBRANCH   6  10
BRANCH   5  12
ATOM     12  O   UNL     1       4.297  -5.304  24.801  0.00  0.00    -0.403 OA
BRANCH  12  13
ATOM     13  P   UNL     1       3.317  -6.417  24.250  0.00  0.00    +0.528 P 
ATOM     14  O   UNL     1       2.291  -6.985  25.161  0.00  0.00    -0.216 OA
BRANCH  13  15
ATOM     15  O   UNL     1       4.353  -7.515  23.721  0.00  0.00    -0.293 OA
ATOM     16  H   UNL     1       3.943  -8.401  23.697  0.00  0.00    +0.223 HD
ENDBRANCH  13  15
BRANCH  13  17
ATOM     17  O   UNL     1       2.817  -5.804  22.865  0.00  0.00    -0.293 OA
ATOM     18  H   UNL     1       3.457  -5.151  22.524  0.00  0.00    +0.223 HD
ENDBRANCH  13  17
ENDBRANCH  12  13
ENDBRANCH   5  12
TORSDOF 6
ENDMDL
MODEL 8
REMARK VINA RESULT:      -4.8      2.995      4.553
REMARK  Name = 
REMARK  7 active torsions:
REMARK  status: ('A' for Active; 'I' for Inactive)
REMARK    1  A    between atoms: C_1  and  C_2
REMARK    2  A    between atoms: C_4  and  C_5
REMARK    3  A    between atoms: C_7  and  O_8
REMARK    4  A    between atoms: O_8  and  P_9
REMARK    5  A    between atoms: P_9  and  O_10
REMARK    6  A    between atoms: P_9  and  O_11
REMARK    7  A    between atoms: C_13  and  C_14
REMARK                            x       y       z     vdW  Elec       q    Type
REMARK                         _______ _______ _______ _____ _____    ______ ____
ROOT
ATOM      1  C   UNL     1       9.033  -0.869  25.549  0.00  0.00    +0.044 C 
ATOM      2  C   UNL     1       8.337  -2.108  25.073  0.00  0.00    -0.049 A 
ATOM      3  C   UNL     1       7.698  -2.127  23.827  0.00  0.00    +0.018 A 
ATOM      4  C   UNL     1       7.046  -3.281  23.345  0.00  0.00    +0.057 A 
ATOM      5  C   UNL     1       7.007  -4.429  24.147  0.00  0.00    +0.152 A 
ATOM      6  C   UNL     1       7.662  -4.404  25.397  0.00  0.00    +0.057 A 
ATOM      7  C   UNL     1       8.328  -3.262  25.850  0.00  0.00    +0.018 A 
ENDROOT
BRANCH   4   8
ATOM      8  C   UNL     1       6.520  -3.183  21.965  0.00  0.00    +0.262 C 
ATOM      9  O   UNL     1       5.313  -3.216  21.735  0.00  0.00    -0.296 OA
ENDBRANCH   4   8
BRANCH   6  10
ATOM     10  C   UNL     1       7.656  -5.597  26.280  0.00  0.00    +0.262 C 
ATOM     11  O   UNL     1       7.619  -5.505  27.500  0.00  0.00    -0.296 OA
ENDBRANCH   6  10
BRANCH   5  12
ATOM     12  O   UNL     1       6.421  -5.626  23.893  0.00  0.00    -0.403 OA
BRANCH  12  13
ATOM     13  P   UNL     1       4.912  -6.086  23.773  0.00  0.00    +0.528 P 
ATOM     14  O   UNL     1       4.498  -7.360  24.414  0.00  0.00    -0.216 OA
BRANCH  13  15
ATOM     15  O   UNL     1       4.711  -6.097  22.187  0.00  0.00    -0.293 OA
ATOM     16  H   UNL     1       3.783  -6.286  21.951  0.00  0.00    +0.223 HD
ENDBRANCH  13  15
BRANCH  13  17
ATOM     17  O   UNL     1       4.101  -4.768  24.157  0.00  0.00    -0.293 OA
ATOM     18  H   UNL     1       4.707  -4.060  24.447  0.00  0.00    +0.223 HD
ENDBRANCH  13  17
ENDBRANCH  12  13
ENDBRANCH   5  12
TORSDOF 6
ENDMDL
MODEL 9
REMARK VINA RESULT:      -4.8      2.213      3.706
REMARK  Name = 
REMARK  7 active torsions:
REMARK  status: ('A' for Active; 'I' for Inactive)
REMARK    1  A    between atoms: C_1  and  C_2
REMARK    2  A    between atoms: C_4  and  C_5
REMARK    3  A    between atoms: C_7  and  O_8
REMARK    4  A    between atoms: O_8  and  P_9
REMARK    5  A    between atoms: P_9  and  O_10
REMARK    6  A    between atoms: P_9  and  O_11
REMARK    7  A    between atoms: C_13  and  C_14
REMARK                            x       y       z     vdW  Elec       q    Type
REMARK                         _______ _______ _______ _____ _____    ______ ____
ROOT
ATOM      1  C   UNL     1       5.914  -6.284  28.374  0.00  0.00    +0.044 C 
ATOM      2  C   UNL     1       6.162  -5.846  26.963  0.00  0.00    -0.049 A 
ATOM      3  C   UNL     1       5.191  -6.053  25.976  0.00  0.00    +0.018 A 
ATOM      4  C   UNL     1       5.389  -5.642  24.642  0.00  0.00    +0.057 A 
ATOM      5  C   UNL     1       6.604  -5.040  24.286  0.00  0.00    +0.152 A 
ATOM      6  C   UNL     1       7.573  -4.826  25.289  0.00  0.00    +0.057 A 
ATOM      7  C   UNL     1       7.351  -5.214  26.613  0.00  0.00    +0.018 A 
ENDROOT
BRANCH   4   8
ATOM      8  C   UNL     1       4.228  -5.822  23.742  0.00  0.00    +0.262 C 
ATOM      9  O   UNL     1       3.774  -4.887  23.087  0.00  0.00    -0.296 OA
ENDBRANCH   4   8
BRANCH   6  10
ATOM     10  C   UNL     1       8.872  -4.185  24.964  0.00  0.00    +0.262 C 
ATOM     11  O   UNL     1       9.899  -4.834  24.809  0.00  0.00    -0.296 OA
ENDBRANCH   6  10
BRANCH   5  12
ATOM     12  O   UNL     1       7.010  -4.595  23.070  0.00  0.00    -0.403 OA
BRANCH  12  13
ATOM     13  P   UNL     1       6.773  -3.245  22.280  0.00  0.00    +0.528 P 
ATOM     14  O   UNL     1       7.944  -2.399  21.938  0.00  0.00    -0.216 OA
BRANCH  13  15
ATOM     15  O   UNL     1       5.727  -2.501  23.234  0.00  0.00    -0.293 OA
ATOM     16  H   UNL     1       4.985  -3.090  23.470  0.00  0.00    +0.223 HD
ENDBRANCH  13  15
BRANCH  13  17
ATOM     17  O   UNL     1       5.809  -3.689  21.089  0.00  0.00    -0.293 OA
ATOM     18  H   UNL     1       6.029  -4.589  20.783  0.00  0.00    +0.223 HD
ENDBRANCH  13  17
ENDBRANCH  12  13
ENDBRANCH   5  12
TORSDOF 6
ENDMDL
