MODEL 1
REMARK VINA RESULT:      -7.4      0.000      0.000
REMARK  Name = 
REMARK  11 active torsions:
REMARK  status: ('A' for Active; 'I' for Inactive)
REMARK    1  A    between atoms: C_2  and  C_3
REMARK    2  A    between atoms: C_2  and  C_6
REMARK    3  A    between atoms: C_2  and  C_25
REMARK    4  A    between atoms: C_3  and  O_4
REMARK    5  A    between atoms: N_8  and  C_9
REMARK    6  A    between atoms: C_9  and  O_10
REMARK    7  A    between atoms: O_10  and  C_11
REMARK    8  A    between atoms: C_15  and  C_16
REMARK    9  A    between atoms: C_16  and  O_17
REMARK   10  A    between atoms: C_19  and  C_20
REMARK   11  A    between atoms: C_28  and  O_29
REMARK                            x       y       z     vdW  Elec       q    Type
REMARK                         _______ _______ _______ _____ _____    ______ ____
ROOT
ATOM      1  C   UNL     1       9.280   0.590  24.370  0.00  0.00    +0.234 C 
ATOM      2  N   UNL     1       8.234  -0.133  23.848  0.00  0.00    -0.276 N 
ATOM      3  H   UNL     1       8.062  -0.135  22.850  0.00  0.00    +0.152 HD
ATOM      4  O   UNL     1       9.553   0.567  25.571  0.00  0.00    -0.274 OA
ENDROOT
BRANCH   2   5
ATOM      5  C   UNL     1       7.324  -0.913  24.738  0.00  0.00    +0.258 C 
ATOM      6  C   UNL     1       6.596  -2.098  23.983  0.00  0.00    +0.273 C 
ATOM      7  N   UNL     1       7.445  -3.024  24.696  0.00  0.00    -0.230 N 
ATOM      8  C   UNL     1       7.619  -4.306  24.252  0.00  0.00    +0.124 C 
ATOM      9  C   UNL     1       7.092  -4.626  23.036  0.00  0.00    -0.019 C 
ATOM     10  C   UNL     1       6.410  -3.580  22.154  0.00  0.00    +0.195 C 
ATOM     11  C   UNL     1       7.115  -5.969  22.344  0.00  0.00    +0.043 C 
ATOM     12  O   UNL     1       6.715  -2.244  22.562  0.00  0.00    -0.349 OA
ATOM     13  C   UNL     1       8.059  -2.135  25.504  0.00  0.00    +0.277 C 
ATOM     14  O   UNL     1       8.923  -2.346  26.324  0.00  0.00    -0.270 OA
BRANCH   8  15
ATOM     15  C   UNL     1       8.347  -5.330  25.090  0.00  0.00    +0.351 C 
ATOM     16  O   UNL     1       7.852  -5.870  26.069  0.00  0.00    -0.244 OA
BRANCH  15  17
ATOM     17  O   UNL     1       9.606  -5.628  24.721  0.00  0.00    -0.476 OA
ATOM     18  H   UNL     1      10.337  -5.388  25.334  0.00  0.00    +0.295 HD
ENDBRANCH  15  17
ENDBRANCH   8  15
BRANCH   5  19
ATOM     19  O   UNL     1       6.480  -0.034  25.536  0.00  0.00    -0.348 OA
ATOM     20  C   UNL     1       5.620   0.888  24.892  0.00  0.00    +0.197 C 
ENDBRANCH   5  19
ENDBRANCH   2   5
BRANCH   1  21
ATOM     21  C   UNL     1      10.124   1.423  23.419  0.00  0.00    +0.213 C 
BRANCH  21  22
ATOM     22  C   UNL     1      10.099   2.925  23.682  0.00  0.00    -0.025 A 
ATOM     23  C   UNL     1       8.934   3.508  24.213  0.00  0.00    +0.008 A 
ATOM     24  C   UNL     1       8.888   4.874  24.497  0.00  0.00    +0.046 A 
ATOM     25  C   UNL     1      10.002   5.667  24.252  0.00  0.00    +0.117 A 
ATOM     26  C   UNL     1      11.154   5.121  23.700  0.00  0.00    +0.046 A 
ATOM     27  C   UNL     1      11.201   3.755  23.410  0.00  0.00    +0.008 A 
BRANCH  25  28
ATOM     28  O   UNL     1       9.924   6.988  24.576  0.00  0.00    -0.507 OA
ATOM     29  H   UNL     1       9.390   7.445  23.905  0.00  0.00    +0.292 HD
ENDBRANCH  25  28
ENDBRANCH  21  22
BRANCH  21  30
ATOM     30  C   UNL     1       9.836   1.058  21.979  0.00  0.00    +0.321 C 
ATOM     31  O   UNL     1       9.984  -0.061  21.511  0.00  0.00    -0.250 OA
BRANCH  30  32
ATOM     32  O   UNL     1       9.286   2.064  21.254  0.00  0.00    -0.480 OA
ATOM     33  H   UNL     1       8.872   1.785  20.413  0.00  0.00    +0.295 HD
ENDBRANCH  30  32
ENDBRANCH  21  30
ENDBRANCH   1  21
TORSDOF 9
ENDMDL
MODEL 2
REMARK VINA RESULT:      -7.2      2.664      8.224
REMARK  Name = 
REMARK  11 active torsions:
REMARK  status: ('A' for Active; 'I' for Inactive)
REMARK    1  A    between atoms: C_2  and  C_3
REMARK    2  A    between atoms: C_2  and  C_6
REMARK    3  A    between atoms: C_2  and  C_25
REMARK    4  A    between atoms: C_3  and  O_4
REMARK    5  A    between atoms: N_8  and  C_9
REMARK    6  A    between atoms: C_9  and  O_10
REMARK    7  A    between atoms: O_10  and  C_11
REMARK    8  A    between atoms: C_15  and  C_16
REMARK    9  A    between atoms: C_16  and  O_17
REMARK   10  A    between atoms: C_19  and  C_20
REMARK   11  A    between atoms: C_28  and  O_29
REMARK                            x       y       z     vdW  Elec       q    Type
REMARK                         _______ _______ _______ _____ _____    ______ ____
ROOT
ATOM      1  C   UNL     1       7.344  -4.723  23.514  0.00  0.00    +0.234 C 
ATOM      2  N   UNL     1       7.487  -3.540  24.197  0.00  0.00    -0.276 N 
ATOM      3  H   UNL     1       6.679  -2.959  24.390  0.00  0.00    +0.152 HD
ATOM      4  O   UNL     1       8.296  -5.479  23.315  0.00  0.00    -0.274 OA
ENDROOT
BRANCH   2   5
ATOM      5  C   UNL     1       8.832  -3.076  24.652  0.00  0.00    +0.258 C 
ATOM      6  C   UNL     1       9.592  -2.226  23.555  0.00  0.00    +0.273 C 
ATOM      7  N   UNL     1       9.349  -1.046  24.353  0.00  0.00    -0.230 N 
ATOM      8  C   UNL     1       9.434   0.204  23.807  0.00  0.00    +0.124 C 
ATOM      9  C   UNL     1       9.600   0.290  22.456  0.00  0.00    -0.019 C 
ATOM     10  C   UNL     1       9.601  -0.953  21.566  0.00  0.00    +0.195 C 
ATOM     11  C   UNL     1       9.756   1.540  21.622  0.00  0.00    +0.043 C 
ATOM     12  O   UNL     1       9.059  -2.097  22.229  0.00  0.00    -0.349 OA
ATOM     13  C   UNL     1       8.798  -1.653  25.425  0.00  0.00    +0.277 C 
ATOM     14  O   UNL     1       8.360  -1.140  26.429  0.00  0.00    -0.270 OA
BRANCH   8  15
ATOM     15  C   UNL     1       9.371   1.440  24.673  0.00  0.00    +0.351 C 
ATOM     16  O   UNL     1      10.177   2.355  24.596  0.00  0.00    -0.244 OA
BRANCH  15  17
ATOM     17  O   UNL     1       8.373   1.496  25.574  0.00  0.00    -0.476 OA
ATOM     18  H   UNL     1       7.621   2.105  25.395  0.00  0.00    +0.295 HD
ENDBRANCH  15  17
ENDBRANCH   8  15
BRANCH   5  19
ATOM     19  O   UNL     1       9.584  -4.157  25.273  0.00  0.00    -0.348 OA
ATOM     20  C   UNL     1       9.248  -4.584  26.581  0.00  0.00    +0.197 C 
ENDBRANCH   5  19
ENDBRANCH   2   5
BRANCH   1  21
ATOM     21  C   UNL     1       5.960  -5.102  23.012  0.00  0.00    +0.213 C 
BRANCH  21  22
ATOM     22  C   UNL     1       5.068  -5.789  24.040  0.00  0.00    -0.025 A 
ATOM     23  C   UNL     1       5.566  -6.017  25.336  0.00  0.00    +0.008 A 
ATOM     24  C   UNL     1       4.764  -6.613  26.311  0.00  0.00    +0.046 A 
ATOM     25  C   UNL     1       3.464  -6.989  25.999  0.00  0.00    +0.117 A 
ATOM     26  C   UNL     1       2.959  -6.803  24.719  0.00  0.00    +0.046 A 
ATOM     27  C   UNL     1       3.760  -6.210  23.739  0.00  0.00    +0.008 A 
BRANCH  25  28
ATOM     28  O   UNL     1       2.707  -7.537  26.991  0.00  0.00    -0.507 OA
ATOM     29  H   UNL     1       3.072  -8.407  27.219  0.00  0.00    +0.292 HD
ENDBRANCH  25  28
ENDBRANCH  21  22
BRANCH  21  30
ATOM     30  C   UNL     1       6.048  -5.844  21.696  0.00  0.00    +0.321 C 
ATOM     31  O   UNL     1       5.843  -5.334  20.604  0.00  0.00    -0.250 OA
BRANCH  30  32
ATOM     32  O   UNL     1       6.484  -7.123  21.812  0.00  0.00    -0.480 OA
ATOM     33  H   UNL     1       7.291  -7.234  22.352  0.00  0.00    +0.295 HD
ENDBRANCH  30  32
ENDBRANCH  21  30
ENDBRANCH   1  21
TORSDOF 9
ENDMDL
MODEL 3
REMARK VINA RESULT:      -7.2      2.733      4.861
REMARK  Name = 
REMARK  11 active torsions:
REMARK  status: ('A' for Active; 'I' for Inactive)
REMARK    1  A    between atoms: C_2  and  C_3
REMARK    2  A    between atoms: C_2  and  C_6
REMARK    3  A    between atoms: C_2  and  C_25
REMARK    4  A    between atoms: C_3  and  O_4
REMARK    5  A    between atoms: N_8  and  C_9
REMARK    6  A    between atoms: C_9  and  O_10
REMARK    7  A    between atoms: O_10  and  C_11
REMARK    8  A    between atoms: C_15  and  C_16
REMARK    9  A    between atoms: C_16  and  O_17
REMARK   10  A    between atoms: C_19  and  C_20
REMARK   11  A    between atoms: C_28  and  O_29
REMARK                            x       y       z     vdW  Elec       q    Type
REMARK                         _______ _______ _______ _____ _____    ______ ____
ROOT
ATOM      1  C   UNL     1       6.860  -1.961  23.266  0.00  0.00    +0.234 C 
ATOM      2  N   UNL     1       5.790  -2.823  23.285  0.00  0.00    -0.276 N 
ATOM      3  H   UNL     1       4.857  -2.476  23.477  0.00  0.00    +0.152 HD
ATOM      4  O   UNL     1       7.996  -2.340  22.978  0.00  0.00    -0.274 OA
ENDROOT
BRANCH   2   5
ATOM      5  C   UNL     1       5.980  -4.284  23.043  0.00  0.00    +0.258 C 
ATOM      6  C   UNL     1       6.453  -5.063  24.337  0.00  0.00    +0.273 C 
ATOM      7  N   UNL     1       5.134  -5.648  24.422  0.00  0.00    -0.230 N 
ATOM      8  C   UNL     1       4.683  -6.204  25.587  0.00  0.00    +0.124 C 
ATOM      9  C   UNL     1       5.457  -6.046  26.699  0.00  0.00    -0.019 C 
ATOM     10  C   UNL     1       6.734  -5.206  26.677  0.00  0.00    +0.195 C 
ATOM     11  C   UNL     1       5.203  -6.589  28.085  0.00  0.00    +0.043 C 
ATOM     12  O   UNL     1       6.804  -4.353  25.533  0.00  0.00    -0.349 OA
ATOM     13  C   UNL     1       4.634  -5.156  23.269  0.00  0.00    +0.277 C 
ATOM     14  O   UNL     1       3.521  -5.299  22.818  0.00  0.00    -0.270 OA
BRANCH   8  15
ATOM     15  C   UNL     1       3.390  -6.982  25.631  0.00  0.00    +0.351 C 
ATOM     16  O   UNL     1       2.332  -6.505  26.016  0.00  0.00    -0.244 OA
BRANCH  15  17
ATOM     17  O   UNL     1       3.443  -8.267  25.235  0.00  0.00    -0.476 OA
ATOM     18  H   UNL     1       4.215  -8.555  24.699  0.00  0.00    +0.295 HD
ENDBRANCH  15  17
ENDBRANCH   8  15
BRANCH   5  19
ATOM     19  O   UNL     1       6.738  -4.527  21.825  0.00  0.00    -0.348 OA
ATOM     20  C   UNL     1       6.545  -5.732  21.107  0.00  0.00    +0.197 C 
ENDBRANCH   5  19
ENDBRANCH   2   5
BRANCH   1  21
ATOM     21  C   UNL     1       6.611  -0.497  23.594  0.00  0.00    +0.213 C 
BRANCH  21  22
ATOM     22  C   UNL     1       7.805   0.425  23.367  0.00  0.00    -0.025 A 
ATOM     23  C   UNL     1       8.007   0.984  22.093  0.00  0.00    +0.008 A 
ATOM     24  C   UNL     1       9.070   1.858  21.860  0.00  0.00    +0.046 A 
ATOM     25  C   UNL     1       9.939   2.177  22.894  0.00  0.00    +0.117 A 
ATOM     26  C   UNL     1       9.780   1.614  24.155  0.00  0.00    +0.046 A 
ATOM     27  C   UNL     1       8.719   0.736  24.390  0.00  0.00    +0.008 A 
BRANCH  25  28
ATOM     28  O   UNL     1      10.943   3.060  22.630  0.00  0.00    -0.507 OA
ATOM     29  H   UNL     1      10.554   3.893  22.319  0.00  0.00    +0.292 HD
ENDBRANCH  25  28
ENDBRANCH  21  22
BRANCH  21  30
ATOM     30  C   UNL     1       5.985  -0.350  24.963  0.00  0.00    +0.321 C 
ATOM     31  O   UNL     1       5.183   0.523  25.262  0.00  0.00    -0.250 OA
BRANCH  30  32
ATOM     32  O   UNL     1       6.307  -1.345  25.827  0.00  0.00    -0.480 OA
ATOM     33  H   UNL     1       6.018  -1.197  26.749  0.00  0.00    +0.295 HD
ENDBRANCH  30  32
ENDBRANCH  21  30
ENDBRANCH   1  21
TORSDOF 9
ENDMDL
MODEL 4
REMARK VINA RESULT:      -7.1      2.599      8.103
REMARK  Name = 
REMARK  11 active torsions:
REMARK  status: ('A' for Active; 'I' for Inactive)
REMARK    1  A    between atoms: C_2  and  C_3
REMARK    2  A    between atoms: C_2  and  C_6
REMARK    3  A    between atoms: C_2  and  C_25
REMARK    4  A    between atoms: C_3  and  O_4
REMARK    5  A    between atoms: N_8  and  C_9
REMARK    6  A    between atoms: C_9  and  O_10
REMARK    7  A    between atoms: O_10  and  C_11
REMARK    8  A    between atoms: C_15  and  C_16
REMARK    9  A    between atoms: C_16  and  O_17
REMARK   10  A    between atoms: C_19  and  C_20
REMARK   11  A    between atoms: C_28  and  O_29
REMARK                            x       y       z     vdW  Elec       q    Type
REMARK                         _______ _______ _______ _____ _____    ______ ____
ROOT
ATOM      1  C   UNL     1       7.645  -4.625  24.448  0.00  0.00    +0.234 C 
ATOM      2  N   UNL     1       7.077  -3.384  24.294  0.00  0.00    -0.276 N 
ATOM      3  H   UNL     1       6.355  -3.068  24.932  0.00  0.00    +0.152 HD
ATOM      4  O   UNL     1       8.565  -5.014  23.727  0.00  0.00    -0.274 OA
ENDROOT
BRANCH   2   5
ATOM      5  C   UNL     1       7.495  -2.484  23.178  0.00  0.00    +0.258 C 
ATOM      6  C   UNL     1       6.974  -1.000  23.358  0.00  0.00    +0.273 C 
ATOM      7  N   UNL     1       8.329  -0.601  23.664  0.00  0.00    -0.230 N 
ATOM      8  C   UNL     1       8.587   0.576  24.311  0.00  0.00    +0.124 C 
ATOM      9  C   UNL     1       7.521   1.276  24.792  0.00  0.00    -0.019 C 
ATOM     10  C   UNL     1       6.095   0.733  24.699  0.00  0.00    +0.195 C 
ATOM     11  C   UNL     1       7.536   2.608  25.504  0.00  0.00    +0.043 C 
ATOM     12  O   UNL     1       6.064  -0.667  24.416  0.00  0.00    -0.349 OA
ATOM     13  C   UNL     1       8.934  -1.782  23.418  0.00  0.00    +0.277 C 
ATOM     14  O   UNL     1      10.105  -2.058  23.538  0.00  0.00    -0.270 OA
BRANCH   8  15
ATOM     15  C   UNL     1      10.000   1.088  24.463  0.00  0.00    +0.351 C 
ATOM     16  O   UNL     1      10.452   2.016  23.807  0.00  0.00    -0.244 OA
BRANCH  15  17
ATOM     17  O   UNL     1      10.778   0.459  25.362  0.00  0.00    -0.476 OA
ATOM     18  H   UNL     1      11.692   0.214  25.094  0.00  0.00    +0.295 HD
ENDBRANCH  15  17
ENDBRANCH   8  15
BRANCH   5  19
ATOM     19  O   UNL     1       7.260  -3.102  21.881  0.00  0.00    -0.348 OA
ATOM     20  C   UNL     1       5.962  -3.561  21.547  0.00  0.00    +0.197 C 
ENDBRANCH   5  19
ENDBRANCH   2   5
BRANCH   1  21
ATOM     21  C   UNL     1       7.124  -5.523  25.559  0.00  0.00    +0.213 C 
BRANCH  21  22
ATOM     22  C   UNL     1       5.607  -5.668  25.610  0.00  0.00    -0.025 A 
ATOM     23  C   UNL     1       4.966  -6.504  24.679  0.00  0.00    +0.008 A 
ATOM     24  C   UNL     1       3.582  -6.685  24.719  0.00  0.00    +0.046 A 
ATOM     25  C   UNL     1       2.830  -6.031  25.685  0.00  0.00    +0.117 A 
ATOM     26  C   UNL     1       3.434  -5.175  26.598  0.00  0.00    +0.046 A 
ATOM     27  C   UNL     1       4.818  -4.989  26.557  0.00  0.00    +0.008 A 
BRANCH  25  28
ATOM     28  O   UNL     1       1.487  -6.263  25.708  0.00  0.00    -0.507 OA
ATOM     29  H   UNL     1       1.190  -6.479  24.809  0.00  0.00    +0.292 HD
ENDBRANCH  25  28
ENDBRANCH  21  22
BRANCH  21  30
ATOM     30  C   UNL     1       7.741  -5.150  26.889  0.00  0.00    +0.321 C 
ATOM     31  O   UNL     1       8.224  -4.056  27.141  0.00  0.00    -0.250 OA
BRANCH  30  32
ATOM     32  O   UNL     1       7.621  -6.109  27.841  0.00  0.00    -0.480 OA
ATOM     33  H   UNL     1       6.742  -6.533  27.889  0.00  0.00    +0.295 HD
ENDBRANCH  30  32
ENDBRANCH  21  30
ENDBRANCH   1  21
TORSDOF 9
ENDMDL
MODEL 5
REMARK VINA RESULT:      -7.0      1.852      7.791
REMARK  Name = 
REMARK  11 active torsions:
REMARK  status: ('A' for Active; 'I' for Inactive)
REMARK    1  A    between atoms: C_2  and  C_3
REMARK    2  A    between atoms: C_2  and  C_6
REMARK    3  A    between atoms: C_2  and  C_25
REMARK    4  A    between atoms: C_3  and  O_4
REMARK    5  A    between atoms: N_8  and  C_9
REMARK    6  A    between atoms: C_9  and  O_10
REMARK    7  A    between atoms: O_10  and  C_11
REMARK    8  A    between atoms: C_15  and  C_16
REMARK    9  A    between atoms: C_16  and  O_17
REMARK   10  A    between atoms: C_19  and  C_20
REMARK   11  A    between atoms: C_28  and  O_29
REMARK                            x       y       z     vdW  Elec       q    Type
REMARK                         _______ _______ _______ _____ _____    ______ ____
ROOT
ATOM      1  C   UNL     1       8.220  -2.968  25.397  0.00  0.00    +0.234 C 
ATOM      2  N   UNL     1       7.642  -1.859  24.827  0.00  0.00    -0.276 N 
ATOM      3  H   UNL     1       7.334  -1.882  23.862  0.00  0.00    +0.152 HD
ATOM      4  O   UNL     1       8.551  -2.993  26.583  0.00  0.00    -0.274 OA
ENDROOT
BRANCH   2   5
ATOM      5  C   UNL     1       7.472  -0.598  25.607  0.00  0.00    +0.258 C 
ATOM      6  C   UNL     1       8.768   0.311  25.594  0.00  0.00    +0.273 C 
ATOM      7  N   UNL     1       8.074   1.224  24.715  0.00  0.00    -0.230 N 
ATOM      8  C   UNL     1       8.760   2.135  23.962  0.00  0.00    +0.124 C 
ATOM      9  C   UNL     1      10.121   2.045  23.952  0.00  0.00    -0.019 C 
ATOM     10  C   UNL     1      10.857   0.919  24.678  0.00  0.00    +0.195 C 
ATOM     11  C   UNL     1      11.101   2.945  23.236  0.00  0.00    +0.043 C 
ATOM     12  O   UNL     1       9.991  -0.166  25.017  0.00  0.00    -0.349 OA
ATOM     13  C   UNL     1       6.865   0.625  24.736  0.00  0.00    +0.277 C 
ATOM     14  O   UNL     1       5.864   0.945  24.137  0.00  0.00    -0.270 OA
BRANCH   8  15
ATOM     15  C   UNL     1       8.037   3.213  23.190  0.00  0.00    +0.351 C 
ATOM     16  O   UNL     1       7.496   4.172  23.723  0.00  0.00    -0.244 OA
BRANCH  15  17
ATOM     17  O   UNL     1       7.990   3.072  21.853  0.00  0.00    -0.476 OA
ATOM     18  H   UNL     1       7.561   3.784  21.327  0.00  0.00    +0.295 HD
ENDBRANCH  15  17
ENDBRANCH   8  15
BRANCH   5  19
ATOM     19  O   UNL     1       6.871  -0.855  26.908  0.00  0.00    -0.348 OA
ATOM     20  C   UNL     1       5.469  -1.026  27.012  0.00  0.00    +0.197 C 
ENDBRANCH   5  19
ENDBRANCH   2   5
BRANCH   1  21
ATOM     21  C   UNL     1       8.433  -4.197  24.527  0.00  0.00    +0.213 C 
BRANCH  21  22
ATOM     22  C   UNL     1       7.159  -4.807  23.953  0.00  0.00    -0.025 A 
ATOM     23  C   UNL     1       5.994  -4.831  24.741  0.00  0.00    +0.008 A 
ATOM     24  C   UNL     1       4.803  -5.352  24.234  0.00  0.00    +0.046 A 
ATOM     25  C   UNL     1       4.767  -5.856  22.940  0.00  0.00    +0.117 A 
ATOM     26  C   UNL     1       5.910  -5.872  22.152  0.00  0.00    +0.046 A 
ATOM     27  C   UNL     1       7.105  -5.355  22.658  0.00  0.00    +0.008 A 
BRANCH  25  28
ATOM     28  O   UNL     1       3.574  -6.324  22.475  0.00  0.00    -0.507 OA
ATOM     29  H   UNL     1       3.695  -6.644  21.566  0.00  0.00    +0.292 HD
ENDBRANCH  25  28
ENDBRANCH  21  22
BRANCH  21  30
ATOM     30  C   UNL     1       9.324  -5.202  25.223  0.00  0.00    +0.321 C 
ATOM     31  O   UNL     1      10.534  -5.276  25.061  0.00  0.00    -0.250 OA
BRANCH  30  32
ATOM     32  O   UNL     1       8.683  -5.966  26.142  0.00  0.00    -0.480 OA
ATOM     33  H   UNL     1       9.112  -6.001  27.019  0.00  0.00    +0.295 HD
ENDBRANCH  30  32
ENDBRANCH  21  30
ENDBRANCH   1  21
TORSDOF 9
ENDMDL
MODEL 6
REMARK VINA RESULT:      -6.8      2.525      8.098
REMARK  Name = 
REMARK  11 active torsions:
REMARK  status: ('A' for Active; 'I' for Inactive)
REMARK    1  A    between atoms: C_2  and  C_3
REMARK    2  A    between atoms: C_2  and  C_6
REMARK    3  A    between atoms: C_2  and  C_25
REMARK    4  A    between atoms: C_3  and  O_4
REMARK    5  A    between atoms: N_8  and  C_9
REMARK    6  A    between atoms: C_9  and  O_10
REMARK    7  A    between atoms: O_10  and  C_11
REMARK    8  A    between atoms: C_15  and  C_16
REMARK    9  A    between atoms: C_16  and  O_17
REMARK   10  A    between atoms: C_19  and  C_20
REMARK   11  A    between atoms: C_28  and  O_29
REMARK                            x       y       z     vdW  Elec       q    Type
REMARK                         _______ _______ _______ _____ _____    ______ ____
ROOT
ATOM      1  C   UNL     1       5.687  -2.601  24.097  0.00  0.00    +0.234 C 
ATOM      2  N   UNL     1       5.931  -1.385  23.505  0.00  0.00    -0.276 N 
ATOM      3  H   UNL     1       6.058  -1.321  22.502  0.00  0.00    +0.152 HD
ATOM      4  O   UNL     1       5.470  -2.705  25.305  0.00  0.00    -0.274 OA
ENDROOT
BRANCH   2   5
ATOM      5  C   UNL     1       6.034  -0.141  24.325  0.00  0.00    +0.258 C 
ATOM      6  C   UNL     1       7.438   0.010  25.039  0.00  0.00    +0.273 C 
ATOM      7  N   UNL     1       7.757   1.067  24.107  0.00  0.00    -0.230 N 
ATOM      8  C   UNL     1       9.051   1.456  23.899  0.00  0.00    +0.124 C 
ATOM      9  C   UNL     1      10.033   0.709  24.480  0.00  0.00    -0.019 C 
ATOM     10  C   UNL     1       9.717  -0.567  25.260  0.00  0.00    +0.195 C 
ATOM     11  C   UNL     1      11.524   0.947  24.434  0.00  0.00    +0.043 C 
ATOM     12  O   UNL     1       8.399  -1.054  24.995  0.00  0.00    -0.349 OA
ATOM     13  C   UNL     1       6.559   1.143  23.489  0.00  0.00    +0.277 C 
ATOM     14  O   UNL     1       6.239   1.860  22.570  0.00  0.00    -0.270 OA
BRANCH   8  15
ATOM     15  C   UNL     1       9.375   2.680  23.076  0.00  0.00    +0.351 C 
ATOM     16  O   UNL     1       9.675   3.759  23.567  0.00  0.00    -0.244 OA
BRANCH  15  17
ATOM     17  O   UNL     1       9.304   2.546  21.739  0.00  0.00    -0.476 OA
ATOM     18  H   UNL     1       9.914   3.084  21.187  0.00  0.00    +0.295 HD
ENDBRANCH  15  17
ENDBRANCH   8  15
BRANCH   5  19
ATOM     19  O   UNL     1       4.856   0.042  25.161  0.00  0.00    -0.348 OA
ATOM     20  C   UNL     1       4.988   0.637  26.439  0.00  0.00    +0.197 C 
ENDBRANCH   5  19
ENDBRANCH   2   5
BRANCH   1  21
ATOM     21  C   UNL     1       5.670  -3.840  23.216  0.00  0.00    +0.213 C 
BRANCH  21  22
ATOM     22  C   UNL     1       4.939  -5.040  23.808  0.00  0.00    -0.025 A 
ATOM     23  C   UNL     1       3.722  -5.453  23.236  0.00  0.00    +0.008 A 
ATOM     24  C   UNL     1       3.044  -6.567  23.732  0.00  0.00    +0.046 A 
ATOM     25  C   UNL     1       3.574  -7.275  24.803  0.00  0.00    +0.117 A 
ATOM     26  C   UNL     1       4.758  -6.871  25.406  0.00  0.00    +0.046 A 
ATOM     27  C   UNL     1       5.437  -5.753  24.914  0.00  0.00    +0.008 A 
BRANCH  25  28
ATOM     28  O   UNL     1       2.896  -8.376  25.233  0.00  0.00    -0.507 OA
ATOM     29  H   UNL     1       2.148  -8.537  24.636  0.00  0.00    +0.292 HD
ENDBRANCH  25  28
ENDBRANCH  21  22
BRANCH  21  30
ATOM     30  C   UNL     1       7.060  -4.165  22.715  0.00  0.00    +0.321 C 
ATOM     31  O   UNL     1       7.296  -4.929  21.791  0.00  0.00    -0.250 OA
BRANCH  30  32
ATOM     32  O   UNL     1       8.044  -3.449  23.314  0.00  0.00    -0.480 OA
ATOM     33  H   UNL     1       8.931  -3.859  23.276  0.00  0.00    +0.295 HD
ENDBRANCH  30  32
ENDBRANCH  21  30
ENDBRANCH   1  21
TORSDOF 9
ENDMDL
MODEL 7
REMARK VINA RESULT:      -6.7      3.046      8.325
REMARK  Name = 
REMARK  11 active torsions:
REMARK  status: ('A' for Active; 'I' for Inactive)
REMARK    1  A    between atoms: C_2  and  C_3
REMARK    2  A    between atoms: C_2  and  C_6
REMARK    3  A    between atoms: C_2  and  C_25
REMARK    4  A    between atoms: C_3  and  O_4
REMARK    5  A    between atoms: N_8  and  C_9
REMARK    6  A    between atoms: C_9  and  O_10
REMARK    7  A    between atoms: O_10  and  C_11
REMARK    8  A    between atoms: C_15  and  C_16
REMARK    9  A    between atoms: C_16  and  O_17
REMARK   10  A    between atoms: C_19  and  C_20
REMARK   11  A    between atoms: C_28  and  O_29
REMARK                            x       y       z     vdW  Elec       q    Type
REMARK                         _______ _______ _______ _____ _____    ______ ____
ROOT
ATOM      1  C   UNL     1       6.072  -4.285  25.492  0.00  0.00    +0.234 C 
ATOM      2  N   UNL     1       6.789  -3.237  26.015  0.00  0.00    -0.276 N 
ATOM      3  H   UNL     1       6.313  -2.472  26.479  0.00  0.00    +0.152 HD
ATOM      4  O   UNL     1       6.623  -5.258  24.975  0.00  0.00    -0.274 OA
ENDROOT
BRANCH   2   5
ATOM      5  C   UNL     1       8.277  -3.192  25.897  0.00  0.00    +0.258 C 
ATOM      6  C   UNL     1       8.766  -2.836  24.434  0.00  0.00    +0.273 C 
ATOM      7  N   UNL     1       9.158  -1.534  24.923  0.00  0.00    -0.230 N 
ATOM      8  C   UNL     1       9.358  -0.490  24.063  0.00  0.00    +0.124 C 
ATOM      9  C   UNL     1       9.023  -0.680  22.755  0.00  0.00    -0.019 C 
ATOM     10  C   UNL     1       8.365  -1.973  22.274  0.00  0.00    +0.195 C 
ATOM     11  C   UNL     1       9.179   0.294  21.611  0.00  0.00    +0.043 C 
ATOM     12  O   UNL     1       7.830  -2.744  23.352  0.00  0.00    -0.349 OA
ATOM     13  C   UNL     1       8.909  -1.740  26.233  0.00  0.00    +0.277 C 
ATOM     14  O   UNL     1       9.030  -0.957  27.147  0.00  0.00    -0.270 OA
BRANCH   8  15
ATOM     15  C   UNL     1       9.950   0.814  24.543  0.00  0.00    +0.351 C 
ATOM     16  O   UNL     1      11.114   1.135  24.350  0.00  0.00    -0.244 OA
BRANCH  15  17
ATOM     17  O   UNL     1       9.132   1.633  25.229  0.00  0.00    -0.476 OA
ATOM     18  H   UNL     1       8.289   1.908  24.804  0.00  0.00    +0.295 HD
ENDBRANCH  15  17
ENDBRANCH   8  15
BRANCH   5  19
ATOM     19  O   UNL     1       8.894  -4.352  26.524  0.00  0.00    -0.348 OA
ATOM     20  C   UNL     1       9.891  -5.078  25.829  0.00  0.00    +0.197 C 
ENDBRANCH   5  19
ENDBRANCH   2   5
BRANCH   1  21
ATOM     21  C   UNL     1       4.555  -4.234  25.579  0.00  0.00    +0.213 C 
BRANCH  21  22
ATOM     22  C   UNL     1       3.831  -5.380  24.880  0.00  0.00    -0.025 A 
ATOM     23  C   UNL     1       3.622  -6.584  25.576  0.00  0.00    +0.008 A 
ATOM     24  C   UNL     1       2.934  -7.641  24.978  0.00  0.00    +0.046 A 
ATOM     25  C   UNL     1       2.454  -7.505  23.682  0.00  0.00    +0.117 A 
ATOM     26  C   UNL     1       2.673  -6.338  22.962  0.00  0.00    +0.046 A 
ATOM     27  C   UNL     1       3.365  -5.279  23.557  0.00  0.00    +0.008 A 
BRANCH  25  28
ATOM     28  O   UNL     1       1.759  -8.550  23.150  0.00  0.00    -0.507 OA
ATOM     29  H   UNL     1       1.299  -8.247  22.351  0.00  0.00    +0.292 HD
ENDBRANCH  25  28
ENDBRANCH  21  22
BRANCH  21  30
ATOM     30  C   UNL     1       4.037  -2.866  25.190  0.00  0.00    +0.321 C 
ATOM     31  O   UNL     1       3.052  -2.338  25.684  0.00  0.00    -0.250 OA
BRANCH  30  32
ATOM     32  O   UNL     1       4.828  -2.208  24.305  0.00  0.00    -0.480 OA
ATOM     33  H   UNL     1       5.280  -1.421  24.666  0.00  0.00    +0.295 HD
ENDBRANCH  30  32
ENDBRANCH  21  30
ENDBRANCH   1  21
TORSDOF 9
ENDMDL
MODEL 8
REMARK VINA RESULT:      -6.6      2.910      4.868
REMARK  Name = 
REMARK  11 active torsions:
REMARK  status: ('A' for Active; 'I' for Inactive)
REMARK    1  A    between atoms: C_2  and  C_3
REMARK    2  A    between atoms: C_2  and  C_6
REMARK    3  A    between atoms: C_2  and  C_25
REMARK    4  A    between atoms: C_3  and  O_4
REMARK    5  A    between atoms: N_8  and  C_9
REMARK    6  A    between atoms: C_9  and  O_10
REMARK    7  A    between atoms: O_10  and  C_11
REMARK    8  A    between atoms: C_15  and  C_16
REMARK    9  A    between atoms: C_16  and  O_17
REMARK   10  A    between atoms: C_19  and  C_20
REMARK   11  A    between atoms: C_28  and  O_29
REMARK                            x       y       z     vdW  Elec       q    Type
REMARK                         _______ _______ _______ _____ _____    ______ ____
ROOT
ATOM      1  C   UNL     1       7.952  -2.073  25.436  0.00  0.00    +0.234 C 
ATOM      2  N   UNL     1       7.263  -2.862  26.324  0.00  0.00    -0.276 N 
ATOM      3  H   UNL     1       6.659  -2.441  27.020  0.00  0.00    +0.152 HD
ATOM      4  O   UNL     1       8.648  -2.555  24.540  0.00  0.00    -0.274 OA
ENDROOT
BRANCH   2   5
ATOM      5  C   UNL     1       7.402  -4.348  26.296  0.00  0.00    +0.258 C 
ATOM      6  C   UNL     1       6.221  -5.089  27.046  0.00  0.00    +0.273 C 
ATOM      7  N   UNL     1       5.714  -5.504  25.758  0.00  0.00    -0.230 N 
ATOM      8  C   UNL     1       4.420  -5.923  25.612  0.00  0.00    +0.124 C 
ATOM      9  C   UNL     1       3.590  -5.783  26.684  0.00  0.00    -0.019 C 
ATOM     10  C   UNL     1       4.051  -5.105  27.975  0.00  0.00    +0.195 C 
ATOM     11  C   UNL     1       2.141  -6.197  26.790  0.00  0.00    +0.043 C 
ATOM     12  O   UNL     1       5.248  -4.346  27.792  0.00  0.00    -0.349 OA
ATOM     13  C   UNL     1       6.725  -5.037  24.996  0.00  0.00    +0.277 C 
ATOM     14  O   UNL     1       6.830  -5.076  23.792  0.00  0.00    -0.270 OA
BRANCH   8  15
ATOM     15  C   UNL     1       3.940  -6.536  24.318  0.00  0.00    +0.351 C 
ATOM     16  O   UNL     1       3.565  -5.875  23.360  0.00  0.00    -0.244 OA
BRANCH  15  17
ATOM     17  O   UNL     1       3.921  -7.880  24.256  0.00  0.00    -0.476 OA
ATOM     18  H   UNL     1       3.253  -8.308  23.674  0.00  0.00    +0.295 HD
ENDBRANCH  15  17
ENDBRANCH   8  15
BRANCH   5  19
ATOM     19  O   UNL     1       8.754  -4.762  26.644  0.00  0.00    -0.348 OA
ATOM     20  C   UNL     1       9.524  -5.498  25.711  0.00  0.00    +0.197 C 
ENDBRANCH   5  19
ENDBRANCH   2   5
BRANCH   1  21
ATOM     21  C   UNL     1       7.827  -0.563  25.565  0.00  0.00    +0.213 C 
BRANCH  21  22
ATOM     22  C   UNL     1       8.607   0.239  24.529  0.00  0.00    -0.025 A 
ATOM     23  C   UNL     1       8.008   0.524  23.289  0.00  0.00    +0.008 A 
ATOM     24  C   UNL     1       8.682   1.284  22.332  0.00  0.00    +0.046 A 
ATOM     25  C   UNL     1       9.957   1.761  22.603  0.00  0.00    +0.117 A 
ATOM     26  C   UNL     1      10.584   1.468  23.808  0.00  0.00    +0.046 A 
ATOM     27  C   UNL     1       9.913   0.704  24.767  0.00  0.00    +0.008 A 
BRANCH  25  28
ATOM     28  O   UNL     1      10.564   2.526  21.653  0.00  0.00    -0.507 OA
ATOM     29  H   UNL     1      11.400   2.105  21.397  0.00  0.00    +0.292 HD
ENDBRANCH  25  28
ENDBRANCH  21  22
BRANCH  21  30
ATOM     30  C   UNL     1       8.081  -0.121  26.989  0.00  0.00    +0.321 C 
ATOM     31  O   UNL     1       7.343   0.620  27.622  0.00  0.00    -0.250 OA
BRANCH  30  32
ATOM     32  O   UNL     1       9.163  -0.704  27.564  0.00  0.00    -0.480 OA
ATOM     33  H   UNL     1       9.063  -1.659  27.749  0.00  0.00    +0.295 HD
ENDBRANCH  30  32
ENDBRANCH  21  30
ENDBRANCH   1  21
TORSDOF 9
ENDMDL
MODEL 9
REMARK VINA RESULT:      -6.6      2.632      7.719
REMARK  Name = 
REMARK  11 active torsions:
REMARK  status: ('A' for Active; 'I' for Inactive)
REMARK    1  A    between atoms: C_2  and  C_3
REMARK    2  A    between atoms: C_2  and  C_6
REMARK    3  A    between atoms: C_2  and  C_25
REMARK    4  A    between atoms: C_3  and  O_4
REMARK    5  A    between atoms: N_8  and  C_9
REMARK    6  A    between atoms: C_9  and  O_10
REMARK    7  A    between atoms: O_10  and  C_11
REMARK    8  A    between atoms: C_15  and  C_16
REMARK    9  A    between atoms: C_16  and  O_17
REMARK   10  A    between atoms: C_19  and  C_20
REMARK   11  A    between atoms: C_28  and  O_29
REMARK                            x       y       z     vdW  Elec       q    Type
REMARK                         _______ _______ _______ _____ _____    ______ ____
ROOT
ATOM      1  C   UNL     1       7.151  -4.701  24.626  0.00  0.00    +0.234 C 
ATOM      2  N   UNL     1       7.957  -3.741  24.064  0.00  0.00    -0.276 N 
ATOM      3  H   UNL     1       8.823  -3.472  24.516  0.00  0.00    +0.152 HD
ATOM      4  O   UNL     1       6.122  -5.094  24.073  0.00  0.00    -0.274 OA
ENDROOT
BRANCH   2   5
ATOM      5  C   UNL     1       7.568  -3.065  22.791  0.00  0.00    +0.258 C 
ATOM      6  C   UNL     1       6.731  -1.743  23.030  0.00  0.00    +0.273 C 
ATOM      7  N   UNL     1       7.889  -0.980  22.623  0.00  0.00    -0.230 N 
ATOM      8  C   UNL     1       8.007   0.344  22.941  0.00  0.00    +0.124 C 
ATOM      9  C   UNL     1       7.075   0.874  23.784  0.00  0.00    -0.019 C 
ATOM     10  C   UNL     1       5.989   0.011  24.426  0.00  0.00    +0.195 C 
ATOM     11  C   UNL     1       6.964   2.305  24.256  0.00  0.00    +0.043 C 
ATOM     12  O   UNL     1       6.287  -1.385  24.345  0.00  0.00    -0.349 OA
ATOM     13  C   UNL     1       8.676  -2.013  22.254  0.00  0.00    +0.277 C 
ATOM     14  O   UNL     1       9.813  -1.973  21.844  0.00  0.00    -0.270 OA
BRANCH   8  15
ATOM     15  C   UNL     1       9.115   1.190  22.360  0.00  0.00    +0.351 C 
ATOM     16  O   UNL     1      10.128   1.487  22.978  0.00  0.00    -0.244 OA
BRANCH  15  17
ATOM     17  O   UNL     1       8.940   1.637  21.103  0.00  0.00    -0.476 OA
ATOM     18  H   UNL     1       9.682   1.532  20.466  0.00  0.00    +0.295 HD
ENDBRANCH  15  17
ENDBRANCH   8  15
BRANCH   5  19
ATOM     19  O   UNL     1       7.026  -4.013  21.830  0.00  0.00    -0.348 OA
ATOM     20  C   UNL     1       5.792  -3.738  21.191  0.00  0.00    +0.197 C 
ENDBRANCH   5  19
ENDBRANCH   2   5
BRANCH   1  21
ATOM     21  C   UNL     1       7.565  -5.299  25.962  0.00  0.00    +0.213 C 
BRANCH  21  22
ATOM     22  C   UNL     1       6.588  -5.057  27.106  0.00  0.00    -0.025 A 
ATOM     23  C   UNL     1       6.511  -5.995  28.152  0.00  0.00    +0.008 A 
ATOM     24  C   UNL     1       5.651  -5.788  29.231  0.00  0.00    +0.046 A 
ATOM     25  C   UNL     1       4.860  -4.647  29.273  0.00  0.00    +0.117 A 
ATOM     26  C   UNL     1       4.894  -3.720  28.239  0.00  0.00    +0.046 A 
ATOM     27  C   UNL     1       5.752  -3.927  27.155  0.00  0.00    +0.008 A 
BRANCH  25  28
ATOM     28  O   UNL     1       4.060  -4.470  30.362  0.00  0.00    -0.507 OA
ATOM     29  H   UNL     1       4.616  -4.432  31.157  0.00  0.00    +0.292 HD
ENDBRANCH  25  28
ENDBRANCH  21  22
BRANCH  21  30
ATOM     30  C   UNL     1       8.993  -4.928  26.298  0.00  0.00    +0.321 C 
ATOM     31  O   UNL     1       9.310  -3.991  27.017  0.00  0.00    -0.250 OA
BRANCH  30  32
ATOM     32  O   UNL     1       9.918  -5.797  25.817  0.00  0.00    -0.480 OA
ATOM     33  H   UNL     1      10.846  -5.545  25.988  0.00  0.00    +0.295 HD
ENDBRANCH  30  32
ENDBRANCH  21  30
ENDBRANCH   1  21
TORSDOF 9
ENDMDL
