MODEL 1
REMARK VINA RESULT:      -7.4      0.000      0.000
REMARK  Name = 
REMARK  4 active torsions:
REMARK  status: ('A' for Active; 'I' for Inactive)
REMARK    1  A    between atoms: C_5  and  C_7
REMARK    2  A    between atoms: C_7  and  N_8
REMARK    3  A    between atoms: C_9  and  C_19
REMARK    4  A    between atoms: C_12  and  C_13
REMARK                            x       y       z     vdW  Elec       q    Type
REMARK                         _______ _______ _______ _____ _____    ______ ____
ROOT
ATOM      1  N   UNL     1       6.969  -1.879  23.912  0.00  0.00    -0.329 N 
ATOM      2  C   UNL     1       7.183  -0.514  24.141  0.00  0.00    +0.050 A 
ATOM      3  C   UNL     1       6.169  -0.121  24.999  0.00  0.00    +0.028 A 
ATOM      4  C   UNL     1       5.300  -1.211  25.207  0.00  0.00    +0.028 A 
ATOM      5  C   UNL     1       5.760  -2.303  24.484  0.00  0.00    +0.050 A 
ENDROOT
BRANCH   2   6
ATOM      6  C   UNL     1       8.292   0.326  23.620  0.00  0.00    -0.001 A 
ATOM      7  C   UNL     1       8.330   0.816  22.307  0.00  0.00    +0.010 A 
ATOM      8  C   UNL     1       9.390   1.595  21.833  0.00  0.00    +0.001 A 
ATOM      9  C   UNL     1      10.423   1.949  22.688  0.00  0.00    +0.000 A 
ATOM     10  C   UNL     1      10.388   1.525  24.013  0.00  0.00    +0.001 A 
ATOM     11  C   UNL     1       9.336   0.717  24.471  0.00  0.00    +0.010 A 
ENDBRANCH   2   6
BRANCH   5  12
ATOM     12  C   UNL     1       5.121  -3.645  24.379  0.00  0.00    -0.001 A 
ATOM     13  C   UNL     1       4.613  -4.170  23.182  0.00  0.00    +0.010 A 
ATOM     14  C   UNL     1       4.020  -5.436  23.108  0.00  0.00    +0.001 A 
ATOM     15  C   UNL     1       3.871  -6.198  24.255  0.00  0.00    +0.000 A 
ATOM     16  C   UNL     1       4.319  -5.690  25.469  0.00  0.00    +0.001 A 
ATOM     17  C   UNL     1       4.941  -4.433  25.529  0.00  0.00    +0.010 A 
ENDBRANCH   5  12
BRANCH   1  18
ATOM     18  C   UNL     1       7.902  -2.745  23.199  0.00  0.00    +0.236 C 
BRANCH  18  25
ATOM     19  N   UNL     1      10.302  -5.336  25.847  0.00  0.00    -0.291 N 
ATOM     20  H   UNL     1      10.783  -4.582  25.357  0.00  0.00    +0.254 HD
ATOM     21  H   UNL     1      10.759  -5.629  26.697  0.00  0.00    +0.254 HD
ATOM     22  C   UNL     1       8.962  -5.214  25.876  0.00  0.00    +0.375 C 
ATOM     23  N   UNL     1       8.319  -4.350  25.046  0.00  0.00    -0.173 N 
ATOM     24  H   UNL     1       7.311  -4.413  25.157  0.00  0.00    +0.254 HD
ATOM     25  C   UNL     1       8.875  -3.501  24.095  0.00  0.00    +0.295 C 
ATOM     26  O   UNL     1      10.091  -3.324  23.991  0.00  0.00    -0.255 OA
ATOM     27  N   UNL     1       8.200  -5.872  26.666  0.00  0.00    -0.131 NA
ATOM     28  H   UNL     1       8.767  -6.514  27.224  0.00  0.00    +0.306 HD
ENDBRANCH  18  25
ENDBRANCH   1  18
TORSDOF 4
ENDMDL
MODEL 2
REMARK VINA RESULT:      -7.2      0.577      5.946
REMARK  Name = 
REMARK  4 active torsions:
REMARK  status: ('A' for Active; 'I' for Inactive)
REMARK    1  A    between atoms: C_5  and  C_7
REMARK    2  A    between atoms: C_7  and  N_8
REMARK    3  A    between atoms: C_9  and  C_19
REMARK    4  A    between atoms: C_12  and  C_13
REMARK                            x       y       z     vdW  Elec       q    Type
REMARK                         _______ _______ _______ _____ _____    ______ ____
ROOT
ATOM      1  N   UNL     1       6.994  -1.767  24.214  0.00  0.00    -0.329 N 
ATOM      2  C   UNL     1       5.746  -2.157  24.717  0.00  0.00    +0.050 A 
ATOM      3  C   UNL     1       5.203  -1.015  25.283  0.00  0.00    +0.028 A 
ATOM      4  C   UNL     1       6.152   0.025  25.208  0.00  0.00    +0.028 A 
ATOM      5  C   UNL     1       7.301  -0.451  24.591  0.00  0.00    +0.050 A 
ENDROOT
BRANCH   2   6
ATOM      6  C   UNL     1       5.112  -3.496  24.618  0.00  0.00    -0.001 A 
ATOM      7  C   UNL     1       4.950  -4.350  25.719  0.00  0.00    +0.010 A 
ATOM      8  C   UNL     1       4.361  -5.613  25.601  0.00  0.00    +0.001 A 
ATOM      9  C   UNL     1       3.866  -6.033  24.376  0.00  0.00    +0.000 A 
ATOM     10  C   UNL     1       3.960  -5.187  23.275  0.00  0.00    +0.001 A 
ATOM     11  C   UNL     1       4.583  -3.934  23.395  0.00  0.00    +0.010 A 
ENDBRANCH   2   6
BRANCH   5  12
ATOM     12  C   UNL     1       8.567   0.297  24.349  0.00  0.00    -0.001 A 
ATOM     13  C   UNL     1       9.781  -0.010  24.980  0.00  0.00    +0.010 A 
ATOM     14  C   UNL     1      10.958   0.706  24.734  0.00  0.00    +0.001 A 
ATOM     15  C   UNL     1      10.940   1.793  23.877  0.00  0.00    +0.000 A 
ATOM     16  C   UNL     1       9.743   2.157  23.269  0.00  0.00    +0.001 A 
ATOM     17  C   UNL     1       8.574   1.415  23.498  0.00  0.00    +0.010 A 
ENDBRANCH   5  12
BRANCH   1  18
ATOM     18  C   UNL     1       7.841  -2.614  23.380  0.00  0.00    +0.236 C 
BRANCH  18  25
ATOM     19  N   UNL     1      10.330  -5.428  25.697  0.00  0.00    -0.291 N 
ATOM     20  H   UNL     1      10.805  -4.684  25.185  0.00  0.00    +0.254 HD
ATOM     21  H   UNL     1      10.850  -5.777  26.488  0.00  0.00    +0.254 HD
ATOM     22  C   UNL     1       9.009  -5.234  25.862  0.00  0.00    +0.375 C 
ATOM     23  N   UNL     1       8.340  -4.306  25.127  0.00  0.00    -0.173 N 
ATOM     24  H   UNL     1       7.346  -4.317  25.335  0.00  0.00    +0.254 HD
ATOM     25  C   UNL     1       8.850  -3.454  24.152  0.00  0.00    +0.295 C 
ATOM     26  O   UNL     1      10.059  -3.341  23.935  0.00  0.00    -0.255 OA
ATOM     27  N   UNL     1       8.290  -5.877  26.702  0.00  0.00    -0.131 NA
ATOM     28  H   UNL     1       8.870  -6.570  27.181  0.00  0.00    +0.306 HD
ENDBRANCH  18  25
ENDBRANCH   1  18
TORSDOF 4
ENDMDL
MODEL 3
REMARK VINA RESULT:      -7.0      3.018      4.345
REMARK  Name = 
REMARK  4 active torsions:
REMARK  status: ('A' for Active; 'I' for Inactive)
REMARK    1  A    between atoms: C_5  and  C_7
REMARK    2  A    between atoms: C_7  and  N_8
REMARK    3  A    between atoms: C_9  and  C_19
REMARK    4  A    between atoms: C_12  and  C_13
REMARK                            x       y       z     vdW  Elec       q    Type
REMARK                         _______ _______ _______ _____ _____    ______ ____
ROOT
ATOM      1  N   UNL     1       7.977   0.014  22.894  0.00  0.00    -0.329 N 
ATOM      2  C   UNL     1       8.706   1.138  22.485  0.00  0.00    +0.050 A 
ATOM      3  C   UNL     1       9.767   0.640  21.746  0.00  0.00    +0.028 A 
ATOM      4  C   UNL     1       9.732  -0.768  21.791  0.00  0.00    +0.028 A 
ATOM      5  C   UNL     1       8.646  -1.172  22.556  0.00  0.00    +0.050 A 
ENDROOT
BRANCH   2   6
ATOM      6  C   UNL     1       8.383   2.565  22.741  0.00  0.00    -0.001 A 
ATOM      7  C   UNL     1       7.382   3.260  22.046  0.00  0.00    +0.010 A 
ATOM      8  C   UNL     1       7.102   4.607  22.294  0.00  0.00    +0.001 A 
ATOM      9  C   UNL     1       7.789   5.283  23.291  0.00  0.00    +0.000 A 
ATOM     10  C   UNL     1       8.751   4.608  24.036  0.00  0.00    +0.001 A 
ATOM     11  C   UNL     1       9.048   3.265  23.758  0.00  0.00    +0.010 A 
ENDBRANCH   2   6
BRANCH   5  12
ATOM     12  C   UNL     1       8.261  -2.569  22.903  0.00  0.00    -0.001 A 
ATOM     13  C   UNL     1       8.810  -3.280  23.979  0.00  0.00    +0.010 A 
ATOM     14  C   UNL     1       8.430  -4.591  24.287  0.00  0.00    +0.001 A 
ATOM     15  C   UNL     1       7.514  -5.251  23.486  0.00  0.00    +0.000 A 
ATOM     16  C   UNL     1       6.982  -4.595  22.381  0.00  0.00    +0.001 A 
ATOM     17  C   UNL     1       7.347  -3.270  22.097  0.00  0.00    +0.010 A 
ENDBRANCH   5  12
BRANCH   1  18
ATOM     18  C   UNL     1       6.677   0.078  23.555  0.00  0.00    +0.236 C 
BRANCH  18  25
ATOM     19  N   UNL     1       7.422   0.968  27.813  0.00  0.00    -0.291 N 
ATOM     20  H   UNL     1       6.521   1.240  27.422  0.00  0.00    +0.254 HD
ATOM     21  H   UNL     1       7.408   0.821  28.811  0.00  0.00    +0.254 HD
ATOM     22  C   UNL     1       8.108   0.082  27.068  0.00  0.00    +0.375 C 
ATOM     23  N   UNL     1       7.768  -0.154  25.773  0.00  0.00    -0.173 N 
ATOM     24  H   UNL     1       8.411  -0.808  25.337  0.00  0.00    +0.254 HD
ATOM     25  C   UNL     1       6.737   0.422  25.038  0.00  0.00    +0.295 C 
ATOM     26  O   UNL     1       5.881   1.147  25.549  0.00  0.00    -0.255 OA
ATOM     27  N   UNL     1       9.102  -0.599  27.498  0.00  0.00    -0.131 NA
ATOM     28  H   UNL     1       9.301  -0.330  28.464  0.00  0.00    +0.306 HD
ENDBRANCH  18  25
ENDBRANCH   1  18
TORSDOF 4
ENDMDL
MODEL 4
REMARK VINA RESULT:      -7.0      2.199      6.707
REMARK  Name = 
REMARK  4 active torsions:
REMARK  status: ('A' for Active; 'I' for Inactive)
REMARK    1  A    between atoms: C_5  and  C_7
REMARK    2  A    between atoms: C_7  and  N_8
REMARK    3  A    between atoms: C_9  and  C_19
REMARK    4  A    between atoms: C_12  and  C_13
REMARK                            x       y       z     vdW  Elec       q    Type
REMARK                         _______ _______ _______ _____ _____    ______ ____
ROOT
ATOM      1  N   UNL     1       7.707  -2.608  24.032  0.00  0.00    -0.329 N 
ATOM      2  C   UNL     1       7.793  -3.956  24.405  0.00  0.00    +0.050 A 
ATOM      3  C   UNL     1       9.144  -4.203  24.586  0.00  0.00    +0.028 A 
ATOM      4  C   UNL     1       9.869  -3.047  24.233  0.00  0.00    +0.028 A 
ATOM      5  C   UNL     1       8.981  -2.058  23.829  0.00  0.00    +0.050 A 
ENDROOT
BRANCH   2   6
ATOM      6  C   UNL     1       6.672  -4.907  24.617  0.00  0.00    -0.001 A 
ATOM      7  C   UNL     1       5.948  -5.484  23.563  0.00  0.00    +0.010 A 
ATOM      8  C   UNL     1       4.888  -6.368  23.784  0.00  0.00    +0.001 A 
ATOM      9  C   UNL     1       4.558  -6.741  25.078  0.00  0.00    +0.000 A 
ATOM     10  C   UNL     1       5.292  -6.230  26.144  0.00  0.00    +0.001 A 
ATOM     11  C   UNL     1       6.334  -5.317  25.914  0.00  0.00    +0.010 A 
ENDBRANCH   2   6
BRANCH   5  12
ATOM     12  C   UNL     1       9.320  -0.696  23.329  0.00  0.00    -0.001 A 
ATOM     13  C   UNL     1       9.162  -0.300  21.993  0.00  0.00    +0.010 A 
ATOM     14  C   UNL     1       9.484   0.987  21.547  0.00  0.00    +0.001 A 
ATOM     15  C   UNL     1      10.027   1.908  22.428  0.00  0.00    +0.000 A 
ATOM     16  C   UNL     1      10.243   1.536  23.750  0.00  0.00    +0.001 A 
ATOM     17  C   UNL     1       9.888   0.253  24.196  0.00  0.00    +0.010 A 
ENDBRANCH   5  12
BRANCH   1  18
ATOM     18  C   UNL     1       6.453  -1.872  23.907  0.00  0.00    +0.236 C 
BRANCH  18  25
ATOM     19  N   UNL     1       5.431   0.214  27.659  0.00  0.00    -0.291 N 
ATOM     20  H   UNL     1       4.712  -0.367  27.228  0.00  0.00    +0.254 HD
ATOM     21  H   UNL     1       5.315   0.338  28.654  0.00  0.00    +0.254 HD
ATOM     22  C   UNL     1       6.677  -0.014  27.205  0.00  0.00    +0.375 C 
ATOM     23  N   UNL     1       6.887  -0.710  26.056  0.00  0.00    -0.173 N 
ATOM     24  H   UNL     1       7.876  -0.751  25.826  0.00  0.00    +0.254 HD
ATOM     25  C   UNL     1       5.938  -1.271  25.208  0.00  0.00    +0.295 C 
ATOM     26  O   UNL     1       4.740  -1.325  25.494  0.00  0.00    -0.255 OA
ATOM     27  N   UNL     1       7.739   0.384  27.798  0.00  0.00    -0.131 NA
ATOM     28  H   UNL     1       7.480   0.922  28.627  0.00  0.00    +0.306 HD
ENDBRANCH  18  25
ENDBRANCH   1  18
TORSDOF 4
ENDMDL
MODEL 5
REMARK VINA RESULT:      -6.9      2.922      6.881
REMARK  Name = 
REMARK  4 active torsions:
REMARK  status: ('A' for Active; 'I' for Inactive)
REMARK    1  A    between atoms: C_5  and  C_7
REMARK    2  A    between atoms: C_7  and  N_8
REMARK    3  A    between atoms: C_9  and  C_19
REMARK    4  A    between atoms: C_12  and  C_13
REMARK                            x       y       z     vdW  Elec       q    Type
REMARK                         _______ _______ _______ _____ _____    ______ ____
ROOT
ATOM      1  N   UNL     1       7.799  -0.279  22.945  0.00  0.00    -0.329 N 
ATOM      2  C   UNL     1       8.256  -1.497  22.424  0.00  0.00    +0.050 A 
ATOM      3  C   UNL     1       9.390  -1.182  21.693  0.00  0.00    +0.028 A 
ATOM      4  C   UNL     1       9.559   0.217  21.693  0.00  0.00    +0.028 A 
ATOM      5  C   UNL     1       8.534   0.798  22.428  0.00  0.00    +0.050 A 
ENDROOT
BRANCH   2   6
ATOM      6  C   UNL     1       7.682  -2.848  22.650  0.00  0.00    -0.001 A 
ATOM      7  C   UNL     1       8.176  -3.738  23.614  0.00  0.00    +0.010 A 
ATOM      8  C   UNL     1       7.628  -5.011  23.803  0.00  0.00    +0.001 A 
ATOM      9  C   UNL     1       6.526  -5.405  23.059  0.00  0.00    +0.000 A 
ATOM     10  C   UNL     1       5.977  -4.524  22.132  0.00  0.00    +0.001 A 
ATOM     11  C   UNL     1       6.554  -3.262  21.927  0.00  0.00    +0.010 A 
ENDBRANCH   2   6
BRANCH   5  12
ATOM     12  C   UNL     1       8.298   2.253  22.648  0.00  0.00    -0.001 A 
ATOM     13  C   UNL     1       7.288   2.981  22.003  0.00  0.00    +0.010 A 
ATOM     14  C   UNL     1       7.085   4.347  22.228  0.00  0.00    +0.001 A 
ATOM     15  C   UNL     1       7.930   5.041  23.077  0.00  0.00    +0.000 A 
ATOM     16  C   UNL     1       8.973   4.363  23.698  0.00  0.00    +0.001 A 
ATOM     17  C   UNL     1       9.151   2.986  23.491  0.00  0.00    +0.010 A 
ENDBRANCH   5  12
BRANCH   1  18
ATOM     18  C   UNL     1       6.722  -0.161  23.922  0.00  0.00    +0.236 C 
BRANCH  18  25
ATOM     19  N   UNL     1       7.727   0.603  28.151  0.00  0.00    -0.291 N 
ATOM     20  H   UNL     1       7.999  -0.296  27.753  0.00  0.00    +0.254 HD
ATOM     21  H   UNL     1       8.291   0.890  28.937  0.00  0.00    +0.254 HD
ATOM     22  C   UNL     1       7.411   1.541  27.241  0.00  0.00    +0.375 C 
ATOM     23  N   UNL     1       7.163   1.206  25.947  0.00  0.00    -0.173 N 
ATOM     24  H   UNL     1       6.891   2.019  25.401  0.00  0.00    +0.254 HD
ATOM     25  C   UNL     1       7.188  -0.059  25.369  0.00  0.00    +0.295 C 
ATOM     26  O   UNL     1       7.600  -1.055  25.967  0.00  0.00    -0.255 OA
ATOM     27  N   UNL     1       7.327   2.791  27.500  0.00  0.00    -0.131 NA
ATOM     28  H   UNL     1       7.497   2.941  28.497  0.00  0.00    +0.306 HD
ENDBRANCH  18  25
ENDBRANCH   1  18
TORSDOF 4
ENDMDL
MODEL 6
REMARK VINA RESULT:      -6.9      3.385      5.173
REMARK  Name = 
REMARK  4 active torsions:
REMARK  status: ('A' for Active; 'I' for Inactive)
REMARK    1  A    between atoms: C_5  and  C_7
REMARK    2  A    between atoms: C_7  and  N_8
REMARK    3  A    between atoms: C_9  and  C_19
REMARK    4  A    between atoms: C_12  and  C_13
REMARK                            x       y       z     vdW  Elec       q    Type
REMARK                         _______ _______ _______ _____ _____    ______ ____
ROOT
ATOM      1  N   UNL     1       9.372   0.795  23.651  0.00  0.00    -0.329 N 
ATOM      2  C   UNL     1       9.694   1.895  22.845  0.00  0.00    +0.050 A 
ATOM      3  C   UNL     1       9.544   1.452  21.541  0.00  0.00    +0.028 A 
ATOM      4  C   UNL     1       9.230   0.078  21.560  0.00  0.00    +0.028 A 
ATOM      5  C   UNL     1       9.176  -0.358  22.877  0.00  0.00    +0.050 A 
ENDROOT
BRANCH   2   6
ATOM      6  C   UNL     1      10.065   3.263  23.290  0.00  0.00    -0.001 A 
ATOM      7  C   UNL     1       9.148   4.157  23.861  0.00  0.00    +0.010 A 
ATOM      8  C   UNL     1       9.515   5.445  24.262  0.00  0.00    +0.001 A 
ATOM      9  C   UNL     1      10.836   5.853  24.150  0.00  0.00    +0.000 A 
ATOM     10  C   UNL     1      11.782   4.970  23.639  0.00  0.00    +0.001 A 
ATOM     11  C   UNL     1      11.398   3.691  23.208  0.00  0.00    +0.010 A 
ENDBRANCH   2   6
BRANCH   5  12
ATOM     12  C   UNL     1       8.922  -1.747  23.355  0.00  0.00    -0.001 A 
ATOM     13  C   UNL     1       9.845  -2.489  24.106  0.00  0.00    +0.010 A 
ATOM     14  C   UNL     1       9.583  -3.791  24.545  0.00  0.00    +0.001 A 
ATOM     15  C   UNL     1       8.394  -4.412  24.198  0.00  0.00    +0.000 A 
ATOM     16  C   UNL     1       7.475  -3.725  23.413  0.00  0.00    +0.001 A 
ATOM     17  C   UNL     1       7.733  -2.408  23.002  0.00  0.00    +0.010 A 
ENDBRANCH   5  12
BRANCH   1  18
ATOM     18  C   UNL     1       9.229   0.859  25.102  0.00  0.00    +0.236 C 
BRANCH  18  25
ATOM     19  N   UNL     1       4.908   0.671  25.985  0.00  0.00    -0.291 N 
ATOM     20  H   UNL     1       5.557   0.439  26.737  0.00  0.00    +0.254 HD
ATOM     21  H   UNL     1       4.009   0.996  26.306  0.00  0.00    +0.254 HD
ATOM     22  C   UNL     1       5.468   1.323  24.949  0.00  0.00    +0.375 C 
ATOM     23  N   UNL     1       6.818   1.360  24.792  0.00  0.00    -0.173 N 
ATOM     24  H   UNL     1       7.076   1.846  23.938  0.00  0.00    +0.254 HD
ATOM     25  C   UNL     1       7.791   0.783  25.600  0.00  0.00    +0.295 C 
ATOM     26  O   UNL     1       7.530   0.266  26.689  0.00  0.00    -0.255 OA
ATOM     27  N   UNL     1       4.802   1.952  24.056  0.00  0.00    -0.131 NA
ATOM     28  H   UNL     1       3.803   1.841  24.239  0.00  0.00    +0.306 HD
ENDBRANCH  18  25
ENDBRANCH   1  18
TORSDOF 4
ENDMDL
MODEL 7
REMARK VINA RESULT:      -6.9      2.508      3.948
REMARK  Name = 
REMARK  4 active torsions:
REMARK  status: ('A' for Active; 'I' for Inactive)
REMARK    1  A    between atoms: C_5  and  C_7
REMARK    2  A    between atoms: C_7  and  N_8
REMARK    3  A    between atoms: C_9  and  C_19
REMARK    4  A    between atoms: C_12  and  C_13
REMARK                            x       y       z     vdW  Elec       q    Type
REMARK                         _______ _______ _______ _____ _____    ______ ____
ROOT
ATOM      1  N   UNL     1       5.850  -4.469  23.441  0.00  0.00    -0.329 N 
ATOM      2  C   UNL     1       7.064  -4.308  22.759  0.00  0.00    +0.050 A 
ATOM      3  C   UNL     1       7.100  -5.329  21.825  0.00  0.00    +0.028 A 
ATOM      4  C   UNL     1       5.970  -6.152  22.005  0.00  0.00    +0.028 A 
ATOM      5  C   UNL     1       5.208  -5.654  23.054  0.00  0.00    +0.050 A 
ENDROOT
BRANCH   2   6
ATOM      6  C   UNL     1       8.075  -3.237  22.957  0.00  0.00    -0.001 A 
ATOM      7  C   UNL     1       8.972  -3.221  24.035  0.00  0.00    +0.010 A 
ATOM      8  C   UNL     1       9.908  -2.197  24.209  0.00  0.00    +0.001 A 
ATOM      9  C   UNL     1      10.005  -1.182  23.268  0.00  0.00    +0.000 A 
ATOM     10  C   UNL     1       9.167  -1.199  22.157  0.00  0.00    +0.001 A 
ATOM     11  C   UNL     1       8.208  -2.213  22.008  0.00  0.00    +0.010 A 
ENDBRANCH   2   6
BRANCH   5  12
ATOM     12  C   UNL     1       3.957  -6.240  23.614  0.00  0.00    -0.001 A 
ATOM     13  C   UNL     1       3.941  -7.228  24.608  0.00  0.00    +0.010 A 
ATOM     14  C   UNL     1       2.752  -7.761  25.120  0.00  0.00    +0.001 A 
ATOM     15  C   UNL     1       1.533  -7.349  24.607  0.00  0.00    +0.000 A 
ATOM     16  C   UNL     1       1.511  -6.405  23.587  0.00  0.00    +0.001 A 
ATOM     17  C   UNL     1       2.707  -5.853  23.101  0.00  0.00    +0.010 A 
ENDBRANCH   5  12
BRANCH   1  18
ATOM     18  C   UNL     1       5.317  -3.507  24.400  0.00  0.00    +0.236 C 
BRANCH  18  25
ATOM     19  N   UNL     1       5.789  -4.957  28.542  0.00  0.00    -0.291 N 
ATOM     20  H   UNL     1       4.872  -4.611  28.262  0.00  0.00    +0.254 HD
ATOM     21  H   UNL     1       5.763  -5.615  29.307  0.00  0.00    +0.254 HD
ATOM     22  C   UNL     1       6.616  -5.234  27.517  0.00  0.00    +0.375 C 
ATOM     23  N   UNL     1       6.356  -4.775  26.264  0.00  0.00    -0.173 N 
ATOM     24  H   UNL     1       7.098  -5.027  25.618  0.00  0.00    +0.254 HD
ATOM     25  C   UNL     1       5.279  -4.003  25.840  0.00  0.00    +0.295 C 
ATOM     26  O   UNL     1       4.313  -3.755  26.565  0.00  0.00    -0.255 OA
ATOM     27  N   UNL     1       7.681  -5.935  27.625  0.00  0.00    -0.131 NA
ATOM     28  H   UNL     1       7.808  -6.206  28.603  0.00  0.00    +0.306 HD
ENDBRANCH  18  25
ENDBRANCH   1  18
TORSDOF 4
ENDMDL
MODEL 8
REMARK VINA RESULT:      -6.9      1.913      6.304
REMARK  Name = 
REMARK  4 active torsions:
REMARK  status: ('A' for Active; 'I' for Inactive)
REMARK    1  A    between atoms: C_5  and  C_7
REMARK    2  A    between atoms: C_7  and  N_8
REMARK    3  A    between atoms: C_9  and  C_19
REMARK    4  A    between atoms: C_12  and  C_13
REMARK                            x       y       z     vdW  Elec       q    Type
REMARK                         _______ _______ _______ _____ _____    ______ ____
ROOT
ATOM      1  N   UNL     1       7.360  -2.004  24.747  0.00  0.00    -0.329 N 
ATOM      2  C   UNL     1       6.231  -2.413  25.468  0.00  0.00    +0.050 A 
ATOM      3  C   UNL     1       5.363  -1.335  25.436  0.00  0.00    +0.028 A 
ATOM      4  C   UNL     1       5.999  -0.256  24.788  0.00  0.00    +0.028 A 
ATOM      5  C   UNL     1       7.275  -0.647  24.402  0.00  0.00    +0.050 A 
ENDROOT
BRANCH   2   6
ATOM      6  C   UNL     1       5.990  -3.741  26.089  0.00  0.00    -0.001 A 
ATOM      7  C   UNL     1       6.668  -4.186  27.233  0.00  0.00    +0.010 A 
ATOM      8  C   UNL     1       6.434  -5.445  27.795  0.00  0.00    +0.001 A 
ATOM      9  C   UNL     1       5.466  -6.275  27.250  0.00  0.00    +0.000 A 
ATOM     10  C   UNL     1       4.737  -5.841  26.148  0.00  0.00    +0.001 A 
ATOM     11  C   UNL     1       5.001  -4.590  25.571  0.00  0.00    +0.010 A 
ENDBRANCH   2   6
BRANCH   5  12
ATOM     12  C   UNL     1       8.306   0.193  23.731  0.00  0.00    -0.001 A 
ATOM     13  C   UNL     1       9.123   1.108  24.409  0.00  0.00    +0.010 A 
ATOM     14  C   UNL     1      10.088   1.883  23.757  0.00  0.00    +0.001 A 
ATOM     15  C   UNL     1      10.228   1.799  22.381  0.00  0.00    +0.000 A 
ATOM     16  C   UNL     1       9.403   0.937  21.668  0.00  0.00    +0.001 A 
ATOM     17  C   UNL     1       8.459   0.140  22.334  0.00  0.00    +0.010 A 
ENDBRANCH   5  12
BRANCH   1  18
ATOM     18  C   UNL     1       8.462  -2.888  24.379  0.00  0.00    +0.236 C 
BRANCH  18  25
ATOM     19  N   UNL     1       7.133  -6.074  21.628  0.00  0.00    -0.291 N 
ATOM     20  H   UNL     1       7.639  -6.353  22.469  0.00  0.00    +0.254 HD
ATOM     21  H   UNL     1       6.528  -6.792  21.258  0.00  0.00    +0.254 HD
ATOM     22  C   UNL     1       6.654  -4.817  21.659  0.00  0.00    +0.375 C 
ATOM     23  N   UNL     1       7.098  -3.920  22.579  0.00  0.00    -0.173 N 
ATOM     24  H   UNL     1       6.678  -3.007  22.437  0.00  0.00    +0.254 HD
ATOM     25  C   UNL     1       8.047  -4.116  23.578  0.00  0.00    +0.295 C 
ATOM     26  O   UNL     1       8.512  -5.227  23.845  0.00  0.00    -0.255 OA
ATOM     27  N   UNL     1       5.763  -4.370  20.856  0.00  0.00    -0.131 NA
ATOM     28  H   UNL     1       5.517  -5.101  20.185  0.00  0.00    +0.306 HD
ENDBRANCH  18  25
ENDBRANCH   1  18
TORSDOF 4
ENDMDL
MODEL 9
REMARK VINA RESULT:      -6.9      2.115      4.181
REMARK  Name = 
REMARK  4 active torsions:
REMARK  status: ('A' for Active; 'I' for Inactive)
REMARK    1  A    between atoms: C_5  and  C_7
REMARK    2  A    between atoms: C_7  and  N_8
REMARK    3  A    between atoms: C_9  and  C_19
REMARK    4  A    between atoms: C_12  and  C_13
REMARK                            x       y       z     vdW  Elec       q    Type
REMARK                         _______ _______ _______ _____ _____    ______ ____
ROOT
ATOM      1  N   UNL     1       7.773  -2.581  23.898  0.00  0.00    -0.329 N 
ATOM      2  C   UNL     1       9.039  -1.981  23.886  0.00  0.00    +0.050 A 
ATOM      3  C   UNL     1       9.929  -2.992  24.206  0.00  0.00    +0.028 A 
ATOM      4  C   UNL     1       9.202  -4.163  24.502  0.00  0.00    +0.028 A 
ATOM      5  C   UNL     1       7.845  -3.901  24.367  0.00  0.00    +0.050 A 
ENDROOT
BRANCH   2   6
ATOM      6  C   UNL     1       9.366  -0.572  23.547  0.00  0.00    -0.001 A 
ATOM      7  C   UNL     1       9.613   0.411  24.517  0.00  0.00    +0.010 A 
ATOM      8  C   UNL     1       9.908   1.735  24.178  0.00  0.00    +0.001 A 
ATOM      9  C   UNL     1      10.016   2.098  22.843  0.00  0.00    +0.000 A 
ATOM     10  C   UNL     1       9.831   1.134  21.857  0.00  0.00    +0.001 A 
ATOM     11  C   UNL     1       9.504  -0.185  22.207  0.00  0.00    +0.010 A 
ENDBRANCH   2   6
BRANCH   5  12
ATOM     12  C   UNL     1       6.718  -4.840  24.630  0.00  0.00    -0.001 A 
ATOM     13  C   UNL     1       6.316  -5.229  25.915  0.00  0.00    +0.010 A 
ATOM     14  C   UNL     1       5.252  -6.111  26.136  0.00  0.00    +0.001 A 
ATOM     15  C   UNL     1       4.586  -6.674  25.060  0.00  0.00    +0.000 A 
ATOM     16  C   UNL     1       4.988  -6.349  23.769  0.00  0.00    +0.001 A 
ATOM     17  C   UNL     1       6.036  -5.440  23.557  0.00  0.00    +0.010 A 
ENDBRANCH   5  12
BRANCH   1  18
ATOM     18  C   UNL     1       6.551  -1.923  23.447  0.00  0.00    +0.236 C 
BRANCH  18  25
ATOM     19  N   UNL     1       4.779   1.359  25.808  0.00  0.00    -0.291 N 
ATOM     20  H   UNL     1       4.973   0.480  26.288  0.00  0.00    +0.254 HD
ATOM     21  H   UNL     1       4.761   2.163  26.417  0.00  0.00    +0.254 HD
ATOM     22  C   UNL     1       5.401   1.495  24.623  0.00  0.00    +0.375 C 
ATOM     23  N   UNL     1       5.957   0.424  23.996  0.00  0.00    -0.173 N 
ATOM     24  H   UNL     1       6.342   0.684  23.093  0.00  0.00    +0.254 HD
ATOM     25  C   UNL     1       5.987  -0.899  24.424  0.00  0.00    +0.295 C 
ATOM     26  O   UNL     1       5.616  -1.242  25.549  0.00  0.00    -0.255 OA
ATOM     27  N   UNL     1       5.529   2.608  24.005  0.00  0.00    -0.131 NA
ATOM     28  H   UNL     1       5.055   3.343  24.533  0.00  0.00    +0.306 HD
ENDBRANCH  18  25
ENDBRANCH   1  18
TORSDOF 4
ENDMDL
