MODEL 1
REMARK VINA RESULT:      -6.7      0.000      0.000
REMARK  Name = 
REMARK  8 active torsions:
REMARK  status: ('A' for Active; 'I' for Inactive)
REMARK    1  A    between atoms: C_2  and  C_3
REMARK    2  A    between atoms: C_7  and  C_9
REMARK    3  A    between atoms: C_11  and  C_13
REMARK    4  A    between atoms: C_19  and  N_20
REMARK    5  A    between atoms: C_21  and  C_23
REMARK    6  A    between atoms: C_23  and  C_24
REMARK    7  A    between atoms: C_24  and  C_25
REMARK    8  A    between atoms: C_25  and  O_26
REMARK                            x       y       z     vdW  Elec       q    Type
REMARK                         _______ _______ _______ _____ _____    ______ ____
ROOT
ATOM      1  C   UNL     1       8.627   1.384  23.095  0.00  0.00    +0.059 A 
ATOM      2  C   UNL     1       9.803   2.020  23.576  0.00  0.00    +0.046 A 
ATOM      3  C   UNL     1      10.645   1.241  24.393  0.00  0.00    +0.025 A 
ATOM      4  C   UNL     1      10.332  -0.090  24.697  0.00  0.00    +0.017 A 
ATOM      5  C   UNL     1       9.242  -0.716  24.101  0.00  0.00    +0.019 A 
ATOM      6 BR   UNL     1       8.741  -2.464  24.604  0.00  0.00    -0.050 Br
ATOM      7  C   UNL     1       8.444  -0.013  23.215  0.00  0.00    +0.030 A 
ENDROOT
BRANCH   1  15
ATOM      8  C   UNL     1       5.079   4.440  23.569  0.00  0.00    +0.004 C 
ATOM      9  C   UNL     1       6.172   5.424  23.151  0.00  0.00    +0.009 C 
ATOM     10  C   UNL     1       4.974   4.238  25.097  0.00  0.00    +0.009 C 
ATOM     11  C   UNL     1       5.626   2.989  25.723  0.00  0.00    +0.004 C 
ATOM     12  C   UNL     1       6.708   3.310  26.770  0.00  0.00    +0.009 C 
ATOM     13  C   UNL     1       6.104   1.910  24.743  0.00  0.00    +0.111 C 
ATOM     14  N   UNL     1       6.348   2.368  23.368  0.00  0.00    -0.297 N 
ATOM     15  C   UNL     1       7.493   2.179  22.571  0.00  0.00    +0.248 C 
ATOM     16  O   UNL     1       7.642   2.686  21.456  0.00  0.00    -0.270 OA
ATOM     17  C   UNL     1       5.238   3.119  22.818  0.00  0.00    +0.111 C 
ENDBRANCH   1  15
BRANCH   2  18
ATOM     18  N   UNL     1      10.133   3.368  23.200  0.00  0.00    -0.285 N 
ATOM     19  H   UNL     1      10.592   3.445  22.288  0.00  0.00    +0.155 HD
ATOM     20  C   UNL     1       9.914   4.520  23.930  0.00  0.00    +0.218 C 
ATOM     21  O   UNL     1       9.153   4.615  24.900  0.00  0.00    -0.275 OA
BRANCH  20  22
ATOM     22  C   UNL     1      10.644   5.785  23.489  0.00  0.00    +0.107 C 
BRANCH  22  23
ATOM     23  C   UNL     1      12.130   5.835  23.841  0.00  0.00    +0.129 C 
BRANCH  23  24
ATOM     24  C   UNL     1      13.163   5.412  22.814  0.00  0.00    +0.305 C 
ATOM     25  O   UNL     1      12.958   5.501  21.613  0.00  0.00    -0.251 OA
BRANCH  24  26
ATOM     26  O   UNL     1      14.371   5.040  23.285  0.00  0.00    -0.481 OA
ATOM     27  H   UNL     1      14.735   5.539  24.047  0.00  0.00    +0.295 HD
ENDBRANCH  24  26
ENDBRANCH  23  24
ENDBRANCH  22  23
ENDBRANCH  20  22
ENDBRANCH   2  18
TORSDOF 6
ENDMDL
MODEL 2
REMARK VINA RESULT:      -6.6      5.329      8.438
REMARK  Name = 
REMARK  8 active torsions:
REMARK  status: ('A' for Active; 'I' for Inactive)
REMARK    1  A    between atoms: C_2  and  C_3
REMARK    2  A    between atoms: C_7  and  C_9
REMARK    3  A    between atoms: C_11  and  C_13
REMARK    4  A    between atoms: C_19  and  N_20
REMARK    5  A    between atoms: C_21  and  C_23
REMARK    6  A    between atoms: C_23  and  C_24
REMARK    7  A    between atoms: C_24  and  C_25
REMARK    8  A    between atoms: C_25  and  O_26
REMARK                            x       y       z     vdW  Elec       q    Type
REMARK                         _______ _______ _______ _____ _____    ______ ____
ROOT
ATOM      1  C   UNL     1       9.390  -1.717  23.539  0.00  0.00    +0.059 A 
ATOM      2  C   UNL     1       8.530  -1.757  22.408  0.00  0.00    +0.046 A 
ATOM      3  C   UNL     1       8.347  -0.542  21.720  0.00  0.00    +0.025 A 
ATOM      4  C   UNL     1       8.992   0.631  22.133  0.00  0.00    +0.017 A 
ATOM      5  C   UNL     1       9.926   0.601  23.164  0.00  0.00    +0.019 A 
ATOM      6 BR   UNL     1      10.700   2.195  23.810  0.00  0.00    -0.050 Br
ATOM      7  C   UNL     1      10.208  -0.594  23.802  0.00  0.00    +0.030 A 
ENDROOT
BRANCH   1  15
ATOM      8  C   UNL     1       7.255  -4.307  26.838  0.00  0.00    +0.004 C 
ATOM      9  C   UNL     1       6.995  -5.214  25.634  0.00  0.00    +0.009 C 
ATOM     10  C   UNL     1       6.143  -3.263  27.084  0.00  0.00    +0.009 C 
ATOM     11  C   UNL     1       6.366  -1.819  26.595  0.00  0.00    +0.004 C 
ATOM     12  C   UNL     1       5.315  -1.337  25.578  0.00  0.00    +0.009 C 
ATOM     13  C   UNL     1       7.787  -1.471  26.133  0.00  0.00    +0.111 C 
ATOM     14  N   UNL     1       8.622  -2.614  25.740  0.00  0.00    -0.297 N 
ATOM     15  C   UNL     1       9.360  -2.794  24.554  0.00  0.00    +0.248 C 
ATOM     16  O   UNL     1       9.957  -3.836  24.272  0.00  0.00    -0.270 OA
ATOM     17  C   UNL     1       8.639  -3.669  26.733  0.00  0.00    +0.111 C 
ENDBRANCH   1  15
BRANCH   2  18
ATOM     18  N   UNL     1       7.928  -2.986  21.967  0.00  0.00    -0.285 N 
ATOM     19  H   UNL     1       8.574  -3.612  21.477  0.00  0.00    +0.155 HD
ATOM     20  C   UNL     1       6.614  -3.378  22.120  0.00  0.00    +0.218 C 
ATOM     21  O   UNL     1       5.803  -2.865  22.900  0.00  0.00    -0.275 OA
BRANCH  20  22
ATOM     22  C   UNL     1       6.127  -4.559  21.284  0.00  0.00    +0.107 C 
BRANCH  22  23
ATOM     23  C   UNL     1       5.962  -5.872  22.048  0.00  0.00    +0.129 C 
BRANCH  23  24
ATOM     24  C   UNL     1       4.708  -6.116  22.865  0.00  0.00    +0.305 C 
ATOM     25  O   UNL     1       3.696  -5.447  22.718  0.00  0.00    -0.251 OA
BRANCH  24  26
ATOM     26  O   UNL     1       4.717  -7.185  23.688  0.00  0.00    -0.481 OA
ATOM     27  H   UNL     1       4.778  -8.074  23.276  0.00  0.00    +0.295 HD
ENDBRANCH  24  26
ENDBRANCH  23  24
ENDBRANCH  22  23
ENDBRANCH  20  22
ENDBRANCH   2  18
TORSDOF 6
ENDMDL
MODEL 3
REMARK VINA RESULT:      -6.6      6.274      9.131
REMARK  Name = 
REMARK  8 active torsions:
REMARK  status: ('A' for Active; 'I' for Inactive)
REMARK    1  A    between atoms: C_2  and  C_3
REMARK    2  A    between atoms: C_7  and  C_9
REMARK    3  A    between atoms: C_11  and  C_13
REMARK    4  A    between atoms: C_19  and  N_20
REMARK    5  A    between atoms: C_21  and  C_23
REMARK    6  A    between atoms: C_23  and  C_24
REMARK    7  A    between atoms: C_24  and  C_25
REMARK    8  A    between atoms: C_25  and  O_26
REMARK                            x       y       z     vdW  Elec       q    Type
REMARK                         _______ _______ _______ _____ _____    ______ ____
ROOT
ATOM      1  C   UNL     1       7.541  -2.088  23.900  0.00  0.00    +0.059 A 
ATOM      2  C   UNL     1       8.631  -2.955  24.181  0.00  0.00    +0.046 A 
ATOM      3  C   UNL     1       9.877  -2.590  23.636  0.00  0.00    +0.025 A 
ATOM      4  C   UNL     1      10.021  -1.426  22.869  0.00  0.00    +0.017 A 
ATOM      5  C   UNL     1       8.961  -0.537  22.726  0.00  0.00    +0.019 A 
ATOM      6 BR   UNL     1       9.109   0.962  21.591  0.00  0.00    -0.050 Br
ATOM      7  C   UNL     1       7.746  -0.811  23.328  0.00  0.00    +0.030 A 
ENDROOT
BRANCH   1  15
ATOM      8  C   UNL     1       4.102  -5.280  23.539  0.00  0.00    +0.004 C 
ATOM      9  C   UNL     1       4.547  -5.587  24.970  0.00  0.00    +0.009 C 
ATOM     10  C   UNL     1       4.843  -6.107  22.465  0.00  0.00    +0.009 C 
ATOM     11  C   UNL     1       6.007  -5.449  21.700  0.00  0.00    +0.004 C 
ATOM     12  C   UNL     1       7.353  -6.178  21.866  0.00  0.00    +0.009 C 
ATOM     13  C   UNL     1       6.169  -3.934  21.883  0.00  0.00    +0.111 C 
ATOM     14  N   UNL     1       5.558  -3.375  23.097  0.00  0.00    -0.297 N 
ATOM     15  C   UNL     1       6.144  -2.544  24.071  0.00  0.00    +0.248 C 
ATOM     16  O   UNL     1       5.574  -2.202  25.110  0.00  0.00    -0.270 OA
ATOM     17  C   UNL     1       4.176  -3.778  23.270  0.00  0.00    +0.111 C 
ENDBRANCH   1  15
BRANCH   2  18
ATOM     18  N   UNL     1       8.471  -4.111  25.022  0.00  0.00    -0.285 N 
ATOM     19  H   UNL     1       8.464  -4.998  24.511  0.00  0.00    +0.155 HD
ATOM     20  C   UNL     1       8.316  -4.134  26.394  0.00  0.00    +0.218 C 
ATOM     21  O   UNL     1       8.564  -3.193  27.156  0.00  0.00    -0.275 OA
BRANCH  20  22
ATOM     22  C   UNL     1       7.828  -5.435  27.027  0.00  0.00    +0.107 C 
BRANCH  22  23
ATOM     23  C   UNL     1       6.568  -5.309  27.882  0.00  0.00    +0.129 C 
BRANCH  23  24
ATOM     24  C   UNL     1       6.222  -6.400  28.878  0.00  0.00    +0.305 C 
ATOM     25  O   UNL     1       6.362  -6.249  30.082  0.00  0.00    -0.251 OA
BRANCH  24  26
ATOM     26  O   UNL     1       5.638  -7.511  28.383  0.00  0.00    -0.481 OA
ATOM     27  H   UNL     1       5.385  -7.507  27.435  0.00  0.00    +0.295 HD
ENDBRANCH  24  26
ENDBRANCH  23  24
ENDBRANCH  22  23
ENDBRANCH  20  22
ENDBRANCH   2  18
TORSDOF 6
ENDMDL
MODEL 4
REMARK VINA RESULT:      -6.6      2.317      4.323
REMARK  Name = 
REMARK  8 active torsions:
REMARK  status: ('A' for Active; 'I' for Inactive)
REMARK    1  A    between atoms: C_2  and  C_3
REMARK    2  A    between atoms: C_7  and  C_9
REMARK    3  A    between atoms: C_11  and  C_13
REMARK    4  A    between atoms: C_19  and  N_20
REMARK    5  A    between atoms: C_21  and  C_23
REMARK    6  A    between atoms: C_23  and  C_24
REMARK    7  A    between atoms: C_24  and  C_25
REMARK    8  A    between atoms: C_25  and  O_26
REMARK                            x       y       z     vdW  Elec       q    Type
REMARK                         _______ _______ _______ _____ _____    ______ ____
ROOT
ATOM      1  C   UNL     1       7.347   3.228  22.763  0.00  0.00    +0.059 A 
ATOM      2  C   UNL     1       7.771   4.577  22.903  0.00  0.00    +0.046 A 
ATOM      3  C   UNL     1       6.756   5.553  22.917  0.00  0.00    +0.025 A 
ATOM      4  C   UNL     1       5.405   5.196  22.809  0.00  0.00    +0.017 A 
ATOM      5  C   UNL     1       5.024   3.859  22.805  0.00  0.00    +0.019 A 
ATOM      6 BR   UNL     1       3.222   3.372  22.531  0.00  0.00    -0.050 Br
ATOM      7  C   UNL     1       5.986   2.868  22.890  0.00  0.00    +0.030 A 
ENDROOT
BRANCH   1  15
ATOM      8  C   UNL     1       9.547  -0.892  23.343  0.00  0.00    +0.004 C 
ATOM      9  C   UNL     1       8.382  -1.377  22.479  0.00  0.00    +0.009 C 
ATOM     10  C   UNL     1       9.262  -0.947  24.860  0.00  0.00    +0.009 C 
ATOM     11  C   UNL     1       8.855   0.352  25.582  0.00  0.00    +0.004 C 
ATOM     12  C   UNL     1       7.473   0.282  26.257  0.00  0.00    +0.009 C 
ATOM     13  C   UNL     1       9.018   1.651  24.784  0.00  0.00    +0.111 C 
ATOM     14  N   UNL     1       9.057   1.496  23.323  0.00  0.00    -0.297 N 
ATOM     15  C   UNL     1       8.298   2.172  22.349  0.00  0.00    +0.248 C 
ATOM     16  O   UNL     1       8.334   1.902  21.145  0.00  0.00    -0.270 OA
ATOM     17  C   UNL     1      10.007   0.492  22.888  0.00  0.00    +0.111 C 
ENDBRANCH   1  15
BRANCH   2  18
ATOM     18  N   UNL     1       9.159   4.912  23.073  0.00  0.00    -0.285 N 
ATOM     19  H   UNL     1       9.805   4.211  22.700  0.00  0.00    +0.155 HD
ATOM     20  C   UNL     1       9.681   6.035  23.684  0.00  0.00    +0.218 C 
ATOM     21  O   UNL     1       9.051   7.067  23.938  0.00  0.00    -0.275 OA
BRANCH  20  22
ATOM     22  C   UNL     1      11.164   6.016  24.047  0.00  0.00    +0.107 C 
BRANCH  22  23
ATOM     23  C   UNL     1      11.972   4.879  23.423  0.00  0.00    +0.129 C 
BRANCH  23  24
ATOM     24  C   UNL     1      13.227   5.192  22.633  0.00  0.00    +0.305 C 
ATOM     25  O   UNL     1      13.185   5.672  21.510  0.00  0.00    -0.251 OA
BRANCH  24  26
ATOM     26  O   UNL     1      14.405   5.027  23.271  0.00  0.00    -0.481 OA
ATOM     27  H   UNL     1      14.487   4.263  23.881  0.00  0.00    +0.295 HD
ENDBRANCH  24  26
ENDBRANCH  23  24
ENDBRANCH  22  23
ENDBRANCH  20  22
ENDBRANCH   2  18
TORSDOF 6
ENDMDL
MODEL 5
REMARK VINA RESULT:      -6.5      4.099      6.523
REMARK  Name = 
REMARK  8 active torsions:
REMARK  status: ('A' for Active; 'I' for Inactive)
REMARK    1  A    between atoms: C_2  and  C_3
REMARK    2  A    between atoms: C_7  and  C_9
REMARK    3  A    between atoms: C_11  and  C_13
REMARK    4  A    between atoms: C_19  and  N_20
REMARK    5  A    between atoms: C_21  and  C_23
REMARK    6  A    between atoms: C_23  and  C_24
REMARK    7  A    between atoms: C_24  and  C_25
REMARK    8  A    between atoms: C_25  and  O_26
REMARK                            x       y       z     vdW  Elec       q    Type
REMARK                         _______ _______ _______ _____ _____    ______ ____
ROOT
ATOM      1  C   UNL     1       9.376   0.515  24.347  0.00  0.00    +0.059 A 
ATOM      2  C   UNL     1       9.003  -0.058  23.101  0.00  0.00    +0.046 A 
ATOM      3  C   UNL     1       9.361   0.665  21.947  0.00  0.00    +0.025 A 
ATOM      4  C   UNL     1      10.058   1.878  22.039  0.00  0.00    +0.017 A 
ATOM      5  C   UNL     1      10.519   2.340  23.267  0.00  0.00    +0.019 A 
ATOM      6 BR   UNL     1      11.342   4.031  23.414  0.00  0.00    -0.050 Br
ATOM      7  C   UNL     1      10.272   1.607  24.415  0.00  0.00    +0.030 A 
ENDROOT
BRANCH   1  15
ATOM      8  C   UNL     1       5.686   0.039  27.228  0.00  0.00    +0.004 C 
ATOM      9  C   UNL     1       5.600  -1.316  26.524  0.00  0.00    +0.009 C 
ATOM     10  C   UNL     1       4.871   1.154  26.535  0.00  0.00    +0.009 C 
ATOM     11  C   UNL     1       5.612   2.154  25.627  0.00  0.00    +0.004 C 
ATOM     12  C   UNL     1       5.113   2.159  24.170  0.00  0.00    +0.009 C 
ATOM     13  C   UNL     1       7.145   2.120  25.690  0.00  0.00    +0.111 C 
ATOM     14  N   UNL     1       7.730   0.869  26.191  0.00  0.00    -0.297 N 
ATOM     15  C   UNL     1       8.737   0.076  25.607  0.00  0.00    +0.248 C 
ATOM     16  O   UNL     1       9.096  -1.014  26.059  0.00  0.00    -0.270 OA
ATOM     17  C   UNL     1       7.145   0.434  27.444  0.00  0.00    +0.111 C 
ENDBRANCH   1  15
BRANCH   2  18
ATOM     18  N   UNL     1       8.343  -1.334  23.031  0.00  0.00    -0.285 N 
ATOM     19  H   UNL     1       7.333  -1.271  22.874  0.00  0.00    +0.155 HD
ATOM     20  C   UNL     1       8.915  -2.582  23.167  0.00  0.00    +0.218 C 
ATOM     21  O   UNL     1      10.125  -2.824  23.096  0.00  0.00    -0.275 OA
BRANCH  20  22
ATOM     22  C   UNL     1       7.980  -3.767  23.394  0.00  0.00    +0.107 C 
BRANCH  22  23
ATOM     23  C   UNL     1       7.872  -4.243  24.842  0.00  0.00    +0.129 C 
BRANCH  23  24
ATOM     24  C   UNL     1       9.113  -4.721  25.572  0.00  0.00    +0.305 C 
ATOM     25  O   UNL     1       9.252  -4.580  26.777  0.00  0.00    -0.251 OA
BRANCH  24  26
ATOM     26  O   UNL     1      10.013  -5.418  24.848  0.00  0.00    -0.481 OA
ATOM     27  H   UNL     1      10.963  -5.220  24.992  0.00  0.00    +0.295 HD
ENDBRANCH  24  26
ENDBRANCH  23  24
ENDBRANCH  22  23
ENDBRANCH  20  22
ENDBRANCH   2  18
TORSDOF 6
ENDMDL
MODEL 6
REMARK VINA RESULT:      -6.4      4.515      7.625
REMARK  Name = 
REMARK  8 active torsions:
REMARK  status: ('A' for Active; 'I' for Inactive)
REMARK    1  A    between atoms: C_2  and  C_3
REMARK    2  A    between atoms: C_7  and  C_9
REMARK    3  A    between atoms: C_11  and  C_13
REMARK    4  A    between atoms: C_19  and  N_20
REMARK    5  A    between atoms: C_21  and  C_23
REMARK    6  A    between atoms: C_23  and  C_24
REMARK    7  A    between atoms: C_24  and  C_25
REMARK    8  A    between atoms: C_25  and  O_26
REMARK                            x       y       z     vdW  Elec       q    Type
REMARK                         _______ _______ _______ _____ _____    ______ ____
ROOT
ATOM      1  C   UNL     1       6.644  -0.658  25.744  0.00  0.00    +0.059 A 
ATOM      2  C   UNL     1       5.777  -1.709  26.149  0.00  0.00    +0.046 A 
ATOM      3  C   UNL     1       4.572  -1.323  26.767  0.00  0.00    +0.025 A 
ATOM      4  C   UNL     1       4.254   0.029  26.955  0.00  0.00    +0.017 A 
ATOM      5  C   UNL     1       5.067   1.028  26.429  0.00  0.00    +0.019 A 
ATOM      6 BR   UNL     1       4.714   2.846  26.790  0.00  0.00    -0.050 Br
ATOM      7  C   UNL     1       6.211   0.688  25.729  0.00  0.00    +0.030 A 
ENDROOT
BRANCH   1  15
ATOM      8  C   UNL     1      10.630   0.058  23.348  0.00  0.00    +0.004 C 
ATOM      9  C   UNL     1      10.878   1.035  24.498  0.00  0.00    +0.009 C 
ATOM     10  C   UNL     1       9.909   0.691  22.137  0.00  0.00    +0.009 C 
ATOM     11  C   UNL     1       8.393   0.464  21.980  0.00  0.00    +0.004 C 
ATOM     12  C   UNL     1       7.566   1.763  21.977  0.00  0.00    +0.009 C 
ATOM     13  C   UNL     1       7.767  -0.592  22.899  0.00  0.00    +0.111 C 
ATOM     14  N   UNL     1       8.525  -0.898  24.120  0.00  0.00    -0.297 N 
ATOM     15  C   UNL     1       8.071  -0.920  25.452  0.00  0.00    +0.248 C 
ATOM     16  O   UNL     1       8.811  -1.096  26.424  0.00  0.00    -0.270 OA
ATOM     17  C   UNL     1       9.920  -1.194  23.858  0.00  0.00    +0.111 C 
ENDBRANCH   1  15
BRANCH   2  18
ATOM     18  N   UNL     1       6.098  -3.086  25.889  0.00  0.00    -0.285 N 
ATOM     19  H   UNL     1       6.434  -3.597  26.710  0.00  0.00    +0.155 HD
ATOM     20  C   UNL     1       6.016  -3.753  24.683  0.00  0.00    +0.218 C 
ATOM     21  O   UNL     1       5.394  -3.357  23.690  0.00  0.00    -0.275 OA
BRANCH  20  22
ATOM     22  C   UNL     1       6.722  -5.102  24.572  0.00  0.00    +0.107 C 
BRANCH  22  23
ATOM     23  C   UNL     1       8.229  -5.028  24.325  0.00  0.00    +0.129 C 
BRANCH  23  24
ATOM     24  C   UNL     1       9.183  -4.963  25.502  0.00  0.00    +0.305 C 
ATOM     25  O   UNL     1       8.881  -4.418  26.553  0.00  0.00    -0.251 OA
BRANCH  24  26
ATOM     26  O   UNL     1      10.345  -5.638  25.380  0.00  0.00    -0.481 OA
ATOM     27  H   UNL     1      11.057  -5.435  26.023  0.00  0.00    +0.295 HD
ENDBRANCH  24  26
ENDBRANCH  23  24
ENDBRANCH  22  23
ENDBRANCH  20  22
ENDBRANCH   2  18
TORSDOF 6
ENDMDL
MODEL 7
REMARK VINA RESULT:      -6.3      4.866      7.995
REMARK  Name = 
REMARK  8 active torsions:
REMARK  status: ('A' for Active; 'I' for Inactive)
REMARK    1  A    between atoms: C_2  and  C_3
REMARK    2  A    between atoms: C_7  and  C_9
REMARK    3  A    between atoms: C_11  and  C_13
REMARK    4  A    between atoms: C_19  and  N_20
REMARK    5  A    between atoms: C_21  and  C_23
REMARK    6  A    between atoms: C_23  and  C_24
REMARK    7  A    between atoms: C_24  and  C_25
REMARK    8  A    between atoms: C_25  and  O_26
REMARK                            x       y       z     vdW  Elec       q    Type
REMARK                         _______ _______ _______ _____ _____    ______ ____
ROOT
ATOM      1  C   UNL     1       7.093  -1.440  24.563  0.00  0.00    +0.059 A 
ATOM      2  C   UNL     1       6.480  -2.711  24.394  0.00  0.00    +0.046 A 
ATOM      3  C   UNL     1       5.560  -3.098  25.387  0.00  0.00    +0.025 A 
ATOM      4  C   UNL     1       5.267  -2.260  26.471  0.00  0.00    +0.017 A 
ATOM      5  C   UNL     1       5.788  -0.972  26.532  0.00  0.00    +0.019 A 
ATOM      6 BR   UNL     1       5.503   0.112  28.049  0.00  0.00    -0.050 Br
ATOM      7  C   UNL     1       6.620  -0.517  25.524  0.00  0.00    +0.030 A 
ENDROOT
BRANCH   1  15
ATOM      8  C   UNL     1       9.996   1.605  22.453  0.00  0.00    +0.004 C 
ATOM      9  C   UNL     1      10.623   1.623  23.848  0.00  0.00    +0.009 C 
ATOM     10  C   UNL     1       8.896   2.670  22.250  0.00  0.00    +0.009 C 
ATOM     11  C   UNL     1       7.421   2.238  22.360  0.00  0.00    +0.004 C 
ATOM     12  C   UNL     1       6.638   2.974  23.463  0.00  0.00    +0.009 C 
ATOM     13  C   UNL     1       7.159   0.727  22.405  0.00  0.00    +0.111 C 
ATOM     14  N   UNL     1       8.295  -0.100  22.832  0.00  0.00    -0.297 N 
ATOM     15  C   UNL     1       8.332  -1.091  23.832  0.00  0.00    +0.248 C 
ATOM     16  O   UNL     1       9.364  -1.668  24.185  0.00  0.00    -0.270 OA
ATOM     17  C   UNL     1       9.514   0.197  22.106  0.00  0.00    +0.111 C 
ENDBRANCH   1  15
BRANCH   2  18
ATOM     18  N   UNL     1       6.751  -3.526  23.241  0.00  0.00    -0.285 N 
ATOM     19  H   UNL     1       6.352  -3.162  22.371  0.00  0.00    +0.155 HD
ATOM     20  C   UNL     1       7.456  -4.713  23.200  0.00  0.00    +0.218 C 
ATOM     21  O   UNL     1       8.203  -5.130  24.092  0.00  0.00    -0.275 OA
BRANCH  20  22
ATOM     22  C   UNL     1       7.328  -5.566  21.941  0.00  0.00    +0.107 C 
BRANCH  22  23
ATOM     23  C   UNL     1       5.908  -6.017  21.602  0.00  0.00    +0.129 C 
BRANCH  23  24
ATOM     24  C   UNL     1       4.842  -6.023  22.681  0.00  0.00    +0.305 C 
ATOM     25  O   UNL     1       4.015  -5.129  22.782  0.00  0.00    -0.251 OA
BRANCH  24  26
ATOM     26  O   UNL     1       4.771  -7.123  23.459  0.00  0.00    -0.481 OA
ATOM     27  H   UNL     1       5.086  -7.970  23.077  0.00  0.00    +0.295 HD
ENDBRANCH  24  26
ENDBRANCH  23  24
ENDBRANCH  22  23
ENDBRANCH  20  22
ENDBRANCH   2  18
TORSDOF 6
ENDMDL
MODEL 8
REMARK VINA RESULT:      -6.3      3.409      5.724
REMARK  Name = 
REMARK  8 active torsions:
REMARK  status: ('A' for Active; 'I' for Inactive)
REMARK    1  A    between atoms: C_2  and  C_3
REMARK    2  A    between atoms: C_7  and  C_9
REMARK    3  A    between atoms: C_11  and  C_13
REMARK    4  A    between atoms: C_19  and  N_20
REMARK    5  A    between atoms: C_21  and  C_23
REMARK    6  A    between atoms: C_23  and  C_24
REMARK    7  A    between atoms: C_24  and  C_25
REMARK    8  A    between atoms: C_25  and  O_26
REMARK                            x       y       z     vdW  Elec       q    Type
REMARK                         _______ _______ _______ _____ _____    ______ ____
ROOT
ATOM      1  C   UNL     1       7.009  -0.554  25.539  0.00  0.00    +0.059 A 
ATOM      2  C   UNL     1       7.542   0.692  25.966  0.00  0.00    +0.046 A 
ATOM      3  C   UNL     1       7.014   1.221  27.160  0.00  0.00    +0.025 A 
ATOM      4  C   UNL     1       6.026   0.538  27.881  0.00  0.00    +0.017 A 
ATOM      5  C   UNL     1       5.625  -0.738  27.500  0.00  0.00    +0.019 A 
ATOM      6 BR   UNL     1       4.206  -1.607  28.389  0.00  0.00    -0.050 Br
ATOM      7  C   UNL     1       6.191  -1.334  26.388  0.00  0.00    +0.030 A 
ENDROOT
BRANCH   1  15
ATOM      8  C   UNL     1       7.251  -3.890  22.228  0.00  0.00    +0.004 C 
ATOM      9  C   UNL     1       5.765  -3.554  22.103  0.00  0.00    +0.009 C 
ATOM     10  C   UNL     1       7.552  -5.017  23.241  0.00  0.00    +0.009 C 
ATOM     11  C   UNL     1       8.044  -4.632  24.649  0.00  0.00    +0.004 C 
ATOM     12  C   UNL     1       7.124  -5.118  25.785  0.00  0.00    +0.009 C 
ATOM     13  C   UNL     1       8.446  -3.165  24.849  0.00  0.00    +0.111 C 
ATOM     14  N   UNL     1       7.873  -2.215  23.886  0.00  0.00    -0.297 N 
ATOM     15  C   UNL     1       7.182  -1.015  24.143  0.00  0.00    +0.248 C 
ATOM     16  O   UNL     1       6.653  -0.330  23.265  0.00  0.00    -0.270 OA
ATOM     17  C   UNL     1       8.060  -2.625  22.509  0.00  0.00    +0.111 C 
ENDBRANCH   1  15
BRANCH   2  18
ATOM     18  N   UNL     1       8.600   1.343  25.241  0.00  0.00    -0.285 N 
ATOM     19  H   UNL     1       9.520   0.916  25.376  0.00  0.00    +0.155 HD
ATOM     20  C   UNL     1       8.498   2.454  24.427  0.00  0.00    +0.218 C 
ATOM     21  O   UNL     1       7.444   2.907  23.968  0.00  0.00    -0.275 OA
BRANCH  20  22
ATOM     22  C   UNL     1       9.792   3.164  24.038  0.00  0.00    +0.107 C 
BRANCH  22  23
ATOM     23  C   UNL     1      10.533   2.559  22.846  0.00  0.00    +0.129 C 
BRANCH  23  24
ATOM     24  C   UNL     1       9.963   1.341  22.145  0.00  0.00    +0.305 C 
ATOM     25  O   UNL     1      10.165   0.205  22.547  0.00  0.00    -0.251 OA
BRANCH  24  26
ATOM     26  O   UNL     1       9.120   1.571  21.117  0.00  0.00    -0.481 OA
ATOM     27  H   UNL     1       8.630   2.421  21.113  0.00  0.00    +0.295 HD
ENDBRANCH  24  26
ENDBRANCH  23  24
ENDBRANCH  22  23
ENDBRANCH  20  22
ENDBRANCH   2  18
TORSDOF 6
ENDMDL
MODEL 9
REMARK VINA RESULT:      -6.3      3.962      6.666
REMARK  Name = 
REMARK  8 active torsions:
REMARK  status: ('A' for Active; 'I' for Inactive)
REMARK    1  A    between atoms: C_2  and  C_3
REMARK    2  A    between atoms: C_7  and  C_9
REMARK    3  A    between atoms: C_11  and  C_13
REMARK    4  A    between atoms: C_19  and  N_20
REMARK    5  A    between atoms: C_21  and  C_23
REMARK    6  A    between atoms: C_23  and  C_24
REMARK    7  A    between atoms: C_24  and  C_25
REMARK    8  A    between atoms: C_25  and  O_26
REMARK                            x       y       z     vdW  Elec       q    Type
REMARK                         _______ _______ _______ _____ _____    ______ ____
ROOT
ATOM      1  C   UNL     1       9.350   0.474  24.421  0.00  0.00    +0.059 A 
ATOM      2  C   UNL     1       9.009  -0.161  23.196  0.00  0.00    +0.046 A 
ATOM      3  C   UNL     1       9.385   0.511  22.018  0.00  0.00    +0.025 A 
ATOM      4  C   UNL     1      10.068   1.734  22.066  0.00  0.00    +0.017 A 
ATOM      5  C   UNL     1      10.498   2.258  23.281  0.00  0.00    +0.019 A 
ATOM      6 BR   UNL     1      11.301   3.963  23.365  0.00  0.00    -0.050 Br
ATOM      7  C   UNL     1      10.234   1.577  24.457  0.00  0.00    +0.030 A 
ENDROOT
BRANCH   1  15
ATOM      8  C   UNL     1       5.616   0.146  27.267  0.00  0.00    +0.004 C 
ATOM      9  C   UNL     1       5.523  -1.232  26.610  0.00  0.00    +0.009 C 
ATOM     10  C   UNL     1       4.825   1.245  26.524  0.00  0.00    +0.009 C 
ATOM     11  C   UNL     1       5.591   2.203  25.591  0.00  0.00    +0.004 C 
ATOM     12  C   UNL     1       5.112   2.163  24.128  0.00  0.00    +0.009 C 
ATOM     13  C   UNL     1       7.122   2.153  25.676  0.00  0.00    +0.111 C 
ATOM     14  N   UNL     1       7.684   0.913  26.229  0.00  0.00    -0.297 N 
ATOM     15  C   UNL     1       8.689   0.088  25.687  0.00  0.00    +0.248 C 
ATOM     16  O   UNL     1       9.028  -0.990  26.182  0.00  0.00    -0.270 OA
ATOM     17  C   UNL     1       7.078   0.530  27.488  0.00  0.00    +0.111 C 
ENDBRANCH   1  15
BRANCH   2  18
ATOM     18  N   UNL     1       8.363  -1.446  23.173  0.00  0.00    -0.285 N 
ATOM     19  H   UNL     1       7.377  -1.410  22.899  0.00  0.00    +0.155 HD
ATOM     20  C   UNL     1       8.919  -2.669  23.489  0.00  0.00    +0.218 C 
ATOM     21  O   UNL     1      10.130  -2.901  23.577  0.00  0.00    -0.275 OA
BRANCH  20  22
ATOM     22  C   UNL     1       7.966  -3.839  23.720  0.00  0.00    +0.107 C 
BRANCH  22  23
ATOM     23  C   UNL     1       7.147  -4.261  22.500  0.00  0.00    +0.129 C 
BRANCH  23  24
ATOM     24  C   UNL     1       5.739  -3.727  22.318  0.00  0.00    +0.305 C 
ATOM     25  O   UNL     1       4.761  -4.460  22.320  0.00  0.00    -0.251 OA
BRANCH  24  26
ATOM     26  O   UNL     1       5.598  -2.386  22.270  0.00  0.00    -0.481 OA
ATOM     27  H   UNL     1       5.663  -1.892  23.115  0.00  0.00    +0.295 HD
ENDBRANCH  24  26
ENDBRANCH  23  24
ENDBRANCH  22  23
ENDBRANCH  20  22
ENDBRANCH   2  18
TORSDOF 6
ENDMDL
