MODEL 1
REMARK VINA RESULT:      -6.3      0.000      0.000
REMARK  Name = 
REMARK  5 active torsions:
REMARK  status: ('A' for Active; 'I' for Inactive)
REMARK    1  A    between atoms: C_2  and  C_3
REMARK    2  A    between atoms: N_13  and  C_14
REMARK    3  A    between atoms: C_14  and  C_15
REMARK    4  A    between atoms: C_16  and  C_17
REMARK    5  A    between atoms: C_16  and  C_18
REMARK                            x       y       z     vdW  Elec       q    Type
REMARK                         _______ _______ _______ _____ _____    ______ ____
ROOT
ATOM      1  C   UNL     1       6.993  -4.719  22.729  0.00  0.00    +0.074 C 
ATOM      2  C   UNL     1       7.156  -5.759  21.613  0.00  0.00    +0.026 C 
ATOM      3  N   UNL     1       6.935  -3.377  22.094  0.00  0.00    -0.290 NA
ATOM      4  C   UNL     1       8.251  -2.702  21.998  0.00  0.00    +0.123 C 
ATOM      5  C   UNL     1       8.716  -1.999  23.247  0.00  0.00    +0.010 A 
ATOM      6  C   UNL     1       9.204  -0.680  23.264  0.00  0.00    +0.047 A 
ATOM      7  C   UNL     1       9.409   0.017  24.480  0.00  0.00    +0.022 A 
ATOM      8  C   UNL     1       9.130  -0.578  25.714  0.00  0.00    +0.029 A 
ATOM      9  C   UNL     1       8.717  -1.889  25.681  0.00  0.00    +0.065 A 
ATOM     10  N   UNL     1       8.332  -2.718  26.730  0.00  0.00    -0.334 N 
ATOM     11  H   UNL     1       8.276  -2.467  27.705  0.00  0.00    +0.168 HD
ATOM     12  C   UNL     1       7.964  -3.970  26.206  0.00  0.00    +0.159 A 
ATOM     13  S   UNL     1       7.407  -5.224  27.131  0.00  0.00    -0.013 S 
ATOM     14  N   UNL     1       8.144  -3.898  24.813  0.00  0.00    -0.318 N 
ATOM     15 CL   UNL     1       9.560   0.181  21.806  0.00  0.00    -0.083 Cl
ATOM     16  C   UNL     1       8.569  -2.595  24.488  0.00  0.00    +0.073 A 
ATOM     17  C   UNL     1       8.069  -4.950  23.816  0.00  0.00    +0.143 C 
ENDROOT
BRANCH   3  18
ATOM     18  C   UNL     1       5.862  -2.572  22.707  0.00  0.00    +0.112 C 
BRANCH  18  19
ATOM     19  C   UNL     1       4.933  -3.326  23.617  0.00  0.00    -0.013 C 
ATOM     20  C   UNL     1       4.575  -2.998  24.876  0.00  0.00    -0.078 C 
ATOM     21  C   UNL     1       3.716  -3.922  25.698  0.00  0.00    +0.038 C 
ATOM     22  C   UNL     1       5.002  -1.755  25.613  0.00  0.00    +0.038 C 
ENDBRANCH  18  19
ENDBRANCH   3  18
TORSDOF 2
ENDMDL
MODEL 2
REMARK VINA RESULT:      -6.2      3.626      5.457
REMARK  Name = 
REMARK  5 active torsions:
REMARK  status: ('A' for Active; 'I' for Inactive)
REMARK    1  A    between atoms: C_2  and  C_3
REMARK    2  A    between atoms: N_13  and  C_14
REMARK    3  A    between atoms: C_14  and  C_15
REMARK    4  A    between atoms: C_16  and  C_17
REMARK    5  A    between atoms: C_16  and  C_18
REMARK                            x       y       z     vdW  Elec       q    Type
REMARK                         _______ _______ _______ _____ _____    ______ ____
ROOT
ATOM      1  C   UNL     1       7.004   1.667  25.929  0.00  0.00    +0.074 C 
ATOM      2  C   UNL     1       7.067   1.938  27.437  0.00  0.00    +0.026 C 
ATOM      3  N   UNL     1       7.032   0.195  25.731  0.00  0.00    -0.290 NA
ATOM      4  C   UNL     1       8.392  -0.355  25.519  0.00  0.00    +0.123 C 
ATOM      5  C   UNL     1       8.932  -0.239  24.118  0.00  0.00    +0.010 A 
ATOM      6  C   UNL     1       9.517  -1.309  23.416  0.00  0.00    +0.047 A 
ATOM      7  C   UNL     1       9.796  -1.220  22.030  0.00  0.00    +0.022 A 
ATOM      8  C   UNL     1       9.498  -0.064  21.302  0.00  0.00    +0.029 A 
ATOM      9  C   UNL     1       8.989   0.995  22.018  0.00  0.00    +0.065 A 
ATOM     10  N   UNL     1       8.564   2.240  21.565  0.00  0.00    -0.334 N 
ATOM     11  H   UNL     1       8.546   2.558  20.609  0.00  0.00    +0.168 HD
ATOM     12  C   UNL     1       8.095   2.984  22.663  0.00  0.00    +0.159 A 
ATOM     13  S   UNL     1       7.466   4.509  22.535  0.00  0.00    -0.013 S 
ATOM     14  N   UNL     1       8.252   2.174  23.801  0.00  0.00    -0.318 N 
ATOM     15 CL   UNL     1       9.907  -2.806  24.191  0.00  0.00    -0.083 Cl
ATOM     16  C   UNL     1       8.766   0.929  23.392  0.00  0.00    +0.073 A 
ATOM     17  C   UNL     1       8.080   2.508  25.204  0.00  0.00    +0.143 C 
ENDROOT
BRANCH   3  18
ATOM     18  C   UNL     1       6.033  -0.200  24.719  0.00  0.00    +0.112 C 
BRANCH  18  19
ATOM     19  C   UNL     1       5.514  -1.605  24.845  0.00  0.00    -0.013 C 
ATOM     20  C   UNL     1       5.554  -2.579  23.912  0.00  0.00    -0.078 C 
ATOM     21  C   UNL     1       4.889  -3.908  24.158  0.00  0.00    +0.038 C 
ATOM     22  C   UNL     1       6.190  -2.465  22.552  0.00  0.00    +0.038 C 
ENDBRANCH  18  19
ENDBRANCH   3  18
TORSDOF 2
ENDMDL
MODEL 3
REMARK VINA RESULT:      -6.1      2.788      4.524
REMARK  Name = 
REMARK  5 active torsions:
REMARK  status: ('A' for Active; 'I' for Inactive)
REMARK    1  A    between atoms: C_2  and  C_3
REMARK    2  A    between atoms: N_13  and  C_14
REMARK    3  A    between atoms: C_14  and  C_15
REMARK    4  A    between atoms: C_16  and  C_17
REMARK    5  A    between atoms: C_16  and  C_18
REMARK                            x       y       z     vdW  Elec       q    Type
REMARK                         _______ _______ _______ _____ _____    ______ ____
ROOT
ATOM      1  C   UNL     1       5.870  -4.961  21.883  0.00  0.00    +0.074 C 
ATOM      2  C   UNL     1       6.169  -5.729  20.589  0.00  0.00    +0.026 C 
ATOM      3  N   UNL     1       7.153  -4.411  22.391  0.00  0.00    -0.290 NA
ATOM      4  C   UNL     1       7.838  -5.291  23.366  0.00  0.00    +0.123 C 
ATOM      5  C   UNL     1       7.337  -5.209  24.785  0.00  0.00    +0.010 A 
ATOM      6  C   UNL     1       8.178  -5.057  25.902  0.00  0.00    +0.047 A 
ATOM      7  C   UNL     1       7.657  -4.750  27.183  0.00  0.00    +0.022 A 
ATOM      8  C   UNL     1       6.284  -4.584  27.388  0.00  0.00    +0.029 A 
ATOM      9  C   UNL     1       5.473  -4.802  26.300  0.00  0.00    +0.065 A 
ATOM     10  N   UNL     1       4.092  -4.672  26.191  0.00  0.00    -0.334 N 
ATOM     11  H   UNL     1       3.458  -4.368  26.913  0.00  0.00    +0.168 HD
ATOM     12  C   UNL     1       3.712  -4.977  24.872  0.00  0.00    +0.159 A 
ATOM     13  S   UNL     1       2.151  -4.901  24.326  0.00  0.00    -0.013 S 
ATOM     14  N   UNL     1       4.886  -5.310  24.175  0.00  0.00    -0.318 N 
ATOM     15 CL   UNL     1       9.897  -5.206  25.778  0.00  0.00    -0.083 Cl
ATOM     16  C   UNL     1       5.979  -5.158  25.051  0.00  0.00    +0.073 A 
ATOM     17  C   UNL     1       5.046  -5.855  22.839  0.00  0.00    +0.143 C 
ENDROOT
BRANCH   3  18
ATOM     18  C   UNL     1       6.968  -3.015  22.831  0.00  0.00    +0.112 C 
BRANCH  18  19
ATOM     19  C   UNL     1       7.865  -2.009  22.167  0.00  0.00    -0.013 C 
ATOM     20  C   UNL     1       9.114  -1.654  22.538  0.00  0.00    -0.078 C 
ATOM     21  C   UNL     1       9.842  -0.545  21.826  0.00  0.00    +0.038 C 
ATOM     22  C   UNL     1       9.891  -2.251  23.681  0.00  0.00    +0.038 C 
ENDBRANCH  18  19
ENDBRANCH   3  18
TORSDOF 2
ENDMDL
MODEL 4
REMARK VINA RESULT:      -6.0      2.810      4.776
REMARK  Name = 
REMARK  5 active torsions:
REMARK  status: ('A' for Active; 'I' for Inactive)
REMARK    1  A    between atoms: C_2  and  C_3
REMARK    2  A    between atoms: N_13  and  C_14
REMARK    3  A    between atoms: C_14  and  C_15
REMARK    4  A    between atoms: C_16  and  C_17
REMARK    5  A    between atoms: C_16  and  C_18
REMARK                            x       y       z     vdW  Elec       q    Type
REMARK                         _______ _______ _______ _____ _____    ______ ____
ROOT
ATOM      1  C   UNL     1       9.042   0.254  22.956  0.00  0.00    +0.074 C 
ATOM      2  C   UNL     1       9.770   0.908  21.775  0.00  0.00    +0.026 C 
ATOM      3  N   UNL     1       9.281  -1.210  22.882  0.00  0.00    -0.290 NA
ATOM      4  C   UNL     1       8.231  -1.953  22.146  0.00  0.00    +0.123 C 
ATOM      5  C   UNL     1       6.989  -2.280  22.935  0.00  0.00    +0.010 A 
ATOM      6  C   UNL     1       6.406  -3.559  22.977  0.00  0.00    +0.047 A 
ATOM      7  C   UNL     1       5.386  -3.876  23.908  0.00  0.00    +0.022 A 
ATOM      8  C   UNL     1       4.919  -2.930  24.825  0.00  0.00    +0.029 A 
ATOM      9  C   UNL     1       5.454  -1.667  24.725  0.00  0.00    +0.065 A 
ATOM     10  N   UNL     1       5.220  -0.547  25.516  0.00  0.00    -0.334 N 
ATOM     11  H   UNL     1       4.617  -0.495  26.322  0.00  0.00    +0.168 HD
ATOM     12  C   UNL     1       6.017   0.513  25.047  0.00  0.00    +0.159 A 
ATOM     13  S   UNL     1       6.055   2.012  25.747  0.00  0.00    -0.013 S 
ATOM     14  N   UNL     1       6.736   0.024  23.942  0.00  0.00    -0.318 N 
ATOM     15 CL   UNL     1       6.913  -4.829  21.918  0.00  0.00    -0.083 Cl
ATOM     16  C   UNL     1       6.417  -1.337  23.773  0.00  0.00    +0.073 A 
ATOM     17  C   UNL     1       7.574   0.738  22.996  0.00  0.00    +0.143 C 
ENDROOT
BRANCH   3  18
ATOM     18  C   UNL     1       9.602  -1.741  24.221  0.00  0.00    +0.112 C 
BRANCH  18  19
ATOM     19  C   UNL     1       9.701  -3.238  24.311  0.00  0.00    -0.013 C 
ATOM     20  C   UNL     1       9.170  -4.039  25.259  0.00  0.00    -0.078 C 
ATOM     21  C   UNL     1       9.455  -5.518  25.265  0.00  0.00    +0.038 C 
ATOM     22  C   UNL     1       8.307  -3.585  26.407  0.00  0.00    +0.038 C 
ENDBRANCH  18  19
ENDBRANCH   3  18
TORSDOF 2
ENDMDL
MODEL 5
REMARK VINA RESULT:      -5.9      1.908      2.793
REMARK  Name = 
REMARK  5 active torsions:
REMARK  status: ('A' for Active; 'I' for Inactive)
REMARK    1  A    between atoms: C_2  and  C_3
REMARK    2  A    between atoms: N_13  and  C_14
REMARK    3  A    between atoms: C_14  and  C_15
REMARK    4  A    between atoms: C_16  and  C_17
REMARK    5  A    between atoms: C_16  and  C_18
REMARK                            x       y       z     vdW  Elec       q    Type
REMARK                         _______ _______ _______ _____ _____    ______ ____
ROOT
ATOM      1  C   UNL     1       8.610  -4.282  25.159  0.00  0.00    +0.074 C 
ATOM      2  C   UNL     1       9.819  -5.071  25.676  0.00  0.00    +0.026 C 
ATOM      3  N   UNL     1       8.921  -3.827  23.780  0.00  0.00    -0.290 NA
ATOM      4  C   UNL     1       9.517  -2.471  23.716  0.00  0.00    +0.123 C 
ATOM      5  C   UNL     1       8.541  -1.325  23.785  0.00  0.00    +0.010 A 
ATOM      6  C   UNL     1       8.548  -0.240  22.891  0.00  0.00    +0.047 A 
ATOM      7  C   UNL     1       7.478   0.688  22.846  0.00  0.00    +0.022 A 
ATOM      8  C   UNL     1       6.370   0.560  23.688  0.00  0.00    +0.029 A 
ATOM      9  C   UNL     1       6.412  -0.468  24.602  0.00  0.00    +0.065 A 
ATOM     10  N   UNL     1       5.451  -0.863  25.526  0.00  0.00    -0.334 N 
ATOM     11  H   UNL     1       4.539  -0.454  25.659  0.00  0.00    +0.168 HD
ATOM     12  C   UNL     1       5.931  -1.985  26.226  0.00  0.00    +0.159 A 
ATOM     13  S   UNL     1       5.064  -2.780  27.390  0.00  0.00    -0.013 S 
ATOM     14  N   UNL     1       7.213  -2.263  25.720  0.00  0.00    -0.318 N 
ATOM     15 CL   UNL     1       9.844   0.015  21.774  0.00  0.00    -0.083 Cl
ATOM     16  C   UNL     1       7.489  -1.348  24.685  0.00  0.00    +0.073 A 
ATOM     17  C   UNL     1       8.209  -3.206  26.195  0.00  0.00    +0.143 C 
ENDROOT
BRANCH   3  18
ATOM     18  C   UNL     1       7.756  -4.040  22.900  0.00  0.00    +0.112 C 
BRANCH  18  19
ATOM     19  C   UNL     1       6.868  -5.193  23.278  0.00  0.00    -0.013 C 
ATOM     20  C   UNL     1       5.539  -5.161  23.506  0.00  0.00    -0.078 C 
ATOM     21  C   UNL     1       4.811  -6.390  23.985  0.00  0.00    +0.038 C 
ATOM     22  C   UNL     1       4.654  -3.950  23.370  0.00  0.00    +0.038 C 
ENDBRANCH  18  19
ENDBRANCH   3  18
TORSDOF 2
ENDMDL
MODEL 6
REMARK VINA RESULT:      -5.8      3.003      4.527
REMARK  Name = 
REMARK  5 active torsions:
REMARK  status: ('A' for Active; 'I' for Inactive)
REMARK    1  A    between atoms: C_2  and  C_3
REMARK    2  A    between atoms: N_13  and  C_14
REMARK    3  A    between atoms: C_14  and  C_15
REMARK    4  A    between atoms: C_16  and  C_17
REMARK    5  A    between atoms: C_16  and  C_18
REMARK                            x       y       z     vdW  Elec       q    Type
REMARK                         _______ _______ _______ _____ _____    ______ ____
ROOT
ATOM      1  C   UNL     1       6.103  -0.426  24.658  0.00  0.00    +0.074 C 
ATOM      2  C   UNL     1       5.310   0.718  25.301  0.00  0.00    +0.026 C 
ATOM      3  N   UNL     1       5.471  -1.705  25.073  0.00  0.00    -0.290 NA
ATOM      4  C   UNL     1       6.071  -2.305  26.288  0.00  0.00    +0.123 C 
ATOM      5  C   UNL     1       7.334  -3.096  26.069  0.00  0.00    +0.010 A 
ATOM      6  C   UNL     1       7.547  -4.385  26.589  0.00  0.00    +0.047 A 
ATOM      7  C   UNL     1       8.641  -5.181  26.168  0.00  0.00    +0.022 A 
ATOM      8  C   UNL     1       9.553  -4.717  25.215  0.00  0.00    +0.029 A 
ATOM      9  C   UNL     1       9.368  -3.430  24.768  0.00  0.00    +0.065 A 
ATOM     10  N   UNL     1      10.079  -2.722  23.806  0.00  0.00    -0.334 N 
ATOM     11  H   UNL     1      10.852  -3.063  23.256  0.00  0.00    +0.168 HD
ATOM     12  C   UNL     1       9.504  -1.446  23.666  0.00  0.00    +0.159 A 
ATOM     13  S   UNL     1      10.041  -0.311  22.588  0.00  0.00    -0.013 S 
ATOM     14  N   UNL     1       8.432  -1.380  24.574  0.00  0.00    -0.318 N 
ATOM     15 CL   UNL     1       6.476  -5.091  27.750  0.00  0.00    -0.083 Cl
ATOM     16  C   UNL     1       8.325  -2.625  25.223  0.00  0.00    +0.073 A 
ATOM     17  C   UNL     1       7.610  -0.245  24.952  0.00  0.00    +0.143 C 
ENDROOT
BRANCH   3  18
ATOM     18  C   UNL     1       5.358  -2.615  23.917  0.00  0.00    +0.112 C 
BRANCH  18  19
ATOM     19  C   UNL     1       4.683  -3.928  24.196  0.00  0.00    -0.013 C 
ATOM     20  C   UNL     1       5.114  -5.160  23.853  0.00  0.00    -0.078 C 
ATOM     21  C   UNL     1       4.262  -6.374  24.114  0.00  0.00    +0.038 C 
ATOM     22  C   UNL     1       6.412  -5.471  23.155  0.00  0.00    +0.038 C 
ENDBRANCH  18  19
ENDBRANCH   3  18
TORSDOF 2
ENDMDL
MODEL 7
REMARK VINA RESULT:      -5.6      2.157      3.910
REMARK  Name = 
REMARK  5 active torsions:
REMARK  status: ('A' for Active; 'I' for Inactive)
REMARK    1  A    between atoms: C_2  and  C_3
REMARK    2  A    between atoms: N_13  and  C_14
REMARK    3  A    between atoms: C_14  and  C_15
REMARK    4  A    between atoms: C_16  and  C_17
REMARK    5  A    between atoms: C_16  and  C_18
REMARK                            x       y       z     vdW  Elec       q    Type
REMARK                         _______ _______ _______ _____ _____    ______ ____
ROOT
ATOM      1  C   UNL     1       3.949  -3.503  25.895  0.00  0.00    +0.074 C 
ATOM      2  C   UNL     1       2.569  -3.478  25.227  0.00  0.00    +0.026 C 
ATOM      3  N   UNL     1       4.804  -2.502  25.208  0.00  0.00    -0.290 NA
ATOM      4  C   UNL     1       5.608  -3.062  24.096  0.00  0.00    +0.123 C 
ATOM      5  C   UNL     1       6.885  -3.753  24.498  0.00  0.00    +0.010 A 
ATOM      6  C   UNL     1       8.131  -3.503  23.895  0.00  0.00    +0.047 A 
ATOM      7  C   UNL     1       9.335  -3.995  24.454  0.00  0.00    +0.022 A 
ATOM      8  C   UNL     1       9.335  -4.749  25.632  0.00  0.00    +0.029 A 
ATOM      9  C   UNL     1       8.103  -5.040  26.170  0.00  0.00    +0.065 A 
ATOM     10  N   UNL     1       7.793  -5.725  27.341  0.00  0.00    -0.334 N 
ATOM     11  H   UNL     1       8.448  -6.107  28.005  0.00  0.00    +0.168 HD
ATOM     12  C   UNL     1       6.395  -5.751  27.494  0.00  0.00    +0.159 A 
ATOM     13  S   UNL     1       5.627  -6.442  28.786  0.00  0.00    -0.013 S 
ATOM     14  N   UNL     1       5.852  -5.079  26.385  0.00  0.00    -0.318 N 
ATOM     15 CL   UNL     1       8.274  -2.558  22.453  0.00  0.00    -0.083 Cl
ATOM     16  C   UNL     1       6.913  -4.604  25.591  0.00  0.00    +0.073 A 
ATOM     17  C   UNL     1       4.467  -4.959  25.965  0.00  0.00    +0.143 C 
ENDROOT
BRANCH   3  18
ATOM     18  C   UNL     1       5.567  -1.719  26.199  0.00  0.00    +0.112 C 
BRANCH  18  19
ATOM     19  C   UNL     1       6.353  -0.567  25.640  0.00  0.00    -0.013 C 
ATOM     20  C   UNL     1       7.650  -0.273  25.870  0.00  0.00    -0.078 C 
ATOM     21  C   UNL     1       8.264   0.986  25.316  0.00  0.00    +0.038 C 
ATOM     22  C   UNL     1       8.599  -1.089  26.707  0.00  0.00    +0.038 C 
ENDBRANCH  18  19
ENDBRANCH   3  18
TORSDOF 2
ENDMDL
MODEL 8
REMARK VINA RESULT:      -5.5      3.373      5.401
REMARK  Name = 
REMARK  5 active torsions:
REMARK  status: ('A' for Active; 'I' for Inactive)
REMARK    1  A    between atoms: C_2  and  C_3
REMARK    2  A    between atoms: N_13  and  C_14
REMARK    3  A    between atoms: C_14  and  C_15
REMARK    4  A    between atoms: C_16  and  C_17
REMARK    5  A    between atoms: C_16  and  C_18
REMARK                            x       y       z     vdW  Elec       q    Type
REMARK                         _______ _______ _______ _____ _____    ______ ____
ROOT
ATOM      1  C   UNL     1       8.126  -3.407  24.326  0.00  0.00    +0.074 C 
ATOM      2  C   UNL     1       9.589  -2.971  24.469  0.00  0.00    +0.026 C 
ATOM      3  N   UNL     1       7.450  -3.160  25.626  0.00  0.00    -0.290 NA
ATOM      4  C   UNL     1       7.450  -4.331  26.534  0.00  0.00    +0.123 C 
ATOM      5  C   UNL     1       6.383  -5.361  26.270  0.00  0.00    +0.010 A 
ATOM      6  C   UNL     1       5.549  -5.894  27.269  0.00  0.00    +0.047 A 
ATOM      7  C   UNL     1       4.414  -6.677  26.945  0.00  0.00    +0.022 A 
ATOM      8  C   UNL     1       4.075  -6.950  25.616  0.00  0.00    +0.029 A 
ATOM      9  C   UNL     1       4.939  -6.477  24.656  0.00  0.00    +0.065 A 
ATOM     10  N   UNL     1       4.842  -6.555  23.270  0.00  0.00    -0.334 N 
ATOM     11  H   UNL     1       4.089  -6.966  22.742  0.00  0.00    +0.168 HD
ATOM     12  C   UNL     1       5.952  -5.903  22.703  0.00  0.00    +0.159 A 
ATOM     13  S   UNL     1       6.186  -5.743  21.072  0.00  0.00    -0.013 S 
ATOM     14  N   UNL     1       6.739  -5.434  23.769  0.00  0.00    -0.318 N 
ATOM     15 CL   UNL     1       5.839  -5.607  28.950  0.00  0.00    -0.083 Cl
ATOM     16  C   UNL     1       6.086  -5.754  24.975  0.00  0.00    +0.073 A 
ATOM     17  C   UNL     1       8.063  -4.841  23.749  0.00  0.00    +0.143 C 
ENDROOT
BRANCH   3  18
ATOM     18  C   UNL     1       6.130  -2.542  25.402  0.00  0.00    +0.112 C 
BRANCH  18  19
ATOM     19  C   UNL     1       6.122  -1.363  24.470  0.00  0.00    -0.013 C 
ATOM     20  C   UNL     1       6.556  -0.111  24.729  0.00  0.00    -0.078 C 
ATOM     21  C   UNL     1       6.378   0.990  23.717  0.00  0.00    +0.038 C 
ATOM     22  C   UNL     1       7.198   0.346  26.012  0.00  0.00    +0.038 C 
ENDBRANCH  18  19
ENDBRANCH   3  18
TORSDOF 2
ENDMDL
MODEL 9
REMARK VINA RESULT:      -5.5      3.280      5.229
REMARK  Name = 
REMARK  5 active torsions:
REMARK  status: ('A' for Active; 'I' for Inactive)
REMARK    1  A    between atoms: C_2  and  C_3
REMARK    2  A    between atoms: N_13  and  C_14
REMARK    3  A    between atoms: C_14  and  C_15
REMARK    4  A    between atoms: C_16  and  C_17
REMARK    5  A    between atoms: C_16  and  C_18
REMARK                            x       y       z     vdW  Elec       q    Type
REMARK                         _______ _______ _______ _____ _____    ______ ____
ROOT
ATOM      1  C   UNL     1       7.873  -3.111  24.301  0.00  0.00    +0.074 C 
ATOM      2  C   UNL     1       9.283  -2.529  24.461  0.00  0.00    +0.026 C 
ATOM      3  N   UNL     1       7.142  -2.886  25.575  0.00  0.00    -0.290 NA
ATOM      4  C   UNL     1       7.231  -4.018  26.526  0.00  0.00    +0.123 C 
ATOM      5  C   UNL     1       6.277  -5.157  26.277  0.00  0.00    +0.010 A 
ATOM      6  C   UNL     1       5.473  -5.734  27.275  0.00  0.00    +0.047 A 
ATOM      7  C   UNL     1       4.428  -6.636  26.954  0.00  0.00    +0.022 A 
ATOM      8  C   UNL     1       4.153  -6.988  25.629  0.00  0.00    +0.029 A 
ATOM      9  C   UNL     1       4.992  -6.466  24.672  0.00  0.00    +0.065 A 
ATOM     10  N   UNL     1       4.941  -6.602  23.289  0.00  0.00    -0.334 N 
ATOM     11  H   UNL     1       4.246  -7.104  22.759  0.00  0.00    +0.168 HD
ATOM     12  C   UNL     1       5.997  -5.864  22.723  0.00  0.00    +0.159 A 
ATOM     13  S   UNL     1       6.258  -5.740  21.094  0.00  0.00    -0.013 S 
ATOM     14  N   UNL     1       6.706  -5.283  23.789  0.00  0.00    -0.318 N 
ATOM     15 CL   UNL     1       5.688  -5.360  28.951  0.00  0.00    -0.083 Cl
ATOM     16  C   UNL     1       6.055  -5.623  24.991  0.00  0.00    +0.073 A 
ATOM     17  C   UNL     1       7.966  -4.563  23.777  0.00  0.00    +0.143 C 
ENDROOT
BRANCH   3  18
ATOM     18  C   UNL     1       5.774  -2.409  25.297  0.00  0.00    +0.112 C 
BRANCH  18  19
ATOM     19  C   UNL     1       4.951  -2.076  26.510  0.00  0.00    -0.013 C 
ATOM     20  C   UNL     1       3.685  -2.464  26.773  0.00  0.00    -0.078 C 
ATOM     21  C   UNL     1       2.961  -1.953  27.990  0.00  0.00    +0.038 C 
ATOM     22  C   UNL     1       2.850  -3.372  25.909  0.00  0.00    +0.038 C 
ENDBRANCH  18  19
ENDBRANCH   3  18
TORSDOF 2
ENDMDL
