MODEL 1
REMARK VINA RESULT:      -6.3      0.000      0.000
REMARK  Name = 
REMARK  4 active torsions:
REMARK  status: ('A' for Active; 'I' for Inactive)
REMARK    1  A    between atoms: C_5  and  C_8
REMARK    2  A    between atoms: N_10  and  C_11
REMARK    3  A    between atoms: C_11  and  C_12
REMARK    4  A    between atoms: C_12  and  N_13
REMARK                            x       y       z     vdW  Elec       q    Type
REMARK                         _______ _______ _______ _____ _____    ______ ____
ROOT
ATOM      1  C   UNL     1       9.358  -1.775  22.925  0.00  0.00    +0.244 C 
ATOM      2  N   UNL     1       8.019  -2.051  22.741  0.00  0.00    -0.310 N 
ATOM      3  H   UNL     1       7.370  -1.346  22.419  0.00  0.00    +0.149 HD
ATOM      4  O   UNL     1      10.196  -2.666  23.040  0.00  0.00    -0.270 OA
ENDROOT
BRANCH   1   9
ATOM      5 CL   UNL     1      11.059   3.977  23.411  0.00  0.00    -0.084 Cl
ATOM      6  C   UNL     1      10.579   2.334  23.249  0.00  0.00    +0.041 A 
ATOM      7  C   UNL     1      10.117   1.865  22.021  0.00  0.00    +0.021 A 
ATOM      8  C   UNL     1       9.716   0.529  21.883  0.00  0.00    +0.014 A 
ATOM      9  C   UNL     1       9.785  -0.344  22.978  0.00  0.00    +0.037 A 
ATOM     10  C   UNL     1      10.251   0.147  24.211  0.00  0.00    +0.014 A 
ATOM     11  C   UNL     1      10.646   1.482  24.347  0.00  0.00    +0.021 A 
ENDBRANCH   1   9
BRANCH   2  12
ATOM     12  C   UNL     1       7.580  -3.428  22.634  0.00  0.00    +0.120 C 
BRANCH  12  13
ATOM     13  C   UNL     1       6.785  -3.898  23.863  0.00  0.00    +0.103 C 
BRANCH  13  14
ATOM     14  N   UNL     1       7.209  -5.205  24.413  0.00  0.00    -0.297 NA
ATOM     15  C   UNL     1       6.425  -5.537  25.632  0.00  0.00    +0.112 C 
ATOM     16  C   UNL     1       6.783  -4.677  26.861  0.00  0.00    +0.175 C 
ATOM     17  O   UNL     1       8.181  -4.752  27.164  0.00  0.00    -0.377 OA
ATOM     18  C   UNL     1       8.977  -4.375  26.033  0.00  0.00    +0.175 C 
ATOM     19  C   UNL     1       8.642  -5.235  24.801  0.00  0.00    +0.112 C 
ENDBRANCH  13  14
ENDBRANCH  12  13
ENDBRANCH   2  12
TORSDOF 4
ENDMDL
MODEL 2
REMARK VINA RESULT:      -6.2      2.003      2.717
REMARK  Name = 
REMARK  4 active torsions:
REMARK  status: ('A' for Active; 'I' for Inactive)
REMARK    1  A    between atoms: C_5  and  C_8
REMARK    2  A    between atoms: N_10  and  C_11
REMARK    3  A    between atoms: C_11  and  C_12
REMARK    4  A    between atoms: C_12  and  N_13
REMARK                            x       y       z     vdW  Elec       q    Type
REMARK                         _______ _______ _______ _____ _____    ______ ____
ROOT
ATOM      1  C   UNL     1       9.939  -1.635  23.435  0.00  0.00    +0.244 C 
ATOM      2  N   UNL     1       9.262  -2.290  24.442  0.00  0.00    -0.310 N 
ATOM      3  H   UNL     1       8.558  -1.826  25.001  0.00  0.00    +0.149 HD
ATOM      4  O   UNL     1      10.578  -2.242  22.579  0.00  0.00    -0.270 OA
ENDROOT
BRANCH   1   9
ATOM      5 CL   UNL     1       9.561   4.371  23.519  0.00  0.00    -0.084 Cl
ATOM      6  C   UNL     1       9.684   2.656  23.477  0.00  0.00    +0.041 A 
ATOM      7  C   UNL     1       9.968   2.011  22.274  0.00  0.00    +0.021 A 
ATOM      8  C   UNL     1      10.062   0.613  22.230  0.00  0.00    +0.014 A 
ATOM      9  C   UNL     1       9.878  -0.142  23.397  0.00  0.00    +0.037 A 
ATOM     10  C   UNL     1       9.589   0.525  24.601  0.00  0.00    +0.014 A 
ATOM     11  C   UNL     1       9.491   1.920  24.641  0.00  0.00    +0.021 A 
ENDBRANCH   1   9
BRANCH   2  12
ATOM     12  C   UNL     1       9.259  -3.740  24.478  0.00  0.00    +0.120 C 
BRANCH  12  13
ATOM     13  C   UNL     1       7.909  -4.344  24.056  0.00  0.00    +0.103 C 
BRANCH  13  14
ATOM     14  N   UNL     1       7.634  -4.293  22.603  0.00  0.00    -0.297 NA
ATOM     15  C   UNL     1       6.641  -3.231  22.297  0.00  0.00    +0.112 C 
ATOM     16  C   UNL     1       5.208  -3.559  22.760  0.00  0.00    +0.175 C 
ATOM     17  O   UNL     1       4.752  -4.802  22.214  0.00  0.00    -0.377 OA
ATOM     18  C   UNL     1       5.649  -5.872  22.542  0.00  0.00    +0.175 C 
ATOM     19  C   UNL     1       7.082  -5.566  22.072  0.00  0.00    +0.112 C 
ENDBRANCH  13  14
ENDBRANCH  12  13
ENDBRANCH   2  12
TORSDOF 4
ENDMDL
MODEL 3
REMARK VINA RESULT:      -6.1      0.568      1.269
REMARK  Name = 
REMARK  4 active torsions:
REMARK  status: ('A' for Active; 'I' for Inactive)
REMARK    1  A    between atoms: C_5  and  C_8
REMARK    2  A    between atoms: N_10  and  C_11
REMARK    3  A    between atoms: C_11  and  C_12
REMARK    4  A    between atoms: C_12  and  N_13
REMARK                            x       y       z     vdW  Elec       q    Type
REMARK                         _______ _______ _______ _____ _____    ______ ____
ROOT
ATOM      1  C   UNL     1       9.326  -2.121  23.341  0.00  0.00    +0.244 C 
ATOM      2  N   UNL     1       8.053  -2.397  22.889  0.00  0.00    -0.310 N 
ATOM      3  H   UNL     1       7.507  -1.713  22.383  0.00  0.00    +0.149 HD
ATOM      4  O   UNL     1      10.096  -3.009  23.701  0.00  0.00    -0.270 OA
ENDROOT
BRANCH   1   9
ATOM      5 CL   UNL     1      11.105   3.627  23.235  0.00  0.00    -0.084 Cl
ATOM      6  C   UNL     1      10.593   1.987  23.289  0.00  0.00    +0.041 A 
ATOM      7  C   UNL     1      10.749   1.250  24.461  0.00  0.00    +0.021 A 
ATOM      8  C   UNL     1      10.342  -0.090  24.510  0.00  0.00    +0.014 A 
ATOM      9  C   UNL     1       9.768  -0.693  23.383  0.00  0.00    +0.037 A 
ATOM     10  C   UNL     1       9.619   0.064  22.207  0.00  0.00    +0.014 A 
ATOM     11  C   UNL     1      10.031   1.400  22.159  0.00  0.00    +0.021 A 
ENDBRANCH   1   9
BRANCH   2  12
ATOM     12  C   UNL     1       7.611  -3.774  22.789  0.00  0.00    +0.120 C 
BRANCH  12  13
ATOM     13  C   UNL     1       6.609  -4.161  23.888  0.00  0.00    +0.103 C 
BRANCH  13  14
ATOM     14  N   UNL     1       6.964  -5.379  24.652  0.00  0.00    -0.297 NA
ATOM     15  C   UNL     1       5.944  -5.654  25.697  0.00  0.00    +0.112 C 
ATOM     16  C   UNL     1       5.972  -4.663  26.878  0.00  0.00    +0.175 C 
ATOM     17  O   UNL     1       7.268  -4.608  27.485  0.00  0.00    -0.377 OA
ATOM     18  C   UNL     1       8.278  -4.278  26.523  0.00  0.00    +0.175 C 
ATOM     19  C   UNL     1       8.273  -5.268  25.344  0.00  0.00    +0.112 C 
ENDBRANCH  13  14
ENDBRANCH  12  13
ENDBRANCH   2  12
TORSDOF 4
ENDMDL
MODEL 4
REMARK VINA RESULT:      -6.0      1.835      2.869
REMARK  Name = 
REMARK  4 active torsions:
REMARK  status: ('A' for Active; 'I' for Inactive)
REMARK    1  A    between atoms: C_5  and  C_8
REMARK    2  A    between atoms: N_10  and  C_11
REMARK    3  A    between atoms: C_11  and  C_12
REMARK    4  A    between atoms: C_12  and  N_13
REMARK                            x       y       z     vdW  Elec       q    Type
REMARK                         _______ _______ _______ _____ _____    ______ ____
ROOT
ATOM      1  C   UNL     1       9.567  -1.785  23.139  0.00  0.00    +0.244 C 
ATOM      2  N   UNL     1       9.435  -2.516  24.301  0.00  0.00    -0.310 N 
ATOM      3  H   UNL     1       9.316  -2.070  25.200  0.00  0.00    +0.149 HD
ATOM      4  O   UNL     1       9.433  -2.296  22.030  0.00  0.00    -0.270 OA
ENDROOT
BRANCH   1   9
ATOM      5 CL   UNL     1      10.859   4.090  23.323  0.00  0.00    -0.084 Cl
ATOM      6  C   UNL     1      10.483   2.413  23.293  0.00  0.00    +0.041 A 
ATOM      7  C   UNL     1      10.536   1.669  24.471  0.00  0.00    +0.021 A 
ATOM      8  C   UNL     1      10.239   0.299  24.453  0.00  0.00    +0.014 A 
ATOM      9  C   UNL     1       9.879  -0.327  23.251  0.00  0.00    +0.037 A 
ATOM     10  C   UNL     1       9.833   0.437  22.072  0.00  0.00    +0.014 A 
ATOM     11  C   UNL     1      10.135   1.803  22.092  0.00  0.00    +0.021 A 
ENDBRANCH   1   9
BRANCH   2  12
ATOM     12  C   UNL     1       9.084  -3.921  24.228  0.00  0.00    +0.120 C 
BRANCH  12  13
ATOM     13  C   UNL     1       7.604  -4.182  24.552  0.00  0.00    +0.103 C 
BRANCH  13  14
ATOM     14  N   UNL     1       6.969  -5.244  23.740  0.00  0.00    -0.297 NA
ATOM     15  C   UNL     1       7.108  -4.945  22.291  0.00  0.00    +0.112 C 
ATOM     16  C   UNL     1       6.232  -3.772  21.806  0.00  0.00    +0.175 C 
ATOM     17  O   UNL     1       4.850  -3.987  22.113  0.00  0.00    -0.377 OA
ATOM     18  C   UNL     1       4.661  -4.215  23.515  0.00  0.00    +0.175 C 
ATOM     19  C   UNL     1       5.516  -5.393  24.013  0.00  0.00    +0.112 C 
ENDBRANCH  13  14
ENDBRANCH  12  13
ENDBRANCH   2  12
TORSDOF 4
ENDMDL
MODEL 5
REMARK VINA RESULT:      -5.8      0.945      1.873
REMARK  Name = 
REMARK  4 active torsions:
REMARK  status: ('A' for Active; 'I' for Inactive)
REMARK    1  A    between atoms: C_5  and  C_8
REMARK    2  A    between atoms: N_10  and  C_11
REMARK    3  A    between atoms: C_11  and  C_12
REMARK    4  A    between atoms: C_12  and  N_13
REMARK                            x       y       z     vdW  Elec       q    Type
REMARK                         _______ _______ _______ _____ _____    ______ ____
ROOT
ATOM      1  C   UNL     1       9.472  -1.889  23.130  0.00  0.00    +0.244 C 
ATOM      2  N   UNL     1       8.129  -2.177  23.014  0.00  0.00    -0.310 N 
ATOM      3  H   UNL     1       7.450  -1.467  22.772  0.00  0.00    +0.149 HD
ATOM      4  O   UNL     1      10.328  -2.770  23.143  0.00  0.00    -0.270 OA
ENDROOT
BRANCH   1   9
ATOM      5 CL   UNL     1      11.115   3.899  23.290  0.00  0.00    -0.084 Cl
ATOM      6  C   UNL     1      10.642   2.246  23.268  0.00  0.00    +0.041 A 
ATOM      7  C   UNL     1      10.837   1.454  24.398  0.00  0.00    +0.021 A 
ATOM      8  C   UNL     1      10.463   0.104  24.385  0.00  0.00    +0.014 A 
ATOM      9  C   UNL     1       9.882  -0.455  23.237  0.00  0.00    +0.037 A 
ATOM     10  C   UNL     1       9.694   0.358  22.105  0.00  0.00    +0.014 A 
ATOM     11  C   UNL     1      10.074   1.704  22.119  0.00  0.00    +0.021 A 
ENDBRANCH   1   9
BRANCH   2  12
ATOM     12  C   UNL     1       7.702  -3.553  22.857  0.00  0.00    +0.120 C 
BRANCH  12  13
ATOM     13  C   UNL     1       7.179  -4.169  24.165  0.00  0.00    +0.103 C 
BRANCH  13  14
ATOM     14  N   UNL     1       7.382  -3.331  25.369  0.00  0.00    -0.297 NA
ATOM     15  C   UNL     1       8.443  -3.910  26.234  0.00  0.00    +0.112 C 
ATOM     16  C   UNL     1       8.025  -5.205  26.959  0.00  0.00    +0.175 C 
ATOM     17  O   UNL     1       6.837  -5.011  27.735  0.00  0.00    -0.377 OA
ATOM     18  C   UNL     1       5.764  -4.515  26.925  0.00  0.00    +0.175 C 
ATOM     19  C   UNL     1       6.160  -3.213  26.206  0.00  0.00    +0.112 C 
ENDBRANCH  13  14
ENDBRANCH  12  13
ENDBRANCH   2  12
TORSDOF 4
ENDMDL
MODEL 6
REMARK VINA RESULT:      -5.6      3.443      6.707
REMARK  Name = 
REMARK  4 active torsions:
REMARK  status: ('A' for Active; 'I' for Inactive)
REMARK    1  A    between atoms: C_5  and  C_8
REMARK    2  A    between atoms: N_10  and  C_11
REMARK    3  A    between atoms: C_11  and  C_12
REMARK    4  A    between atoms: C_12  and  N_13
REMARK                            x       y       z     vdW  Elec       q    Type
REMARK                         _______ _______ _______ _____ _____    ______ ____
ROOT
ATOM      1  C   UNL     1       8.950  -3.175  23.695  0.00  0.00    +0.244 C 
ATOM      2  N   UNL     1       8.470  -2.458  22.619  0.00  0.00    -0.310 N 
ATOM      3  H   UNL     1       7.482  -2.276  22.498  0.00  0.00    +0.149 HD
ATOM      4  O   UNL     1      10.138  -3.166  24.004  0.00  0.00    -0.270 OA
ENDROOT
BRANCH   1   9
ATOM      5 CL   UNL     1       5.252  -6.513  27.072  0.00  0.00    -0.084 Cl
ATOM      6  C   UNL     1       6.290  -5.548  26.099  0.00  0.00    +0.041 A 
ATOM      7  C   UNL     1       5.812  -4.997  24.911  0.00  0.00    +0.021 A 
ATOM      8  C   UNL     1       6.655  -4.216  24.108  0.00  0.00    +0.014 A 
ATOM      9  C   UNL     1       7.979  -3.978  24.500  0.00  0.00    +0.037 A 
ATOM     10  C   UNL     1       8.446  -4.542  25.701  0.00  0.00    +0.014 A 
ATOM     11  C   UNL     1       7.604  -5.325  26.498  0.00  0.00    +0.021 A 
ENDBRANCH   1   9
BRANCH   2  12
ATOM     12  C   UNL     1       9.376  -1.630  21.849  0.00  0.00    +0.120 C 
BRANCH  12  13
ATOM     13  C   UNL     1       9.016  -0.136  21.910  0.00  0.00    +0.103 C 
BRANCH  13  14
ATOM     14  N   UNL     1      10.112   0.748  22.367  0.00  0.00    -0.297 NA
ATOM     15  C   UNL     1      10.562   0.357  23.728  0.00  0.00    +0.112 C 
ATOM     16  C   UNL     1       9.554   0.696  24.844  0.00  0.00    +0.175 C 
ATOM     17  O   UNL     1       9.214   2.087  24.840  0.00  0.00    -0.377 OA
ATOM     18  C   UNL     1       8.711   2.494  23.561  0.00  0.00    +0.175 C 
ATOM     19  C   UNL     1       9.713   2.177  22.438  0.00  0.00    +0.112 C 
ENDBRANCH  13  14
ENDBRANCH  12  13
ENDBRANCH   2  12
TORSDOF 4
ENDMDL
MODEL 7
REMARK VINA RESULT:      -5.6      2.215      2.959
REMARK  Name = 
REMARK  4 active torsions:
REMARK  status: ('A' for Active; 'I' for Inactive)
REMARK    1  A    between atoms: C_5  and  C_8
REMARK    2  A    between atoms: N_10  and  C_11
REMARK    3  A    between atoms: C_11  and  C_12
REMARK    4  A    between atoms: C_12  and  N_13
REMARK                            x       y       z     vdW  Elec       q    Type
REMARK                         _______ _______ _______ _____ _____    ______ ____
ROOT
ATOM      1  C   UNL     1       9.070  -1.467  25.191  0.00  0.00    +0.244 C 
ATOM      2  N   UNL     1       9.411  -2.444  24.278  0.00  0.00    -0.310 N 
ATOM      3  H   UNL     1      10.038  -2.257  23.507  0.00  0.00    +0.149 HD
ATOM      4  O   UNL     1       8.549  -1.738  26.269  0.00  0.00    -0.270 OA
ENDROOT
BRANCH   1   9
ATOM      5 CL   UNL     1       9.953   4.319  23.792  0.00  0.00    -0.084 Cl
ATOM      6  C   UNL     1       9.724   2.664  24.195  0.00  0.00    +0.041 A 
ATOM      7  C   UNL     1      10.743   1.744  23.953  0.00  0.00    +0.021 A 
ATOM      8  C   UNL     1      10.561   0.391  24.270  0.00  0.00    +0.014 A 
ATOM      9  C   UNL     1       9.356  -0.042  24.841  0.00  0.00    +0.037 A 
ATOM     10  C   UNL     1       8.337   0.898  25.077  0.00  0.00    +0.014 A 
ATOM     11  C   UNL     1       8.520   2.247  24.754  0.00  0.00    +0.021 A 
ENDBRANCH   1   9
BRANCH   2  12
ATOM     12  C   UNL     1       9.194  -3.839  24.608  0.00  0.00    +0.120 C 
BRANCH  12  13
ATOM     13  C   UNL     1       8.027  -4.462  23.825  0.00  0.00    +0.103 C 
BRANCH  13  14
ATOM     14  N   UNL     1       6.698  -4.295  24.453  0.00  0.00    -0.297 NA
ATOM     15  C   UNL     1       5.863  -5.505  24.237  0.00  0.00    +0.112 C 
ATOM     16  C   UNL     1       5.376  -5.680  22.785  0.00  0.00    +0.175 C 
ATOM     17  O   UNL     1       4.661  -4.526  22.328  0.00  0.00    -0.377 OA
ATOM     18  C   UNL     1       5.457  -3.340  22.457  0.00  0.00    +0.175 C 
ATOM     19  C   UNL     1       5.938  -3.142  23.905  0.00  0.00    +0.112 C 
ENDBRANCH  13  14
ENDBRANCH  12  13
ENDBRANCH   2  12
TORSDOF 4
ENDMDL
MODEL 8
REMARK VINA RESULT:      -5.5      2.074      3.123
REMARK  Name = 
REMARK  4 active torsions:
REMARK  status: ('A' for Active; 'I' for Inactive)
REMARK    1  A    between atoms: C_5  and  C_8
REMARK    2  A    between atoms: N_10  and  C_11
REMARK    3  A    between atoms: C_11  and  C_12
REMARK    4  A    between atoms: C_12  and  N_13
REMARK                            x       y       z     vdW  Elec       q    Type
REMARK                         _______ _______ _______ _____ _____    ______ ____
ROOT
ATOM      1  C   UNL     1       9.377  -3.263  24.895  0.00  0.00    +0.244 C 
ATOM      2  N   UNL     1       8.471  -3.339  25.933  0.00  0.00    -0.310 N 
ATOM      3  H   UNL     1       7.779  -2.618  26.090  0.00  0.00    +0.149 HD
ATOM      4  O   UNL     1      10.024  -4.239  24.525  0.00  0.00    -0.270 OA
ENDROOT
BRANCH   1   9
ATOM      5 CL   UNL     1      10.188   1.901  21.913  0.00  0.00    -0.084 Cl
ATOM      6  C   UNL     1       9.946   0.437  22.782  0.00  0.00    +0.041 A 
ATOM      7  C   UNL     1       9.892   0.460  24.175  0.00  0.00    +0.021 A 
ATOM      8  C   UNL     1       9.704  -0.730  24.892  0.00  0.00    +0.014 A 
ATOM      9  C   UNL     1       9.560  -1.947  24.210  0.00  0.00    +0.037 A 
ATOM     10  C   UNL     1       9.619  -1.952  22.805  0.00  0.00    +0.014 A 
ATOM     11  C   UNL     1       9.812  -0.764  22.093  0.00  0.00    +0.021 A 
ENDBRANCH   1   9
BRANCH   2  12
ATOM     12  C   UNL     1       8.232  -4.612  26.584  0.00  0.00    +0.120 C 
BRANCH  12  13
ATOM     13  C   UNL     1       7.169  -5.459  25.867  0.00  0.00    +0.103 C 
BRANCH  13  14
ATOM     14  N   UNL     1       6.012  -4.694  25.349  0.00  0.00    -0.297 NA
ATOM     15  C   UNL     1       4.740  -5.248  25.884  0.00  0.00    +0.112 C 
ATOM     16  C   UNL     1       4.355  -6.618  25.293  0.00  0.00    +0.175 C 
ATOM     17  O   UNL     1       4.285  -6.572  23.863  0.00  0.00    -0.377 OA
ATOM     18  C   UNL     1       5.517  -6.106  23.299  0.00  0.00    +0.175 C 
ATOM     19  C   UNL     1       5.909  -4.730  23.868  0.00  0.00    +0.112 C 
ENDBRANCH  13  14
ENDBRANCH  12  13
ENDBRANCH   2  12
TORSDOF 4
ENDMDL
MODEL 9
REMARK VINA RESULT:      -5.5      2.143      2.543
REMARK  Name = 
REMARK  4 active torsions:
REMARK  status: ('A' for Active; 'I' for Inactive)
REMARK    1  A    between atoms: C_5  and  C_8
REMARK    2  A    between atoms: N_10  and  C_11
REMARK    3  A    between atoms: C_11  and  C_12
REMARK    4  A    between atoms: C_12  and  N_13
REMARK                            x       y       z     vdW  Elec       q    Type
REMARK                         _______ _______ _______ _____ _____    ______ ____
ROOT
ATOM      1  C   UNL     1       9.834   0.203  23.500  0.00  0.00    +0.244 C 
ATOM      2  N   UNL     1       9.216  -1.001  23.231  0.00  0.00    -0.310 N 
ATOM      3  H   UNL     1       8.423  -1.066  22.607  0.00  0.00    +0.149 HD
ATOM      4  O   UNL     1      10.946   0.262  24.018  0.00  0.00    -0.270 OA
ENDROOT
BRANCH   1   9
ATOM      5 CL   UNL     1       7.011   5.377  22.283  0.00  0.00    -0.084 Cl
ATOM      6  C   UNL     1       7.815   3.892  22.608  0.00  0.00    +0.041 A 
ATOM      7  C   UNL     1       7.518   2.762  21.848  0.00  0.00    +0.021 A 
ATOM      8  C   UNL     1       8.162   1.546  22.113  0.00  0.00    +0.014 A 
ATOM      9  C   UNL     1       9.116   1.462  23.137  0.00  0.00    +0.037 A 
ATOM     10  C   UNL     1       9.402   2.612  23.896  0.00  0.00    +0.014 A 
ATOM     11  C   UNL     1       8.754   3.823  23.633  0.00  0.00    +0.021 A 
ENDBRANCH   1   9
BRANCH   2  12
ATOM     12  C   UNL     1       9.907  -2.242  23.523  0.00  0.00    +0.120 C 
BRANCH  12  13
ATOM     13  C   UNL     1       9.244  -3.041  24.657  0.00  0.00    +0.103 C 
BRANCH  13  14
ATOM     14  N   UNL     1       9.269  -4.510  24.477  0.00  0.00    -0.297 NA
ATOM     15  C   UNL     1       8.025  -4.975  23.809  0.00  0.00    +0.112 C 
ATOM     16  C   UNL     1       6.770  -4.904  24.702  0.00  0.00    +0.175 C 
ATOM     17  O   UNL     1       6.952  -5.633  25.921  0.00  0.00    -0.377 OA
ATOM     18  C   UNL     1       8.106  -5.171  26.633  0.00  0.00    +0.175 C 
ATOM     19  C   UNL     1       9.372  -5.250  25.761  0.00  0.00    +0.112 C 
ENDBRANCH  13  14
ENDBRANCH  12  13
ENDBRANCH   2  12
TORSDOF 4
ENDMDL
