MODEL 1
REMARK VINA RESULT:      -5.7      0.000      0.000
REMARK  Name = 
REMARK  19 active torsions:
REMARK  status: ('A' for Active; 'I' for Inactive)
REMARK    1  A    between atoms: CA_2  and  C_3
REMARK    2  A    between atoms: CA_2  and  N_7
REMARK    3  A    between atoms: CA_2  and  C_29
REMARK    4  A    between atoms: C_3  and  C_4
REMARK    5  A    between atoms: C_4  and  C_5
REMARK    6  A    between atoms: C_5  and  C_6
REMARK    7  A    between atoms: C_8  and  CA_10
REMARK    8  A    between atoms: CA_10  and  CB_12
REMARK    9  A    between atoms: CA_10  and  N_16
REMARK   10  A    between atoms: CB_12  and  CG_13
REMARK   11  A    between atoms: CG_13  and  CD1_14
REMARK   12  A    between atoms: CG_13  and  CD2_15
REMARK   13  A    between atoms: C_17  and  CA_19
REMARK   14  A    between atoms: CA_19  and  CB_21
REMARK   15  A    between atoms: CA_19  and  N_25
REMARK   16  A    between atoms: CB_21  and  CG_22
REMARK   17  A    between atoms: CG_22  and  CD1_23
REMARK   18  A    between atoms: CG_22  and  CD2_24
REMARK   19  A    between atoms: C_26  and  C_27
REMARK                            x       y       z     vdW  Elec       q    Type
REMARK                         _______ _______ _______ _____ _____    ______ ____
ROOT
ATOM      1  CA  LEU A   1       9.482  -1.031  24.281  0.00  0.00    +0.159 C 
ENDROOT
BRANCH   1   4
ATOM      2  N   LEU A   1       8.267  -2.989  23.478  0.00  0.00    -0.304 N 
ATOM      3  H   LEU A   1       7.960  -3.081  24.437  0.00  0.00    +0.149 HD
ATOM      4  C   LEU A   1       9.186  -2.034  23.136  0.00  0.00    +0.234 C 
ATOM      5  O   LEU A   1       9.726  -2.008  22.034  0.00  0.00    -0.274 OA
BRANCH   2   6
ATOM      6  CA  LEU A   1       7.597  -3.849  22.537  0.00  0.00    +0.136 C 
BRANCH   6   7
ATOM      7  C   LEU A   1       6.233  -3.195  22.332  0.00  0.00    +0.245 C 
ATOM      8  O   LEU A   1       5.516  -3.427  21.356  0.00  0.00    -0.299 OA
ENDBRANCH   6   7
BRANCH   6   9
ATOM      9  C   LEU A   1       7.459  -5.237  23.143  0.00  0.00    +0.030 C 
BRANCH   9  10
ATOM     10  C   LEU A   1       7.945  -5.281  24.585  0.00  0.00    +0.002 C 
BRANCH  10  11
ATOM     11  C   LEU A   1       6.766  -5.271  25.551  0.00  0.00    -0.003 C 
ATOM     12  C   LEU A   1       7.170  -4.643  26.871  0.00  0.00    +0.004 C 
ENDBRANCH  10  11
ENDBRANCH   9  10
ENDBRANCH   6   9
ENDBRANCH   2   6
ENDBRANCH   1   4
BRANCH   1  13
ATOM     13  N   LEU A   1       9.299   0.332  23.786  0.00  0.00    -0.302 N 
ATOM     14  H   LEU A   1       8.334   0.618  23.713  0.00  0.00    +0.150 HD
ATOM     15  C   LEU A   1      10.217   1.353  23.908  0.00  0.00    +0.234 C 
ATOM     16  O   LEU A   1      11.356   1.200  24.346  0.00  0.00    -0.274 OA
BRANCH  15  17
ATOM     17  CA  LEU A   1       9.703   2.745  23.442  0.00  0.00    +0.159 C 
BRANCH  17  18
ATOM     18  N   LEU A   1      10.898   3.529  23.105  0.00  0.00    -0.304 N 
ATOM     19  H   LEU A   1      11.669   3.002  22.699  0.00  0.00    +0.149 HD
ATOM     20  C   UNK A   0      11.104   4.814  23.535  0.00  0.00    +0.211 C 
ATOM     21  O   UNK A   0      10.280   5.452  24.183  0.00  0.00    -0.276 OA
ATOM     22  C   UNK A   0      12.435   5.402  23.144  0.00  0.00    +0.109 C 
ENDBRANCH  17  18
BRANCH  17  23
ATOM     23  CB  LEU A   1       8.740   2.665  22.237  0.00  0.00    +0.034 C 
BRANCH  23  24
ATOM     24  CG  LEU A   1       7.316   3.230  22.431  0.00  0.00    -0.015 C 
ATOM     25  CD2 LEU A   1       7.329   4.756  22.299  0.00  0.00    +0.007 C 
ATOM     26  CD1 LEU A   1       6.692   2.850  23.777  0.00  0.00    +0.007 C 
ENDBRANCH  23  24
ENDBRANCH  17  23
ENDBRANCH  15  17
ENDBRANCH   1  13
BRANCH   1  27
ATOM     27  CB  LEU A   1       8.759  -1.321  25.613  0.00  0.00    +0.034 C 
BRANCH  27  28
ATOM     28  CG  LEU A   1       7.517  -0.462  25.939  0.00  0.00    -0.015 C 
ATOM     29  CD2 LEU A   1       7.560   0.010  27.395  0.00  0.00    +0.007 C 
ATOM     30  CD1 LEU A   1       6.187  -1.180  25.692  0.00  0.00    +0.007 C 
ENDBRANCH  27  28
ENDBRANCH   1  27
TORSDOF 13
ENDMDL
MODEL 2
REMARK VINA RESULT:      -5.4      3.496      8.497
REMARK  Name = 
REMARK  19 active torsions:
REMARK  status: ('A' for Active; 'I' for Inactive)
REMARK    1  A    between atoms: CA_2  and  C_3
REMARK    2  A    between atoms: CA_2  and  N_7
REMARK    3  A    between atoms: CA_2  and  C_29
REMARK    4  A    between atoms: C_3  and  C_4
REMARK    5  A    between atoms: C_4  and  C_5
REMARK    6  A    between atoms: C_5  and  C_6
REMARK    7  A    between atoms: C_8  and  CA_10
REMARK    8  A    between atoms: CA_10  and  CB_12
REMARK    9  A    between atoms: CA_10  and  N_16
REMARK   10  A    between atoms: CB_12  and  CG_13
REMARK   11  A    between atoms: CG_13  and  CD1_14
REMARK   12  A    between atoms: CG_13  and  CD2_15
REMARK   13  A    between atoms: C_17  and  CA_19
REMARK   14  A    between atoms: CA_19  and  CB_21
REMARK   15  A    between atoms: CA_19  and  N_25
REMARK   16  A    between atoms: CB_21  and  CG_22
REMARK   17  A    between atoms: CG_22  and  CD1_23
REMARK   18  A    between atoms: CG_22  and  CD2_24
REMARK   19  A    between atoms: C_26  and  C_27
REMARK                            x       y       z     vdW  Elec       q    Type
REMARK                         _______ _______ _______ _____ _____    ______ ____
ROOT
ATOM      1  CA  LEU A   1       7.931  -4.308  24.734  0.00  0.00    +0.159 C 
ENDROOT
BRANCH   1   4
ATOM      2  N   LEU A   1       8.810  -2.036  24.594  0.00  0.00    -0.304 N 
ATOM      3  H   LEU A   1       8.862  -2.212  23.600  0.00  0.00    +0.149 HD
ATOM      4  C   LEU A   1       8.449  -3.036  25.455  0.00  0.00    +0.234 C 
ATOM      5  O   LEU A   1       8.555  -2.924  26.673  0.00  0.00    -0.274 OA
BRANCH   2   6
ATOM      6  CA  LEU A   1       9.040  -0.668  24.984  0.00  0.00    +0.136 C 
BRANCH   6   7
ATOM      7  C   LEU A   1       7.689   0.014  24.782  0.00  0.00    +0.245 C 
ATOM      8  O   LEU A   1       6.910  -0.290  23.876  0.00  0.00    -0.299 OA
ENDBRANCH   6   7
BRANCH   6   9
ATOM      9  C   LEU A   1      10.103  -0.065  24.080  0.00  0.00    +0.030 C 
BRANCH   9  10
ATOM     10  C   LEU A   1      10.250  -0.837  22.777  0.00  0.00    +0.002 C 
BRANCH  10  11
ATOM     11  C   LEU A   1       9.682  -0.038  21.610  0.00  0.00    -0.003 C 
ATOM     12  C   LEU A   1       9.770   1.449  21.894  0.00  0.00    +0.004 C 
ENDBRANCH  10  11
ENDBRANCH   9  10
ENDBRANCH   6   9
ENDBRANCH   2   6
ENDBRANCH   1   4
BRANCH   1  13
ATOM     13  N   LEU A   1       6.657  -4.711  25.326  0.00  0.00    -0.302 N 
ATOM     14  H   LEU A   1       5.867  -4.618  24.706  0.00  0.00    +0.150 HD
ATOM     15  C   LEU A   1       6.509  -5.620  26.352  0.00  0.00    +0.234 C 
ATOM     16  O   LEU A   1       7.450  -6.111  26.972  0.00  0.00    -0.274 OA
BRANCH  15  17
ATOM     17  CA  LEU A   1       5.034  -5.991  26.679  0.00  0.00    +0.159 C 
BRANCH  17  18
ATOM     18  N   LEU A   1       4.720  -5.329  27.952  0.00  0.00    -0.304 N 
ATOM     19  H   LEU A   1       4.735  -4.311  27.933  0.00  0.00    +0.149 HD
ATOM     20  C   UNK A   0       4.673  -5.987  29.153  0.00  0.00    +0.211 C 
ATOM     21  O   UNK A   0       4.821  -7.200  29.268  0.00  0.00    -0.276 OA
ATOM     22  C   UNK A   0       4.416  -5.101  30.345  0.00  0.00    +0.109 C 
ENDBRANCH  17  18
BRANCH  17  23
ATOM     23  CB  LEU A   1       4.041  -5.563  25.577  0.00  0.00    +0.034 C 
BRANCH  23  24
ATOM     24  CG  LEU A   1       3.790  -6.561  24.425  0.00  0.00    -0.015 C 
ATOM     25  CD2 LEU A   1       3.166  -5.840  23.227  0.00  0.00    +0.007 C 
ATOM     26  CD1 LEU A   1       2.891  -7.735  24.826  0.00  0.00    +0.007 C 
ENDBRANCH  23  24
ENDBRANCH  17  23
ENDBRANCH  15  17
ENDBRANCH   1  13
BRANCH   1  27
ATOM     27  CB  LEU A   1       7.915  -4.229  23.193  0.00  0.00    +0.034 C 
BRANCH  27  28
ATOM     28  CG  LEU A   1       6.601  -4.628  22.484  0.00  0.00    -0.015 C 
ATOM     29  CD2 LEU A   1       6.851  -5.775  21.502  0.00  0.00    +0.007 C 
ATOM     30  CD1 LEU A   1       5.929  -3.474  21.735  0.00  0.00    +0.007 C 
ENDBRANCH  27  28
ENDBRANCH   1  27
TORSDOF 13
ENDMDL
MODEL 3
REMARK VINA RESULT:      -5.3      2.263      4.321
REMARK  Name = 
REMARK  19 active torsions:
REMARK  status: ('A' for Active; 'I' for Inactive)
REMARK    1  A    between atoms: CA_2  and  C_3
REMARK    2  A    between atoms: CA_2  and  N_7
REMARK    3  A    between atoms: CA_2  and  C_29
REMARK    4  A    between atoms: C_3  and  C_4
REMARK    5  A    between atoms: C_4  and  C_5
REMARK    6  A    between atoms: C_5  and  C_6
REMARK    7  A    between atoms: C_8  and  CA_10
REMARK    8  A    between atoms: CA_10  and  CB_12
REMARK    9  A    between atoms: CA_10  and  N_16
REMARK   10  A    between atoms: CB_12  and  CG_13
REMARK   11  A    between atoms: CG_13  and  CD1_14
REMARK   12  A    between atoms: CG_13  and  CD2_15
REMARK   13  A    between atoms: C_17  and  CA_19
REMARK   14  A    between atoms: CA_19  and  CB_21
REMARK   15  A    between atoms: CA_19  and  N_25
REMARK   16  A    between atoms: CB_21  and  CG_22
REMARK   17  A    between atoms: CG_22  and  CD1_23
REMARK   18  A    between atoms: CG_22  and  CD2_24
REMARK   19  A    between atoms: C_26  and  C_27
REMARK                            x       y       z     vdW  Elec       q    Type
REMARK                         _______ _______ _______ _____ _____    ______ ____
ROOT
ATOM      1  CA  LEU A   1       7.514  -3.909  22.755  0.00  0.00    +0.159 C 
ENDROOT
BRANCH   1   4
ATOM      2  N   LEU A   1       5.248  -4.570  23.374  0.00  0.00    -0.304 N 
ATOM      3  H   LEU A   1       5.682  -4.964  24.197  0.00  0.00    +0.149 HD
ATOM      4  C   LEU A   1       6.016  -4.039  22.374  0.00  0.00    +0.234 C 
ATOM      5  O   LEU A   1       5.549  -3.726  21.283  0.00  0.00    -0.274 OA
BRANCH   2   6
ATOM      6  CA  LEU A   1       3.808  -4.530  23.403  0.00  0.00    +0.136 C 
BRANCH   6   7
ATOM      7  C   LEU A   1       3.478  -3.754  24.676  0.00  0.00    +0.245 C 
ATOM      8  O   LEU A   1       4.231  -2.907  25.162  0.00  0.00    -0.299 OA
ENDBRANCH   6   7
BRANCH   6   9
ATOM      9  C   LEU A   1       3.272  -5.952  23.469  0.00  0.00    +0.030 C 
BRANCH   9  10
ATOM     10  C   LEU A   1       3.015  -6.399  24.901  0.00  0.00    +0.002 C 
BRANCH  10  11
ATOM     11  C   LEU A   1       4.163  -7.264  25.409  0.00  0.00    -0.003 C 
ATOM     12  C   LEU A   1       4.614  -6.794  26.778  0.00  0.00    +0.004 C 
ENDBRANCH  10  11
ENDBRANCH   9  10
ENDBRANCH   6   9
ENDBRANCH   2   6
ENDBRANCH   1   4
BRANCH   1  13
ATOM     13  N   LEU A   1       7.794  -2.528  23.143  0.00  0.00    -0.302 N 
ATOM     14  H   LEU A   1       7.565  -2.314  24.101  0.00  0.00    +0.150 HD
ATOM     15  C   LEU A   1       8.740  -1.714  22.558  0.00  0.00    +0.234 C 
ATOM     16  O   LEU A   1       9.382  -2.022  21.556  0.00  0.00    -0.274 OA
BRANCH  15  17
ATOM     17  CA  LEU A   1       8.947  -0.346  23.270  0.00  0.00    +0.159 C 
BRANCH  17  18
ATOM     18  N   LEU A   1       9.096  -0.649  24.699  0.00  0.00    -0.304 N 
ATOM     19  H   LEU A   1       9.608  -1.502  24.916  0.00  0.00    +0.149 HD
ATOM     20  C   UNK A   0       8.387  -0.011  25.684  0.00  0.00    +0.211 C 
ATOM     21  O   UNK A   0       7.614   0.917  25.470  0.00  0.00    -0.276 OA
ATOM     22  C   UNK A   0       8.634  -0.536  27.075  0.00  0.00    +0.109 C 
ENDBRANCH  17  18
BRANCH  17  23
ATOM     23  CB  LEU A   1      10.169   0.435  22.742  0.00  0.00    +0.034 C 
BRANCH  23  24
ATOM     24  CG  LEU A   1       9.957   1.921  22.381  0.00  0.00    -0.015 C 
ATOM     25  CD2 LEU A   1      10.294   2.811  23.580  0.00  0.00    +0.007 C 
ATOM     26  CD1 LEU A   1       8.532   2.232  21.911  0.00  0.00    +0.007 C 
ENDBRANCH  23  24
ENDBRANCH  17  23
ENDBRANCH  15  17
ENDBRANCH   1  13
BRANCH   1  27
ATOM     27  CB  LEU A   1       8.030  -4.962  23.759  0.00  0.00    +0.034 C 
BRANCH  27  28
ATOM     28  CG  LEU A   1       8.546  -4.442  25.119  0.00  0.00    -0.015 C 
ATOM     29  CD2 LEU A   1       9.877  -5.108  25.476  0.00  0.00    +0.007 C 
ATOM     30  CD1 LEU A   1       7.562  -4.654  26.273  0.00  0.00    +0.007 C 
ENDBRANCH  27  28
ENDBRANCH   1  27
TORSDOF 13
ENDMDL
MODEL 4
REMARK VINA RESULT:      -5.3      1.972      7.449
REMARK  Name = 
REMARK  19 active torsions:
REMARK  status: ('A' for Active; 'I' for Inactive)
REMARK    1  A    between atoms: CA_2  and  C_3
REMARK    2  A    between atoms: CA_2  and  N_7
REMARK    3  A    between atoms: CA_2  and  C_29
REMARK    4  A    between atoms: C_3  and  C_4
REMARK    5  A    between atoms: C_4  and  C_5
REMARK    6  A    between atoms: C_5  and  C_6
REMARK    7  A    between atoms: C_8  and  CA_10
REMARK    8  A    between atoms: CA_10  and  CB_12
REMARK    9  A    between atoms: CA_10  and  N_16
REMARK   10  A    between atoms: CB_12  and  CG_13
REMARK   11  A    between atoms: CG_13  and  CD1_14
REMARK   12  A    between atoms: CG_13  and  CD2_15
REMARK   13  A    between atoms: C_17  and  CA_19
REMARK   14  A    between atoms: CA_19  and  CB_21
REMARK   15  A    between atoms: CA_19  and  N_25
REMARK   16  A    between atoms: CB_21  and  CG_22
REMARK   17  A    between atoms: CG_22  and  CD1_23
REMARK   18  A    between atoms: CG_22  and  CD2_24
REMARK   19  A    between atoms: C_26  and  C_27
REMARK                            x       y       z     vdW  Elec       q    Type
REMARK                         _______ _______ _______ _____ _____    ______ ____
ROOT
ATOM      1  CA  LEU A   1       7.175  -0.931  22.848  0.00  0.00    +0.159 C 
ENDROOT
BRANCH   1   4
ATOM      2  N   LEU A   1       8.918   0.746  23.171  0.00  0.00    -0.304 N 
ATOM      3  H   LEU A   1       8.288   1.141  23.856  0.00  0.00    +0.149 HD
ATOM      4  C   LEU A   1       8.524  -0.311  22.397  0.00  0.00    +0.234 C 
ATOM      5  O   LEU A   1       9.176  -0.698  21.432  0.00  0.00    -0.274 OA
BRANCH   2   6
ATOM      6  CA  LEU A   1      10.244   1.310  23.164  0.00  0.00    +0.136 C 
BRANCH   6   7
ATOM      7  C   LEU A   1      10.924   0.691  24.383  0.00  0.00    +0.245 C 
ATOM      8  O   LEU A   1      10.299   0.166  25.308  0.00  0.00    -0.299 OA
ENDBRANCH   6   7
BRANCH   6   9
ATOM      9  C   LEU A   1      10.142   2.821  23.298  0.00  0.00    +0.030 C 
BRANCH   9  10
ATOM     10  C   LEU A   1       8.711   3.277  23.549  0.00  0.00    +0.002 C 
BRANCH  10  11
ATOM     11  C   LEU A   1       8.541   3.750  24.987  0.00  0.00    -0.003 C 
ATOM     12  C   LEU A   1       7.099   3.594  25.429  0.00  0.00    +0.004 C 
ENDBRANCH  10  11
ENDBRANCH   9  10
ENDBRANCH   6   9
ENDBRANCH   2   6
ENDBRANCH   1   4
BRANCH   1  13
ATOM     13  N   LEU A   1       7.352  -2.367  23.055  0.00  0.00    -0.302 N 
ATOM     14  H   LEU A   1       7.848  -2.604  23.901  0.00  0.00    +0.150 HD
ATOM     15  C   LEU A   1       6.529  -3.351  22.549  0.00  0.00    +0.234 C 
ATOM     16  O   LEU A   1       5.611  -3.135  21.760  0.00  0.00    -0.274 OA
BRANCH  15  17
ATOM     17  CA  LEU A   1       6.847  -4.786  23.057  0.00  0.00    +0.159 C 
BRANCH  17  18
ATOM     18  N   LEU A   1       7.206  -4.646  24.475  0.00  0.00    -0.304 N 
ATOM     19  H   LEU A   1       6.598  -4.043  25.024  0.00  0.00    +0.149 HD
ATOM     20  C   UNK A   0       8.406  -5.057  24.993  0.00  0.00    +0.211 C 
ATOM     21  O   UNK A   0       9.264  -5.640  24.337  0.00  0.00    -0.276 OA
ATOM     22  C   UNK A   0       8.601  -4.742  26.454  0.00  0.00    +0.109 C 
ENDBRANCH  17  18
BRANCH  17  23
ATOM     23  CB  LEU A   1       5.668  -5.768  22.883  0.00  0.00    +0.034 C 
BRANCH  23  24
ATOM     24  CG  LEU A   1       4.535  -5.706  23.930  0.00  0.00    -0.015 C 
ATOM     25  CD2 LEU A   1       4.364  -7.069  24.606  0.00  0.00    +0.007 C 
ATOM     26  CD1 LEU A   1       3.190  -5.267  23.341  0.00  0.00    +0.007 C 
ENDBRANCH  23  24
ENDBRANCH  17  23
ENDBRANCH  15  17
ENDBRANCH   1  13
BRANCH   1  27
ATOM     27  CB  LEU A   1       6.477  -0.206  24.019  0.00  0.00    +0.034 C 
BRANCH  27  28
ATOM     28  CG  LEU A   1       6.534  -0.891  25.403  0.00  0.00    -0.015 C 
ATOM     29  CD2 LEU A   1       5.168  -1.476  25.766  0.00  0.00    +0.007 C 
ATOM     30  CD1 LEU A   1       6.991   0.038  26.532  0.00  0.00    +0.007 C 
ENDBRANCH  27  28
ENDBRANCH   1  27
TORSDOF 13
ENDMDL
MODEL 5
REMARK VINA RESULT:      -5.3      2.074      3.165
REMARK  Name = 
REMARK  19 active torsions:
REMARK  status: ('A' for Active; 'I' for Inactive)
REMARK    1  A    between atoms: CA_2  and  C_3
REMARK    2  A    between atoms: CA_2  and  N_7
REMARK    3  A    between atoms: CA_2  and  C_29
REMARK    4  A    between atoms: C_3  and  C_4
REMARK    5  A    between atoms: C_4  and  C_5
REMARK    6  A    between atoms: C_5  and  C_6
REMARK    7  A    between atoms: C_8  and  CA_10
REMARK    8  A    between atoms: CA_10  and  CB_12
REMARK    9  A    between atoms: CA_10  and  N_16
REMARK   10  A    between atoms: CB_12  and  CG_13
REMARK   11  A    between atoms: CG_13  and  CD1_14
REMARK   12  A    between atoms: CG_13  and  CD2_15
REMARK   13  A    between atoms: C_17  and  CA_19
REMARK   14  A    between atoms: CA_19  and  CB_21
REMARK   15  A    between atoms: CA_19  and  N_25
REMARK   16  A    between atoms: CB_21  and  CG_22
REMARK   17  A    between atoms: CG_22  and  CD1_23
REMARK   18  A    between atoms: CG_22  and  CD2_24
REMARK   19  A    between atoms: C_26  and  C_27
REMARK                            x       y       z     vdW  Elec       q    Type
REMARK                         _______ _______ _______ _____ _____    ______ ____
ROOT
ATOM      1  CA  LEU A   1       8.603   0.379  24.065  0.00  0.00    +0.159 C 
ENDROOT
BRANCH   1   4
ATOM      2  N   LEU A   1       6.742  -1.121  24.556  0.00  0.00    -0.304 N 
ATOM      3  H   LEU A   1       7.288  -1.817  24.067  0.00  0.00    +0.149 HD
ATOM      4  C   LEU A   1       7.162   0.180  24.606  0.00  0.00    +0.234 C 
ATOM      5  O   LEU A   1       6.446   1.086  25.020  0.00  0.00    -0.274 OA
BRANCH   2   6
ATOM      6  CA  LEU A   1       5.586  -1.631  25.250  0.00  0.00    +0.136 C 
BRANCH   6   7
ATOM      7  C   LEU A   1       6.133  -2.105  26.594  0.00  0.00    +0.245 C 
ATOM      8  O   LEU A   1       7.013  -2.963  26.698  0.00  0.00    -0.299 OA
ENDBRANCH   6   7
BRANCH   6   9
ATOM      9  C   LEU A   1       4.997  -2.785  24.455  0.00  0.00    +0.030 C 
BRANCH   9  10
ATOM     10  C   LEU A   1       5.885  -3.184  23.285  0.00  0.00    +0.002 C 
BRANCH  10  11
ATOM     11  C   LEU A   1       6.173  -4.681  23.314  0.00  0.00    -0.003 C 
ATOM     12  C   LEU A   1       7.013  -5.081  22.116  0.00  0.00    +0.004 C 
ENDBRANCH  10  11
ENDBRANCH   9  10
ENDBRANCH   6   9
ENDBRANCH   2   6
ENDBRANCH   1   4
BRANCH   1  13
ATOM     13  N   LEU A   1       8.990   1.778  24.230  0.00  0.00    -0.302 N 
ATOM     14  H   LEU A   1       9.031   2.084  25.190  0.00  0.00    +0.150 HD
ATOM     15  C   LEU A   1       9.750   2.503  23.337  0.00  0.00    +0.234 C 
ATOM     16  O   LEU A   1      10.094   2.084  22.233  0.00  0.00    -0.274 OA
BRANCH  15  17
ATOM     17  CA  LEU A   1      10.154   3.921  23.834  0.00  0.00    +0.159 C 
BRANCH  17  18
ATOM     18  N   LEU A   1      11.211   4.385  22.925  0.00  0.00    -0.304 N 
ATOM     19  H   LEU A   1      11.309   3.856  22.060  0.00  0.00    +0.149 HD
ATOM     20  C   UNK A   0      12.182   5.279  23.291  0.00  0.00    +0.211 C 
ATOM     21  O   UNK A   0      12.221   5.826  24.389  0.00  0.00    -0.276 OA
ATOM     22  C   UNK A   0      13.216   5.553  22.230  0.00  0.00    +0.109 C 
ENDBRANCH  17  18
BRANCH  17  23
ATOM     23  CB  LEU A   1       8.973   4.915  23.858  0.00  0.00    +0.034 C 
BRANCH  23  24
ATOM     24  CG  LEU A   1       7.880   4.743  22.781  0.00  0.00    -0.015 C 
ATOM     25  CD2 LEU A   1       7.611   6.077  22.081  0.00  0.00    +0.007 C 
ATOM     26  CD1 LEU A   1       6.562   4.196  23.338  0.00  0.00    +0.007 C 
ENDBRANCH  23  24
ENDBRANCH  17  23
ENDBRANCH  15  17
ENDBRANCH   1  13
BRANCH   1  27
ATOM     27  CB  LEU A   1       9.647  -0.631  24.590  0.00  0.00    +0.034 C 
BRANCH  27  28
ATOM     28  CG  LEU A   1      10.036  -1.792  23.648  0.00  0.00    -0.015 C 
ATOM     29  CD2 LEU A   1       9.484  -1.547  22.242  0.00  0.00    +0.007 C 
ATOM     30  CD1 LEU A   1       9.561  -3.165  24.132  0.00  0.00    +0.007 C 
ENDBRANCH  27  28
ENDBRANCH   1  27
TORSDOF 13
ENDMDL
MODEL 6
REMARK VINA RESULT:      -5.3      2.073      3.495
REMARK  Name = 
REMARK  19 active torsions:
REMARK  status: ('A' for Active; 'I' for Inactive)
REMARK    1  A    between atoms: CA_2  and  C_3
REMARK    2  A    between atoms: CA_2  and  N_7
REMARK    3  A    between atoms: CA_2  and  C_29
REMARK    4  A    between atoms: C_3  and  C_4
REMARK    5  A    between atoms: C_4  and  C_5
REMARK    6  A    between atoms: C_5  and  C_6
REMARK    7  A    between atoms: C_8  and  CA_10
REMARK    8  A    between atoms: CA_10  and  CB_12
REMARK    9  A    between atoms: CA_10  and  N_16
REMARK   10  A    between atoms: CB_12  and  CG_13
REMARK   11  A    between atoms: CG_13  and  CD1_14
REMARK   12  A    between atoms: CG_13  and  CD2_15
REMARK   13  A    between atoms: C_17  and  CA_19
REMARK   14  A    between atoms: CA_19  and  CB_21
REMARK   15  A    between atoms: CA_19  and  N_25
REMARK   16  A    between atoms: CB_21  and  CG_22
REMARK   17  A    between atoms: CG_22  and  CD1_23
REMARK   18  A    between atoms: CG_22  and  CD2_24
REMARK   19  A    between atoms: C_26  and  C_27
REMARK                            x       y       z     vdW  Elec       q    Type
REMARK                         _______ _______ _______ _____ _____    ______ ____
ROOT
ATOM      1  CA  LEU A   1       8.640   2.159  24.106  0.00  0.00    +0.159 C 
ENDROOT
BRANCH   1   4
ATOM      2  N   LEU A   1       9.207  -0.211  23.993  0.00  0.00    -0.304 N 
ATOM      3  H   LEU A   1       8.208  -0.360  23.988  0.00  0.00    +0.149 HD
ATOM      4  C   LEU A   1       9.719   1.046  24.165  0.00  0.00    +0.234 C 
ATOM      5  O   LEU A   1      10.912   1.248  24.368  0.00  0.00    -0.274 OA
BRANCH   2   6
ATOM      6  CA  LEU A   1      10.000  -1.381  23.712  0.00  0.00    +0.136 C 
BRANCH   6   7
ATOM      7  C   LEU A   1       9.991  -1.486  22.189  0.00  0.00    +0.245 C 
ATOM      8  O   LEU A   1       9.301  -0.760  21.469  0.00  0.00    -0.299 OA
ENDBRANCH   6   7
BRANCH   6   9
ATOM      9  C   LEU A   1       9.342  -2.593  24.352  0.00  0.00    +0.030 C 
BRANCH   9  10
ATOM     10  C   LEU A   1       8.494  -3.374  23.358  0.00  0.00    +0.002 C 
BRANCH  10  11
ATOM     11  C   LEU A   1       7.018  -3.295  23.731  0.00  0.00    -0.003 C 
ATOM     12  C   LEU A   1       6.319  -2.232  22.907  0.00  0.00    +0.004 C 
ENDBRANCH  10  11
ENDBRANCH   9  10
ENDBRANCH   6   9
ENDBRANCH   2   6
ENDBRANCH   1   4
BRANCH   1  13
ATOM     13  N   LEU A   1       9.297   3.462  24.019  0.00  0.00    -0.302 N 
ATOM     14  H   LEU A   1       9.621   3.699  23.094  0.00  0.00    +0.150 HD
ATOM     15  C   LEU A   1       9.065   4.527  24.863  0.00  0.00    +0.234 C 
ATOM     16  O   LEU A   1       8.359   4.463  25.868  0.00  0.00    -0.274 OA
BRANCH  15  17
ATOM     17  CA  LEU A   1       9.774   5.847  24.449  0.00  0.00    +0.159 C 
BRANCH  17  18
ATOM     18  N   LEU A   1      10.870   5.457  23.551  0.00  0.00    -0.304 N 
ATOM     19  H   LEU A   1      10.615   4.819  22.800  0.00  0.00    +0.149 HD
ATOM     20  C   UNK A   0      12.191   5.693  23.826  0.00  0.00    +0.211 C 
ATOM     21  O   UNK A   0      12.579   6.312  24.813  0.00  0.00    -0.276 OA
ATOM     22  C   UNK A   0      13.154   5.135  22.810  0.00  0.00    +0.109 C 
ENDBRANCH  17  18
BRANCH  17  23
ATOM     23  CB  LEU A   1       8.829   6.854  23.758  0.00  0.00    +0.034 C 
BRANCH  23  24
ATOM     24  CG  LEU A   1       7.443   6.334  23.316  0.00  0.00    -0.015 C 
ATOM     25  CD2 LEU A   1       7.317   6.392  21.791  0.00  0.00    +0.007 C 
ATOM     26  CD1 LEU A   1       6.279   7.108  23.944  0.00  0.00    +0.007 C 
ENDBRANCH  23  24
ENDBRANCH  17  23
ENDBRANCH  15  17
ENDBRANCH   1  13
BRANCH   1  27
ATOM     27  CB  LEU A   1       7.528   1.942  23.057  0.00  0.00    +0.034 C 
BRANCH  27  28
ATOM     28  CG  LEU A   1       6.075   1.871  23.578  0.00  0.00    -0.015 C 
ATOM     29  CD2 LEU A   1       5.572   3.268  23.947  0.00  0.00    +0.007 C 
ATOM     30  CD1 LEU A   1       5.898   0.947  24.786  0.00  0.00    +0.007 C 
ENDBRANCH  27  28
ENDBRANCH   1  27
TORSDOF 13
ENDMDL
MODEL 7
REMARK VINA RESULT:      -5.3      2.778      7.525
REMARK  Name = 
REMARK  19 active torsions:
REMARK  status: ('A' for Active; 'I' for Inactive)
REMARK    1  A    between atoms: CA_2  and  C_3
REMARK    2  A    between atoms: CA_2  and  N_7
REMARK    3  A    between atoms: CA_2  and  C_29
REMARK    4  A    between atoms: C_3  and  C_4
REMARK    5  A    between atoms: C_4  and  C_5
REMARK    6  A    between atoms: C_5  and  C_6
REMARK    7  A    between atoms: C_8  and  CA_10
REMARK    8  A    between atoms: CA_10  and  CB_12
REMARK    9  A    between atoms: CA_10  and  N_16
REMARK   10  A    between atoms: CB_12  and  CG_13
REMARK   11  A    between atoms: CG_13  and  CD1_14
REMARK   12  A    between atoms: CG_13  and  CD2_15
REMARK   13  A    between atoms: C_17  and  CA_19
REMARK   14  A    between atoms: CA_19  and  CB_21
REMARK   15  A    between atoms: CA_19  and  N_25
REMARK   16  A    between atoms: CB_21  and  CG_22
REMARK   17  A    between atoms: CG_22  and  CD1_23
REMARK   18  A    between atoms: CG_22  and  CD2_24
REMARK   19  A    between atoms: C_26  and  C_27
REMARK                            x       y       z     vdW  Elec       q    Type
REMARK                         _______ _______ _______ _____ _____    ______ ____
ROOT
ATOM      1  CA  LEU A   1       8.820  -1.135  24.876  0.00  0.00    +0.159 C 
ENDROOT
BRANCH   1   4
ATOM      2  N   LEU A   1       7.632   0.866  25.611  0.00  0.00    -0.304 N 
ATOM      3  H   LEU A   1       7.794   1.200  24.671  0.00  0.00    +0.149 HD
ATOM      4  C   LEU A   1       8.177  -0.318  26.028  0.00  0.00    +0.234 C 
ATOM      5  O   LEU A   1       8.166  -0.668  27.204  0.00  0.00    -0.274 OA
BRANCH   2   6
ATOM      6  CA  LEU A   1       6.729   1.667  26.397  0.00  0.00    +0.136 C 
BRANCH   6   7
ATOM      7  C   LEU A   1       5.379   1.508  25.701  0.00  0.00    +0.245 C 
ATOM      8  O   LEU A   1       5.143   0.611  24.888  0.00  0.00    -0.299 OA
ENDBRANCH   6   7
BRANCH   6   9
ATOM      9  C   LEU A   1       7.195   3.114  26.370  0.00  0.00    +0.030 C 
BRANCH   9  10
ATOM     10  C   LEU A   1       8.194   3.371  25.250  0.00  0.00    +0.002 C 
BRANCH  10  11
ATOM     11  C   LEU A   1       7.635   4.377  24.251  0.00  0.00    -0.003 C 
ATOM     12  C   LEU A   1       7.406   3.716  22.905  0.00  0.00    +0.004 C 
ENDBRANCH  10  11
ENDBRANCH   9  10
ENDBRANCH   6   9
ENDBRANCH   2   6
ENDBRANCH   1   4
BRANCH   1  13
ATOM     13  N   LEU A   1       8.280  -2.493  24.888  0.00  0.00    -0.302 N 
ATOM     14  H   LEU A   1       7.279  -2.539  24.778  0.00  0.00    +0.150 HD
ATOM     15  C   LEU A   1       8.974  -3.628  24.529  0.00  0.00    +0.234 C 
ATOM     16  O   LEU A   1      10.176  -3.641  24.268  0.00  0.00    -0.274 OA
BRANCH  15  17
ATOM     17  CA  LEU A   1       8.114  -4.922  24.475  0.00  0.00    +0.159 C 
BRANCH  17  18
ATOM     18  N   LEU A   1       6.914  -4.648  25.276  0.00  0.00    -0.304 N 
ATOM     19  H   LEU A   1       6.291  -3.934  24.903  0.00  0.00    +0.149 HD
ATOM     20  C   UNK A   0       6.744  -5.096  26.560  0.00  0.00    +0.211 C 
ATOM     21  O   UNK A   0       7.547  -5.824  27.135  0.00  0.00    -0.276 OA
ATOM     22  C   UNK A   0       5.476  -4.628  27.226  0.00  0.00    +0.109 C 
ENDBRANCH  17  18
BRANCH  17  23
ATOM     23  CB  LEU A   1       7.733  -5.339  23.038  0.00  0.00    +0.034 C 
BRANCH  23  24
ATOM     24  CG  LEU A   1       6.311  -4.984  22.552  0.00  0.00    -0.015 C 
ATOM     25  CD2 LEU A   1       5.902  -5.901  21.396  0.00  0.00    +0.007 C 
ATOM     26  CD1 LEU A   1       6.171  -3.525  22.106  0.00  0.00    +0.007 C 
ENDBRANCH  23  24
ENDBRANCH  17  23
ENDBRANCH  15  17
ENDBRANCH   1  13
BRANCH   1  27
ATOM     27  CB  LEU A   1       8.788  -0.455  23.490  0.00  0.00    +0.034 C 
BRANCH  27  28
ATOM     28  CG  LEU A   1      10.113   0.149  22.973  0.00  0.00    -0.015 C 
ATOM     29  CD2 LEU A   1      10.925   0.728  24.134  0.00  0.00    +0.007 C 
ATOM     30  CD1 LEU A   1       9.922   1.237  21.912  0.00  0.00    +0.007 C 
ENDBRANCH  27  28
ENDBRANCH   1  27
TORSDOF 13
ENDMDL
MODEL 8
REMARK VINA RESULT:      -5.2      2.584      8.023
REMARK  Name = 
REMARK  19 active torsions:
REMARK  status: ('A' for Active; 'I' for Inactive)
REMARK    1  A    between atoms: CA_2  and  C_3
REMARK    2  A    between atoms: CA_2  and  N_7
REMARK    3  A    between atoms: CA_2  and  C_29
REMARK    4  A    between atoms: C_3  and  C_4
REMARK    5  A    between atoms: C_4  and  C_5
REMARK    6  A    between atoms: C_5  and  C_6
REMARK    7  A    between atoms: C_8  and  CA_10
REMARK    8  A    between atoms: CA_10  and  CB_12
REMARK    9  A    between atoms: CA_10  and  N_16
REMARK   10  A    between atoms: CB_12  and  CG_13
REMARK   11  A    between atoms: CG_13  and  CD1_14
REMARK   12  A    between atoms: CG_13  and  CD2_15
REMARK   13  A    between atoms: C_17  and  CA_19
REMARK   14  A    between atoms: CA_19  and  CB_21
REMARK   15  A    between atoms: CA_19  and  N_25
REMARK   16  A    between atoms: CB_21  and  CG_22
REMARK   17  A    between atoms: CG_22  and  CD1_23
REMARK   18  A    between atoms: CG_22  and  CD2_24
REMARK   19  A    between atoms: C_26  and  C_27
REMARK                            x       y       z     vdW  Elec       q    Type
REMARK                         _______ _______ _______ _____ _____    ______ ____
ROOT
ATOM      1  CA  LEU A   1       7.967  -1.268  24.148  0.00  0.00    +0.159 C 
ENDROOT
BRANCH   1   4
ATOM      2  N   LEU A   1       7.493   0.965  25.009  0.00  0.00    -0.304 N 
ATOM      3  H   LEU A   1       7.506   1.246  24.039  0.00  0.00    +0.149 HD
ATOM      4  C   LEU A   1       7.823  -0.315  25.363  0.00  0.00    +0.234 C 
ATOM      5  O   LEU A   1       8.005  -0.648  26.530  0.00  0.00    -0.274 OA
BRANCH   2   6
ATOM      6  CA  LEU A   1       7.016   1.966  25.928  0.00  0.00    +0.136 C 
BRANCH   6   7
ATOM      7  C   LEU A   1       5.514   2.037  25.663  0.00  0.00    +0.245 C 
ATOM      8  O   LEU A   1       4.984   1.546  24.664  0.00  0.00    -0.299 OA
ENDBRANCH   6   7
BRANCH   6   9
ATOM      9  C   LEU A   1       7.694   3.291  25.618  0.00  0.00    +0.030 C 
BRANCH   9  10
ATOM     10  C   LEU A   1       8.704   3.163  24.486  0.00  0.00    +0.002 C 
BRANCH  10  11
ATOM     11  C   LEU A   1       8.367   4.126  23.353  0.00  0.00    -0.003 C 
ATOM     12  C   LEU A   1       7.303   3.532  22.452  0.00  0.00    +0.004 C 
ENDBRANCH  10  11
ENDBRANCH   9  10
ENDBRANCH   6   9
ENDBRANCH   2   6
ENDBRANCH   1   4
BRANCH   1  13
ATOM     13  N   LEU A   1       7.037  -2.385  24.299  0.00  0.00    -0.302 N 
ATOM     14  H   LEU A   1       6.204  -2.307  23.735  0.00  0.00    +0.150 HD
ATOM     15  C   LEU A   1       7.384  -3.664  24.679  0.00  0.00    +0.234 C 
ATOM     16  O   LEU A   1       8.511  -3.984  25.052  0.00  0.00    -0.274 OA
BRANCH  15  17
ATOM     17  CA  LEU A   1       6.226  -4.699  24.601  0.00  0.00    +0.159 C 
BRANCH  17  18
ATOM     18  N   LEU A   1       6.386  -5.395  23.317  0.00  0.00    -0.304 N 
ATOM     19  H   LEU A   1       7.072  -6.146  23.308  0.00  0.00    +0.149 HD
ATOM     20  C   UNK A   0       5.873  -4.926  22.136  0.00  0.00    +0.211 C 
ATOM     21  O   UNK A   0       5.176  -3.919  22.052  0.00  0.00    -0.276 OA
ATOM     22  C   UNK A   0       6.227  -5.751  20.926  0.00  0.00    +0.109 C 
ENDBRANCH  17  18
BRANCH  17  23
ATOM     23  CB  LEU A   1       6.229  -5.703  25.774  0.00  0.00    +0.034 C 
BRANCH  23  24
ATOM     24  CG  LEU A   1       4.858  -6.132  26.342  0.00  0.00    -0.015 C 
ATOM     25  CD2 LEU A   1       5.031  -6.757  27.728  0.00  0.00    +0.007 C 
ATOM     26  CD1 LEU A   1       4.111  -7.118  25.438  0.00  0.00    +0.007 C 
ENDBRANCH  23  24
ENDBRANCH  17  23
ENDBRANCH  15  17
ENDBRANCH   1  13
BRANCH   1  27
ATOM     27  CB  LEU A   1       7.911  -0.584  22.765  0.00  0.00    +0.034 C 
BRANCH  27  28
ATOM     28  CG  LEU A   1       9.220  -0.554  21.944  0.00  0.00    -0.015 C 
ATOM     29  CD2 LEU A   1      10.261  -1.489  22.562  0.00  0.00    +0.007 C 
ATOM     30  CD1 LEU A   1       9.830   0.844  21.807  0.00  0.00    +0.007 C 
ENDBRANCH  27  28
ENDBRANCH   1  27
TORSDOF 13
ENDMDL
MODEL 9
REMARK VINA RESULT:      -5.2      3.163      7.766
REMARK  Name = 
REMARK  19 active torsions:
REMARK  status: ('A' for Active; 'I' for Inactive)
REMARK    1  A    between atoms: CA_2  and  C_3
REMARK    2  A    between atoms: CA_2  and  N_7
REMARK    3  A    between atoms: CA_2  and  C_29
REMARK    4  A    between atoms: C_3  and  C_4
REMARK    5  A    between atoms: C_4  and  C_5
REMARK    6  A    between atoms: C_5  and  C_6
REMARK    7  A    between atoms: C_8  and  CA_10
REMARK    8  A    between atoms: CA_10  and  CB_12
REMARK    9  A    between atoms: CA_10  and  N_16
REMARK   10  A    between atoms: CB_12  and  CG_13
REMARK   11  A    between atoms: CG_13  and  CD1_14
REMARK   12  A    between atoms: CG_13  and  CD2_15
REMARK   13  A    between atoms: C_17  and  CA_19
REMARK   14  A    between atoms: CA_19  and  CB_21
REMARK   15  A    between atoms: CA_19  and  N_25
REMARK   16  A    between atoms: CB_21  and  CG_22
REMARK   17  A    between atoms: CG_22  and  CD1_23
REMARK   18  A    between atoms: CG_22  and  CD2_24
REMARK   19  A    between atoms: C_26  and  C_27
REMARK                            x       y       z     vdW  Elec       q    Type
REMARK                         _______ _______ _______ _____ _____    ______ ____
ROOT
ATOM      1  CA  LEU A   1       7.976  -4.734  24.585  0.00  0.00    +0.159 C 
ENDROOT
BRANCH   1   4
ATOM      2  N   LEU A   1       8.476  -2.346  24.560  0.00  0.00    -0.304 N 
ATOM      3  H   LEU A   1       7.473  -2.226  24.535  0.00  0.00    +0.149 HD
ATOM      4  C   LEU A   1       9.025  -3.597  24.479  0.00  0.00    +0.234 C 
ATOM      5  O   LEU A   1      10.228  -3.776  24.314  0.00  0.00    -0.274 OA
BRANCH   2   6
ATOM      6  CA  LEU A   1       9.230  -1.139  24.784  0.00  0.00    +0.136 C 
BRANCH   6   7
ATOM      7  C   LEU A   1       8.741  -0.635  26.140  0.00  0.00    +0.245 C 
ATOM      8  O   LEU A   1       7.915  -1.242  26.826  0.00  0.00    -0.299 OA
ENDBRANCH   6   7
BRANCH   6   9
ATOM      9  C   LEU A   1       8.915  -0.143  23.679  0.00  0.00    +0.030 C 
BRANCH   9  10
ATOM     10  C   LEU A   1      10.128   0.140  22.804  0.00  0.00    +0.002 C 
BRANCH  10  11
ATOM     11  C   LEU A   1       9.908   1.396  21.969  0.00  0.00    -0.003 C 
ATOM     12  C   LEU A   1       8.465   1.482  21.512  0.00  0.00    +0.004 C 
ENDBRANCH  10  11
ENDBRANCH   9  10
ENDBRANCH   6   9
ENDBRANCH   2   6
ENDBRANCH   1   4
BRANCH   1  13
ATOM     13  N   LEU A   1       7.000  -4.394  25.618  0.00  0.00    -0.302 N 
ATOM     14  H   LEU A   1       6.122  -4.052  25.260  0.00  0.00    +0.150 HD
ATOM     15  C   LEU A   1       6.957  -4.942  26.882  0.00  0.00    +0.234 C 
ATOM     16  O   LEU A   1       7.816  -5.701  27.328  0.00  0.00    -0.274 OA
BRANCH  15  17
ATOM     17  CA  LEU A   1       5.719  -4.526  27.726  0.00  0.00    +0.159 C 
BRANCH  17  18
ATOM     18  N   LEU A   1       5.292  -3.220  27.207  0.00  0.00    -0.304 N 
ATOM     19  H   LEU A   1       5.718  -2.937  26.327  0.00  0.00    +0.149 HD
ATOM     20  C   UNK A   0       4.589  -2.306  27.948  0.00  0.00    +0.211 C 
ATOM     21  O   UNK A   0       4.193  -2.520  29.090  0.00  0.00    -0.276 OA
ATOM     22  C   UNK A   0       4.328  -0.998  27.248  0.00  0.00    +0.109 C 
ENDBRANCH  17  18
BRANCH  17  23
ATOM     23  CB  LEU A   1       4.565  -5.549  27.657  0.00  0.00    +0.034 C 
BRANCH  23  24
ATOM     24  CG  LEU A   1       3.849  -5.718  26.299  0.00  0.00    -0.015 C 
ATOM     25  CD2 LEU A   1       2.345  -5.484  26.460  0.00  0.00    +0.007 C 
ATOM     26  CD1 LEU A   1       4.077  -7.093  25.662  0.00  0.00    +0.007 C 
ENDBRANCH  23  24
ENDBRANCH  17  23
ENDBRANCH  15  17
ENDBRANCH   1  13
BRANCH   1  27
ATOM     27  CB  LEU A   1       7.348  -5.176  23.245  0.00  0.00    +0.034 C 
BRANCH  27  28
ATOM     28  CG  LEU A   1       5.928  -4.655  22.930  0.00  0.00    -0.015 C 
ATOM     29  CD2 LEU A   1       5.073  -5.769  22.322  0.00  0.00    +0.007 C 
ATOM     30  CD1 LEU A   1       5.909  -3.447  21.989  0.00  0.00    +0.007 C 
ENDBRANCH  27  28
ENDBRANCH   1  27
TORSDOF 13
ENDMDL
