MODEL 1
REMARK VINA RESULT:      -4.6      0.000      0.000
REMARK  Name = 
REMARK  2 active torsions:
REMARK  status: ('A' for Active; 'I' for Inactive)
REMARK    1  A    between atoms: O_1  and  C_2
REMARK    2  A    between atoms: C_5  and  C_6
REMARK                            x       y       z     vdW  Elec       q    Type
REMARK                         _______ _______ _______ _____ _____    ______ ____
ROOT
ATOM      1  C   UNL     1      10.034   1.094  22.226  0.00  0.00    +0.117 A 
ATOM      2  C   UNL     1       9.506   0.024  21.509  0.00  0.00    +0.046 A 
ATOM      3  C   UNL     1       9.284  -1.197  22.147  0.00  0.00    +0.014 A 
ATOM      4  C   UNL     1       9.594  -1.330  23.503  0.00  0.00    +0.014 A 
ATOM      5  C   UNL     1      10.117  -0.250  24.222  0.00  0.00    +0.014 A 
ATOM      6  C   UNL     1      10.338   0.970  23.579  0.00  0.00    +0.046 A 
ENDROOT
BRANCH   1   7
ATOM      7  O   UNL     1      10.243   2.263  21.556  0.00  0.00    -0.507 OA
ATOM      8  H   UNL     1      11.179   2.314  21.302  0.00  0.00    +0.292 HD
ENDBRANCH   1   7
BRANCH   4   9
ATOM      9  C   UNL     1       9.366  -2.627  24.174  0.00  0.00    +0.258 C 
ATOM     10  O   UNL     1      10.185  -3.537  24.127  0.00  0.00    -0.296 OA
ENDBRANCH   4   9
TORSDOF 2
ENDMDL
MODEL 2
REMARK VINA RESULT:      -4.6      0.112      1.619
REMARK  Name = 
REMARK  2 active torsions:
REMARK  status: ('A' for Active; 'I' for Inactive)
REMARK    1  A    between atoms: O_1  and  C_2
REMARK    2  A    between atoms: C_5  and  C_6
REMARK                            x       y       z     vdW  Elec       q    Type
REMARK                         _______ _______ _______ _____ _____    ______ ____
ROOT
ATOM      1  C   UNL     1       9.966   1.050  22.131  0.00  0.00    +0.117 A 
ATOM      2  C   UNL     1      10.248   1.015  23.493  0.00  0.00    +0.046 A 
ATOM      3  C   UNL     1      10.074  -0.171  24.207  0.00  0.00    +0.014 A 
ATOM      4  C   UNL     1       9.620  -1.314  23.543  0.00  0.00    +0.014 A 
ATOM      5  C   UNL     1       9.345  -1.276  22.172  0.00  0.00    +0.014 A 
ATOM      6  C   UNL     1       9.520  -0.086  21.461  0.00  0.00    +0.046 A 
ENDROOT
BRANCH   1   7
ATOM      7  O   UNL     1      10.141   2.234  21.479  0.00  0.00    -0.507 OA
ATOM      8  H   UNL     1       9.328   2.759  21.560  0.00  0.00    +0.292 HD
ENDBRANCH   1   7
BRANCH   4   9
ATOM      9  C   UNL     1       9.428  -2.565  24.304  0.00  0.00    +0.258 C 
ATOM     10  O   UNL     1      10.134  -3.550  24.127  0.00  0.00    -0.296 OA
ENDBRANCH   4   9
TORSDOF 2
ENDMDL
MODEL 3
REMARK VINA RESULT:      -4.2      1.886      4.246
REMARK  Name = 
REMARK  2 active torsions:
REMARK  status: ('A' for Active; 'I' for Inactive)
REMARK    1  A    between atoms: O_1  and  C_2
REMARK    2  A    between atoms: C_5  and  C_6
REMARK                            x       y       z     vdW  Elec       q    Type
REMARK                         _______ _______ _______ _____ _____    ______ ____
ROOT
ATOM      1  C   UNL     1      10.054  -0.432  22.251  0.00  0.00    +0.117 A 
ATOM      2  C   UNL     1      10.598  -0.114  23.492  0.00  0.00    +0.046 A 
ATOM      3  C   UNL     1      10.482   1.186  23.988  0.00  0.00    +0.014 A 
ATOM      4  C   UNL     1       9.816   2.154  23.230  0.00  0.00    +0.014 A 
ATOM      5  C   UNL     1       9.264   1.826  21.987  0.00  0.00    +0.014 A 
ATOM      6  C   UNL     1       9.384   0.525  21.494  0.00  0.00    +0.046 A 
ENDROOT
BRANCH   1   7
ATOM      7  O   UNL     1      10.203  -1.712  21.806  0.00  0.00    -0.507 OA
ATOM      8  H   UNL     1       9.743  -1.802  20.955  0.00  0.00    +0.292 HD
ENDBRANCH   1   7
BRANCH   4   9
ATOM      9  C   UNL     1       9.702   3.530  23.752  0.00  0.00    +0.258 C 
ATOM     10  O   UNL     1      10.614   4.343  23.653  0.00  0.00    -0.296 OA
ENDBRANCH   4   9
TORSDOF 2
ENDMDL
MODEL 4
REMARK VINA RESULT:      -4.2      1.912      3.977
REMARK  Name = 
REMARK  2 active torsions:
REMARK  status: ('A' for Active; 'I' for Inactive)
REMARK    1  A    between atoms: O_1  and  C_2
REMARK    2  A    between atoms: C_5  and  C_6
REMARK                            x       y       z     vdW  Elec       q    Type
REMARK                         _______ _______ _______ _____ _____    ______ ____
ROOT
ATOM      1  C   UNL     1      10.021  -0.395  22.204  0.00  0.00    +0.117 A 
ATOM      2  C   UNL     1       9.388   0.615  21.485  0.00  0.00    +0.046 A 
ATOM      3  C   UNL     1       9.233   1.879  22.055  0.00  0.00    +0.014 A 
ATOM      4  C   UNL     1       9.719   2.117  23.344  0.00  0.00    +0.014 A 
ATOM      5  C   UNL     1      10.361   1.101  24.060  0.00  0.00    +0.014 A 
ATOM      6  C   UNL     1      10.513  -0.163  23.485  0.00  0.00    +0.046 A 
ENDROOT
BRANCH   1   7
ATOM      7  O   UNL     1      10.139  -1.615  21.608  0.00  0.00    -0.507 OA
ATOM      8  H   UNL     1       9.291  -2.084  21.686  0.00  0.00    +0.292 HD
ENDBRANCH   1   7
BRANCH   4   9
ATOM      9  C   UNL     1       9.545   3.453  23.949  0.00  0.00    +0.258 C 
ATOM     10  O   UNL     1      10.295   4.387  23.692  0.00  0.00    -0.296 OA
ENDBRANCH   4   9
TORSDOF 2
ENDMDL
MODEL 5
REMARK VINA RESULT:      -3.8      5.187      6.562
REMARK  Name = 
REMARK  2 active torsions:
REMARK  status: ('A' for Active; 'I' for Inactive)
REMARK    1  A    between atoms: O_1  and  C_2
REMARK    2  A    between atoms: C_5  and  C_6
REMARK                            x       y       z     vdW  Elec       q    Type
REMARK                         _______ _______ _______ _____ _____    ______ ____
ROOT
ATOM      1  C   UNL     1       7.624  -5.412  26.162  0.00  0.00    +0.117 A 
ATOM      2  C   UNL     1       6.289  -5.568  25.800  0.00  0.00    +0.046 A 
ATOM      3  C   UNL     1       5.867  -5.187  24.526  0.00  0.00    +0.014 A 
ATOM      4  C   UNL     1       6.792  -4.655  23.625  0.00  0.00    +0.014 A 
ATOM      5  C   UNL     1       8.135  -4.508  23.990  0.00  0.00    +0.014 A 
ATOM      6  C   UNL     1       8.554  -4.889  25.267  0.00  0.00    +0.046 A 
ENDROOT
BRANCH   1   7
ATOM      7  O   UNL     1       7.986  -5.789  27.421  0.00  0.00    -0.507 OA
ATOM      8  H   UNL     1       8.522  -6.597  27.363  0.00  0.00    +0.292 HD
ENDBRANCH   1   7
BRANCH   4   9
ATOM      9  C   UNL     1       6.341  -4.244  22.280  0.00  0.00    +0.258 C 
ATOM     10  O   UNL     1       5.177  -3.940  22.048  0.00  0.00    -0.296 OA
ENDBRANCH   4   9
TORSDOF 2
ENDMDL
MODEL 6
REMARK VINA RESULT:      -3.8      3.920      6.169
REMARK  Name = 
REMARK  2 active torsions:
REMARK  status: ('A' for Active; 'I' for Inactive)
REMARK    1  A    between atoms: O_1  and  C_2
REMARK    2  A    between atoms: C_5  and  C_6
REMARK                            x       y       z     vdW  Elec       q    Type
REMARK                         _______ _______ _______ _____ _____    ______ ____
ROOT
ATOM      1  C   UNL     1       7.798  -5.309  26.361  0.00  0.00    +0.117 A 
ATOM      2  C   UNL     1       8.936  -4.674  25.871  0.00  0.00    +0.046 A 
ATOM      3  C   UNL     1       8.898  -4.047  24.625  0.00  0.00    +0.014 A 
ATOM      4  C   UNL     1       7.713  -4.062  23.883  0.00  0.00    +0.014 A 
ATOM      5  C   UNL     1       6.570  -4.694  24.384  0.00  0.00    +0.014 A 
ATOM      6  C   UNL     1       6.613  -5.322  25.631  0.00  0.00    +0.046 A 
ENDROOT
BRANCH   1   7
ATOM      7  O   UNL     1       7.889  -5.917  27.578  0.00  0.00    -0.507 OA
ATOM      8  H   UNL     1       7.024  -6.301  27.801  0.00  0.00    +0.292 HD
ENDBRANCH   1   7
BRANCH   4   9
ATOM      9  C   UNL     1       7.678  -3.405  22.561  0.00  0.00    +0.258 C 
ATOM     10  O   UNL     1       8.423  -2.476  22.275  0.00  0.00    -0.296 OA
ENDBRANCH   4   9
TORSDOF 2
ENDMDL
MODEL 7
REMARK VINA RESULT:      -3.8      5.986      6.761
REMARK  Name = 
REMARK  2 active torsions:
REMARK  status: ('A' for Active; 'I' for Inactive)
REMARK    1  A    between atoms: O_1  and  C_2
REMARK    2  A    between atoms: C_5  and  C_6
REMARK                            x       y       z     vdW  Elec       q    Type
REMARK                         _______ _______ _______ _____ _____    ______ ____
ROOT
ATOM      1  C   UNL     1       5.848  -5.808  22.908  0.00  0.00    +0.117 A 
ATOM      2  C   UNL     1       7.152  -5.328  22.984  0.00  0.00    +0.046 A 
ATOM      3  C   UNL     1       7.722  -5.065  24.230  0.00  0.00    +0.014 A 
ATOM      4  C   UNL     1       6.975  -5.290  25.390  0.00  0.00    +0.014 A 
ATOM      5  C   UNL     1       5.668  -5.780  25.308  0.00  0.00    +0.014 A 
ATOM      6  C   UNL     1       5.100  -6.041  24.059  0.00  0.00    +0.046 A 
ENDROOT
BRANCH   1   7
ATOM      7  O   UNL     1       5.332  -6.040  21.667  0.00  0.00    -0.507 OA
ATOM      8  H   UNL     1       4.641  -5.380  21.488  0.00  0.00    +0.292 HD
ENDBRANCH   1   7
BRANCH   4   9
ATOM      9  C   UNL     1       7.578  -5.002  26.707  0.00  0.00    +0.258 C 
ATOM     10  O   UNL     1       7.469  -5.770  27.656  0.00  0.00    -0.296 OA
ENDBRANCH   4   9
TORSDOF 2
ENDMDL
MODEL 8
REMARK VINA RESULT:      -3.8      6.015      6.768
REMARK  Name = 
REMARK  2 active torsions:
REMARK  status: ('A' for Active; 'I' for Inactive)
REMARK    1  A    between atoms: O_1  and  C_2
REMARK    2  A    between atoms: C_5  and  C_6
REMARK                            x       y       z     vdW  Elec       q    Type
REMARK                         _______ _______ _______ _____ _____    ______ ____
ROOT
ATOM      1  C   UNL     1       5.883  -5.820  22.863  0.00  0.00    +0.117 A 
ATOM      2  C   UNL     1       5.063  -5.998  23.974  0.00  0.00    +0.046 A 
ATOM      3  C   UNL     1       5.554  -5.719  25.250  0.00  0.00    +0.014 A 
ATOM      4  C   UNL     1       6.867  -5.262  25.397  0.00  0.00    +0.014 A 
ATOM      5  C   UNL     1       7.684  -5.077  24.277  0.00  0.00    +0.014 A 
ATOM      6  C   UNL     1       7.189  -5.359  23.001  0.00  0.00    +0.046 A 
ENDROOT
BRANCH   1   7
ATOM      7  O   UNL     1       5.361  -6.116  21.639  0.00  0.00    -0.507 OA
ATOM      8  H   UNL     1       4.545  -5.603  21.515  0.00  0.00    +0.292 HD
ENDBRANCH   1   7
BRANCH   4   9
ATOM      9  C   UNL     1       7.387  -4.976  26.749  0.00  0.00    +0.258 C 
ATOM     10  O   UNL     1       7.510  -5.851  27.599  0.00  0.00    -0.296 OA
ENDBRANCH   4   9
TORSDOF 2
ENDMDL
MODEL 9
REMARK VINA RESULT:      -3.7      4.384      5.977
REMARK  Name = 
REMARK  2 active torsions:
REMARK  status: ('A' for Active; 'I' for Inactive)
REMARK    1  A    between atoms: O_1  and  C_2
REMARK    2  A    between atoms: C_5  and  C_6
REMARK                            x       y       z     vdW  Elec       q    Type
REMARK                         _______ _______ _______ _____ _____    ______ ____
ROOT
ATOM      1  C   UNL     1       8.997  -4.116  24.676  0.00  0.00    +0.117 A 
ATOM      2  C   UNL     1       9.024  -4.599  25.981  0.00  0.00    +0.046 A 
ATOM      3  C   UNL     1       7.907  -5.251  26.503  0.00  0.00    +0.014 A 
ATOM      4  C   UNL     1       6.771  -5.415  25.705  0.00  0.00    +0.014 A 
ATOM      5  C   UNL     1       6.751  -4.935  24.391  0.00  0.00    +0.014 A 
ATOM      6  C   UNL     1       7.872  -4.281  23.873  0.00  0.00    +0.046 A 
ENDROOT
BRANCH   1   7
ATOM      7  O   UNL     1      10.110  -3.477  24.216  0.00  0.00    -0.507 OA
ATOM      8  H   UNL     1       9.842  -2.832  23.540  0.00  0.00    +0.292 HD
ENDBRANCH   1   7
BRANCH   4   9
ATOM      9  C   UNL     1       5.586  -6.097  26.262  0.00  0.00    +0.258 C 
ATOM     10  O   UNL     1       5.661  -6.855  27.222  0.00  0.00    -0.296 OA
ENDBRANCH   4   9
TORSDOF 2
ENDMDL
