MODEL 1
REMARK VINA RESULT:      -4.9      0.000      0.000
REMARK  Name = 
REMARK  5 active torsions:
REMARK  status: ('A' for Active; 'I' for Inactive)
REMARK    1  A    between atoms: C_2  and  O_3
REMARK    2  A    between atoms: C_2  and  C_4
REMARK    3  A    between atoms: C_2  and  C_11
REMARK    4  A    between atoms: C_4  and  C_5
REMARK    5  A    between atoms: C_11  and  O_12
REMARK                            x       y       z     vdW  Elec       q    Type
REMARK                         _______ _______ _______ _____ _____    ______ ____
ROOT
ATOM      1  C   UNL     1       9.338  -2.671  23.831  0.00  0.00    +0.227 C 
ENDROOT
BRANCH   1   2
ATOM      2  O   UNL     1       9.942  -3.846  24.416  0.00  0.00    -0.380 OA
ATOM      3  H   UNL     1       9.389  -4.104  25.179  0.00  0.00    +0.211 HD
ENDBRANCH   1   2
BRANCH   1   4
ATOM      4  C   UNL     1       8.122  -3.181  23.050  0.00  0.00    +0.334 C 
ATOM      5  O   UNL     1       7.467  -2.541  22.244  0.00  0.00    -0.248 OA
BRANCH   4   6
ATOM      6  O   UNL     1       7.841  -4.473  23.375  0.00  0.00    -0.479 OA
ATOM      7  H   UNL     1       8.281  -5.053  22.707  0.00  0.00    +0.295 HD
ENDBRANCH   4   6
ENDBRANCH   1   4
BRANCH   1   8
ATOM      8  C   UNL     1      10.299  -1.908  22.908  0.00  0.00    +0.078 C 
BRANCH   8   9
ATOM      9  C   UNL     1      10.236  -0.394  22.980  0.00  0.00    -0.044 A 
ATOM     10  C   UNL     1       9.789   0.320  21.853  0.00  0.00    +0.004 A 
ATOM     11  C   UNL     1       9.756   1.716  21.855  0.00  0.00    +0.000 A 
ATOM     12  C   UNL     1      10.181   2.423  22.976  0.00  0.00    +0.000 A 
ATOM     13  C   UNL     1      10.643   1.733  24.092  0.00  0.00    +0.000 A 
ATOM     14  C   UNL     1      10.673   0.337  24.093  0.00  0.00    +0.004 A 
ENDBRANCH   8   9
ENDBRANCH   1   8
TORSDOF 5
ENDMDL
MODEL 2
REMARK VINA RESULT:      -4.8      2.910      5.028
REMARK  Name = 
REMARK  5 active torsions:
REMARK  status: ('A' for Active; 'I' for Inactive)
REMARK    1  A    between atoms: C_2  and  O_3
REMARK    2  A    between atoms: C_2  and  C_4
REMARK    3  A    between atoms: C_2  and  C_11
REMARK    4  A    between atoms: C_4  and  C_5
REMARK    5  A    between atoms: C_11  and  O_12
REMARK                            x       y       z     vdW  Elec       q    Type
REMARK                         _______ _______ _______ _____ _____    ______ ____
ROOT
ATOM      1  C   UNL     1       9.061   0.646  21.986  0.00  0.00    +0.227 C 
ENDROOT
BRANCH   1   2
ATOM      2  O   UNL     1       8.601   1.320  20.794  0.00  0.00    -0.380 OA
ATOM      3  H   UNL     1       8.354   2.229  21.055  0.00  0.00    +0.211 HD
ENDBRANCH   1   2
BRANCH   1   4
ATOM      4  C   UNL     1      10.077   1.595  22.628  0.00  0.00    +0.334 C 
ATOM      5  O   UNL     1      10.468   1.553  23.783  0.00  0.00    -0.248 OA
BRANCH   4   6
ATOM      6  O   UNL     1      10.504   2.529  21.735  0.00  0.00    -0.479 OA
ATOM      7  H   UNL     1      10.538   3.398  22.202  0.00  0.00    +0.295 HD
ENDBRANCH   4   6
ENDBRANCH   1   4
BRANCH   1   8
ATOM      8  C   UNL     1       9.699  -0.718  21.685  0.00  0.00    +0.078 C 
BRANCH   8   9
ATOM      9  C   UNL     1       9.233  -1.880  22.541  0.00  0.00    -0.044 A 
ATOM     10  C   UNL     1       8.000  -2.489  22.244  0.00  0.00    +0.004 A 
ATOM     11  C   UNL     1       7.507  -3.532  23.031  0.00  0.00    +0.000 A 
ATOM     12  C   UNL     1       8.229  -3.976  24.134  0.00  0.00    +0.000 A 
ATOM     13  C   UNL     1       9.442  -3.373  24.453  0.00  0.00    +0.000 A 
ATOM     14  C   UNL     1       9.938  -2.332  23.665  0.00  0.00    +0.004 A 
ENDBRANCH   8   9
ENDBRANCH   1   8
TORSDOF 5
ENDMDL
MODEL 3
REMARK VINA RESULT:      -4.8      2.034      3.152
REMARK  Name = 
REMARK  5 active torsions:
REMARK  status: ('A' for Active; 'I' for Inactive)
REMARK    1  A    between atoms: C_2  and  O_3
REMARK    2  A    between atoms: C_2  and  C_4
REMARK    3  A    between atoms: C_2  and  C_11
REMARK    4  A    between atoms: C_4  and  C_5
REMARK    5  A    between atoms: C_11  and  O_12
REMARK                            x       y       z     vdW  Elec       q    Type
REMARK                         _______ _______ _______ _____ _____    ______ ____
ROOT
ATOM      1  C   UNL     1       9.387  -4.304  25.126  0.00  0.00    +0.227 C 
ENDROOT
BRANCH   1   2
ATOM      2  O   UNL     1       9.925  -5.583  24.724  0.00  0.00    -0.380 OA
ATOM      3  H   UNL     1      10.063  -5.546  23.757  0.00  0.00    +0.211 HD
ENDBRANCH   1   2
BRANCH   1   4
ATOM      4  C   UNL     1       8.524  -4.591  26.360  0.00  0.00    +0.334 C 
ATOM      5  O   UNL     1       7.956  -3.759  27.048  0.00  0.00    -0.248 OA
BRANCH   4   6
ATOM      6  O   UNL     1       8.467  -5.927  26.614  0.00  0.00    -0.479 OA
ATOM      7  H   UNL     1       9.355  -6.309  26.412  0.00  0.00    +0.295 HD
ENDBRANCH   4   6
ENDBRANCH   1   4
BRANCH   1   8
ATOM      8  C   UNL     1       8.555  -3.637  24.021  0.00  0.00    +0.078 C 
BRANCH   8   9
ATOM      9  C   UNL     1       9.104  -2.339  23.460  0.00  0.00    -0.044 A 
ATOM     10  C   UNL     1       9.775  -1.456  24.326  0.00  0.00    +0.004 A 
ATOM     11  C   UNL     1      10.258  -0.229  23.866  0.00  0.00    +0.000 A 
ATOM     12  C   UNL     1      10.068   0.143  22.538  0.00  0.00    +0.000 A 
ATOM     13  C   UNL     1       9.392  -0.711  21.673  0.00  0.00    +0.000 A 
ATOM     14  C   UNL     1       8.911  -1.940  22.130  0.00  0.00    +0.004 A 
ENDBRANCH   8   9
ENDBRANCH   1   8
TORSDOF 5
ENDMDL
MODEL 4
REMARK VINA RESULT:      -4.8      1.917      2.715
REMARK  Name = 
REMARK  5 active torsions:
REMARK  status: ('A' for Active; 'I' for Inactive)
REMARK    1  A    between atoms: C_2  and  O_3
REMARK    2  A    between atoms: C_2  and  C_4
REMARK    3  A    between atoms: C_2  and  C_11
REMARK    4  A    between atoms: C_4  and  C_5
REMARK    5  A    between atoms: C_11  and  O_12
REMARK                            x       y       z     vdW  Elec       q    Type
REMARK                         _______ _______ _______ _____ _____    ______ ____
ROOT
ATOM      1  C   UNL     1       9.029  -4.351  25.106  0.00  0.00    +0.227 C 
ENDROOT
BRANCH   1   2
ATOM      2  O   UNL     1      10.134  -5.246  24.850  0.00  0.00    -0.380 OA
ATOM      3  H   UNL     1      10.941  -4.812  25.191  0.00  0.00    +0.211 HD
ENDBRANCH   1   2
BRANCH   1   4
ATOM      4  C   UNL     1       7.948  -5.214  25.767  0.00  0.00    +0.334 C 
ATOM      5  O   UNL     1       6.808  -5.369  25.362  0.00  0.00    -0.248 OA
BRANCH   4   6
ATOM      6  O   UNL     1       8.419  -5.801  26.901  0.00  0.00    -0.479 OA
ATOM      7  H   UNL     1       9.118  -6.446  26.637  0.00  0.00    +0.295 HD
ENDBRANCH   4   6
ENDBRANCH   1   4
BRANCH   1   8
ATOM      8  C   UNL     1       8.495  -3.688  23.829  0.00  0.00    +0.078 C 
BRANCH   8   9
ATOM      9  C   UNL     1       9.052  -2.316  23.502  0.00  0.00    -0.044 A 
ATOM     10  C   UNL     1       9.058  -1.888  22.162  0.00  0.00    +0.004 A 
ATOM     11  C   UNL     1       9.602  -0.651  21.806  0.00  0.00    +0.000 A 
ATOM     12  C   UNL     1      10.161   0.171  22.780  0.00  0.00    +0.000 A 
ATOM     13  C   UNL     1      10.181  -0.245  24.107  0.00  0.00    +0.000 A 
ATOM     14  C   UNL     1       9.634  -1.479  24.465  0.00  0.00    +0.004 A 
ENDBRANCH   8   9
ENDBRANCH   1   8
TORSDOF 5
ENDMDL
MODEL 5
REMARK VINA RESULT:      -4.6      1.384      2.246
REMARK  Name = 
REMARK  5 active torsions:
REMARK  status: ('A' for Active; 'I' for Inactive)
REMARK    1  A    between atoms: C_2  and  O_3
REMARK    2  A    between atoms: C_2  and  C_4
REMARK    3  A    between atoms: C_2  and  C_11
REMARK    4  A    between atoms: C_4  and  C_5
REMARK    5  A    between atoms: C_11  and  O_12
REMARK                            x       y       z     vdW  Elec       q    Type
REMARK                         _______ _______ _______ _____ _____    ______ ____
ROOT
ATOM      1  C   UNL     1       8.770  -2.873  24.399  0.00  0.00    +0.227 C 
ENDROOT
BRANCH   1   2
ATOM      2  O   UNL     1       8.578  -2.259  25.693  0.00  0.00    -0.380 OA
ATOM      3  H   UNL     1       7.963  -1.510  25.568  0.00  0.00    +0.211 HD
ENDBRANCH   1   2
BRANCH   1   4
ATOM      4  C   UNL     1       8.832  -4.380  24.665  0.00  0.00    +0.334 C 
ATOM      5  O   UNL     1       9.847  -5.051  24.756  0.00  0.00    -0.248 OA
BRANCH   4   6
ATOM      6  O   UNL     1       7.583  -4.907  24.784  0.00  0.00    -0.479 OA
ATOM      7  H   UNL     1       6.984  -4.190  25.105  0.00  0.00    +0.295 HD
ENDBRANCH   4   6
ENDBRANCH   1   4
BRANCH   1   8
ATOM      8  C   UNL     1      10.047  -2.388  23.697  0.00  0.00    +0.078 C 
BRANCH   8   9
ATOM      9  C   UNL     1       9.986  -1.005  23.075  0.00  0.00    -0.044 A 
ATOM     10  C   UNL     1      10.472   0.090  23.811  0.00  0.00    +0.004 A 
ATOM     11  C   UNL     1      10.396   1.388  23.299  0.00  0.00    +0.000 A 
ATOM     12  C   UNL     1       9.823   1.614  22.052  0.00  0.00    +0.000 A 
ATOM     13  C   UNL     1       9.321   0.543  21.319  0.00  0.00    +0.000 A 
ATOM     14  C   UNL     1       9.399  -0.755  21.828  0.00  0.00    +0.004 A 
ENDBRANCH   8   9
ENDBRANCH   1   8
TORSDOF 5
ENDMDL
MODEL 6
REMARK VINA RESULT:      -4.6      2.506      5.259
REMARK  Name = 
REMARK  5 active torsions:
REMARK  status: ('A' for Active; 'I' for Inactive)
REMARK    1  A    between atoms: C_2  and  O_3
REMARK    2  A    between atoms: C_2  and  C_4
REMARK    3  A    between atoms: C_2  and  C_11
REMARK    4  A    between atoms: C_4  and  C_5
REMARK    5  A    between atoms: C_11  and  O_12
REMARK                            x       y       z     vdW  Elec       q    Type
REMARK                         _______ _______ _______ _____ _____    ______ ____
ROOT
ATOM      1  C   UNL     1       9.161  -0.822  21.751  0.00  0.00    +0.227 C 
ENDROOT
BRANCH   1   2
ATOM      2  O   UNL     1      10.387  -1.535  21.479  0.00  0.00    -0.380 OA
ATOM      3  H   UNL     1      10.486  -2.213  22.176  0.00  0.00    +0.211 HD
ENDBRANCH   1   2
BRANCH   1   4
ATOM      4  C   UNL     1       9.568   0.646  21.914  0.00  0.00    +0.334 C 
ATOM      5  O   UNL     1      10.325   1.091  22.761  0.00  0.00    -0.248 OA
BRANCH   4   6
ATOM      6  O   UNL     1       8.962   1.428  20.979  0.00  0.00    -0.479 OA
ATOM      7  H   UNL     1       9.171   2.369  21.193  0.00  0.00    +0.295 HD
ENDBRANCH   4   6
ENDBRANCH   1   4
BRANCH   1   8
ATOM      8  C   UNL     1       8.444  -1.334  23.008  0.00  0.00    +0.078 C 
BRANCH   8   9
ATOM      9  C   UNL     1       8.047  -2.798  23.004  0.00  0.00    -0.044 A 
ATOM     10  C   UNL     1       7.093  -3.239  22.069  0.00  0.00    +0.004 A 
ATOM     11  C   UNL     1       6.662  -4.567  22.056  0.00  0.00    +0.000 A 
ATOM     12  C   UNL     1       7.166  -5.474  22.984  0.00  0.00    +0.000 A 
ATOM     13  C   UNL     1       8.097  -5.049  23.927  0.00  0.00    +0.000 A 
ATOM     14  C   UNL     1       8.531  -3.722  23.939  0.00  0.00    +0.004 A 
ENDBRANCH   8   9
ENDBRANCH   1   8
TORSDOF 5
ENDMDL
MODEL 7
REMARK VINA RESULT:      -4.5      4.241      5.904
REMARK  Name = 
REMARK  5 active torsions:
REMARK  status: ('A' for Active; 'I' for Inactive)
REMARK    1  A    between atoms: C_2  and  O_3
REMARK    2  A    between atoms: C_2  and  C_4
REMARK    3  A    between atoms: C_2  and  C_11
REMARK    4  A    between atoms: C_4  and  C_5
REMARK    5  A    between atoms: C_11  and  O_12
REMARK                            x       y       z     vdW  Elec       q    Type
REMARK                         _______ _______ _______ _____ _____    ______ ____
ROOT
ATOM      1  C   UNL     1       9.351  -4.482  25.250  0.00  0.00    +0.227 C 
ENDROOT
BRANCH   1   2
ATOM      2  O   UNL     1       9.803  -5.793  24.844  0.00  0.00    -0.380 OA
ATOM      3  H   UNL     1       9.033  -6.392  24.898  0.00  0.00    +0.211 HD
ENDBRANCH   1   2
BRANCH   1   4
ATOM      4  C   UNL     1       8.412  -4.721  26.436  0.00  0.00    +0.334 C 
ATOM      5  O   UNL     1       7.830  -3.860  27.076  0.00  0.00    -0.248 OA
BRANCH   4   6
ATOM      6  O   UNL     1       8.302  -6.050  26.712  0.00  0.00    -0.479 OA
ATOM      7  H   UNL     1       7.934  -6.493  25.910  0.00  0.00    +0.295 HD
ENDBRANCH   4   6
ENDBRANCH   1   4
BRANCH   1   8
ATOM      8  C   UNL     1       8.628  -3.731  24.123  0.00  0.00    +0.078 C 
BRANCH   8   9
ATOM      9  C   UNL     1       7.411  -4.417  23.533  0.00  0.00    -0.044 A 
ATOM     10  C   UNL     1       6.131  -3.970  23.908  0.00  0.00    +0.004 A 
ATOM     11  C   UNL     1       4.981  -4.600  23.426  0.00  0.00    +0.000 A 
ATOM     12  C   UNL     1       5.090  -5.694  22.574  0.00  0.00    +0.000 A 
ATOM     13  C   UNL     1       6.348  -6.160  22.207  0.00  0.00    +0.000 A 
ATOM     14  C   UNL     1       7.499  -5.530  22.684  0.00  0.00    +0.004 A 
ENDBRANCH   8   9
ENDBRANCH   1   8
TORSDOF 5
ENDMDL
MODEL 8
REMARK VINA RESULT:      -4.5      1.742      2.702
REMARK  Name = 
REMARK  5 active torsions:
REMARK  status: ('A' for Active; 'I' for Inactive)
REMARK    1  A    between atoms: C_2  and  O_3
REMARK    2  A    between atoms: C_2  and  C_4
REMARK    3  A    between atoms: C_2  and  C_11
REMARK    4  A    between atoms: C_4  and  C_5
REMARK    5  A    between atoms: C_11  and  O_12
REMARK                            x       y       z     vdW  Elec       q    Type
REMARK                         _______ _______ _______ _____ _____    ______ ____
ROOT
ATOM      1  C   UNL     1       8.880  -1.240  24.024  0.00  0.00    +0.227 C 
ENDROOT
BRANCH   1   2
ATOM      2  O   UNL     1       7.765  -2.002  24.539  0.00  0.00    -0.380 OA
ATOM      3  H   UNL     1       8.026  -2.944  24.517  0.00  0.00    +0.211 HD
ENDBRANCH   1   2
BRANCH   1   4
ATOM      4  C   UNL     1       9.919  -2.277  23.586  0.00  0.00    +0.334 C 
ATOM      5  O   UNL     1      10.120  -3.358  24.114  0.00  0.00    -0.248 OA
BRANCH   4   6
ATOM      6  O   UNL     1      10.623  -1.837  22.508  0.00  0.00    -0.479 OA
ATOM      7  H   UNL     1      10.087  -2.029  21.701  0.00  0.00    +0.295 HD
ENDBRANCH   4   6
ENDBRANCH   1   4
BRANCH   1   8
ATOM      8  C   UNL     1       9.471  -0.279  25.065  0.00  0.00    +0.078 C 
BRANCH   8   9
ATOM      9  C   UNL     1       9.603   1.171  24.640  0.00  0.00    -0.044 A 
ATOM     10  C   UNL     1       8.583   2.075  24.987  0.00  0.00    +0.004 A 
ATOM     11  C   UNL     1       8.638   3.410  24.579  0.00  0.00    +0.000 A 
ATOM     12  C   UNL     1       9.705   3.861  23.808  0.00  0.00    +0.000 A 
ATOM     13  C   UNL     1      10.713   2.976  23.441  0.00  0.00    +0.000 A 
ATOM     14  C   UNL     1      10.662   1.642  23.851  0.00  0.00    +0.004 A 
ENDBRANCH   8   9
ENDBRANCH   1   8
TORSDOF 5
ENDMDL
MODEL 9
REMARK VINA RESULT:      -4.4      2.020      3.437
REMARK  Name = 
REMARK  5 active torsions:
REMARK  status: ('A' for Active; 'I' for Inactive)
REMARK    1  A    between atoms: C_2  and  O_3
REMARK    2  A    between atoms: C_2  and  C_4
REMARK    3  A    between atoms: C_2  and  C_11
REMARK    4  A    between atoms: C_4  and  C_5
REMARK    5  A    between atoms: C_11  and  O_12
REMARK                            x       y       z     vdW  Elec       q    Type
REMARK                         _______ _______ _______ _____ _____    ______ ____
ROOT
ATOM      1  C   UNL     1       6.675  -3.762  21.816  0.00  0.00    +0.227 C 
ENDROOT
BRANCH   1   2
ATOM      2  O   UNL     1       5.301  -3.332  21.936  0.00  0.00    -0.380 OA
ATOM      3  H   UNL     1       5.316  -2.389  22.193  0.00  0.00    +0.211 HD
ENDBRANCH   1   2
BRANCH   1   4
ATOM      4  C   UNL     1       6.610  -5.252  21.467  0.00  0.00    +0.334 C 
ATOM      5  O   UNL     1       5.899  -5.759  20.615  0.00  0.00    -0.248 OA
BRANCH   4   6
ATOM      6  O   UNL     1       7.459  -5.974  22.249  0.00  0.00    -0.479 OA
ATOM      7  H   UNL     1       7.768  -5.386  22.979  0.00  0.00    +0.295 HD
ENDBRANCH   4   6
ENDBRANCH   1   4
BRANCH   1   8
ATOM      8  C   UNL     1       7.481  -3.536  23.104  0.00  0.00    +0.078 C 
BRANCH   8   9
ATOM      9  C   UNL     1       8.496  -2.410  23.070  0.00  0.00    -0.044 A 
ATOM     10  C   UNL     1       9.050  -1.961  24.282  0.00  0.00    +0.004 A 
ATOM     11  C   UNL     1       9.955  -0.897  24.307  0.00  0.00    +0.000 A 
ATOM     12  C   UNL     1      10.311  -0.255  23.124  0.00  0.00    +0.000 A 
ATOM     13  C   UNL     1       9.758  -0.675  21.919  0.00  0.00    +0.000 A 
ATOM     14  C   UNL     1       8.856  -1.741  21.892  0.00  0.00    +0.004 A 
ENDBRANCH   8   9
ENDBRANCH   1   8
TORSDOF 5
ENDMDL
