MODEL 1
REMARK VINA RESULT:      -6.8      0.000      0.000
REMARK  Name = 
REMARK  7 active torsions:
REMARK  status: ('A' for Active; 'I' for Inactive)
REMARK    1  A    between atoms: C_2  and  C_3
REMARK    2  A    between atoms: C_3  and  O_4
REMARK    3  A    between atoms: O_4  and  P_5
REMARK    4  A    between atoms: P_5  and  O_6
REMARK    5  A    between atoms: P_5  and  O_7
REMARK    6  A    between atoms: C_10  and  N_14
REMARK    7  A    between atoms: C_16  and  C_17
REMARK                            x       y       z     vdW  Elec       q    Type
REMARK                         _______ _______ _______ _____ _____    ______ ____
ROOT
ATOM      1  C   UNL     1       9.366  -1.985  22.717  0.00  0.00    +0.170 C 
ATOM      2  C   UNL     1       7.908  -1.950  22.399  0.00  0.00    +0.007 C 
ATOM      3  C   UNL     1       7.323  -3.049  22.879  0.00  0.00    +0.025 C 
ATOM      4  C   UNL     1       8.344  -3.908  23.538  0.00  0.00    +0.248 C 
ATOM      5  O   UNL     1       9.484  -3.040  23.699  0.00  0.00    -0.343 OA
ENDROOT
BRANCH   4   6
ATOM      6  N   UNL     1       7.878  -4.396  24.831  0.00  0.00    -0.270 N 
ATOM      7  C   UNL     1       8.669  -5.350  25.456  0.00  0.00    +0.332 A 
ATOM      8  O   UNL     1       9.701  -5.827  24.975  0.00  0.00    -0.246 OA
ATOM      9  N   UNL     1       8.237  -5.748  26.696  0.00  0.00    -0.275 N 
ATOM     10  H   UNL     1       8.813  -6.417  27.178  0.00  0.00    +0.173 HD
ATOM     11  C   UNL     1       7.138  -5.289  27.352  0.00  0.00    +0.257 A 
ATOM     12  O   UNL     1       6.851  -5.665  28.486  0.00  0.00    -0.267 OA
ATOM     13  C   UNL     1       6.299  -4.303  26.629  0.00  0.00    +0.030 A 
ATOM     14  C   UNL     1       5.073  -3.804  27.298  0.00  0.00    +0.051 C 
ATOM     15  C   UNL     1       6.714  -3.919  25.406  0.00  0.00    +0.102 A 
ENDBRANCH   4   6
BRANCH   1  16
ATOM     16  C   UNL     1       9.919  -0.670  23.282  0.00  0.00    +0.208 C 
BRANCH  16  17
ATOM     17  O   UNL     1      10.182   0.244  22.217  0.00  0.00    -0.284 OA
BRANCH  17  18
ATOM     18  P   UNL     1       9.214   1.677  22.254  0.00  0.00    +0.472 P 
ATOM     19  O   UNL     1       8.347   2.959  22.287  0.00  0.00    -0.228 OA
BRANCH  18  20
ATOM     20  O   UNL     1       8.678   1.176  20.797  0.00  0.00    -0.303 OA
ATOM     21  H   UNL     1       7.908   1.722  20.557  0.00  0.00    +0.222 HD
ENDBRANCH  18  20
BRANCH  18  22
ATOM     22  O   UNL     1      10.525   2.491  21.718  0.00  0.00    -0.303 OA
ATOM     23  H   UNL     1      11.231   2.321  22.374  0.00  0.00    +0.222 HD
ENDBRANCH  18  22
ENDBRANCH  17  18
ENDBRANCH  16  17
ENDBRANCH   1  16
TORSDOF 6
ENDMDL
MODEL 2
REMARK VINA RESULT:      -6.8      1.195      1.585
REMARK  Name = 
REMARK  7 active torsions:
REMARK  status: ('A' for Active; 'I' for Inactive)
REMARK    1  A    between atoms: C_2  and  C_3
REMARK    2  A    between atoms: C_3  and  O_4
REMARK    3  A    between atoms: O_4  and  P_5
REMARK    4  A    between atoms: P_5  and  O_6
REMARK    5  A    between atoms: P_5  and  O_7
REMARK    6  A    between atoms: C_10  and  N_14
REMARK    7  A    between atoms: C_16  and  C_17
REMARK                            x       y       z     vdW  Elec       q    Type
REMARK                         _______ _______ _______ _____ _____    ______ ____
ROOT
ATOM      1  C   UNL     1       8.970  -0.590  23.559  0.00  0.00    +0.170 C 
ATOM      2  C   UNL     1       8.244  -1.470  22.595  0.00  0.00    +0.007 C 
ATOM      3  C   UNL     1       8.356  -2.741  22.985  0.00  0.00    +0.025 C 
ATOM      4  C   UNL     1       9.175  -2.811  24.225  0.00  0.00    +0.248 C 
ATOM      5  O   UNL     1       9.219  -1.449  24.696  0.00  0.00    -0.343 OA
ENDROOT
BRANCH   4   6
ATOM      6  N   UNL     1       8.564  -3.683  25.221  0.00  0.00    -0.270 N 
ATOM      7  C   UNL     1       9.264  -4.836  25.549  0.00  0.00    +0.332 A 
ATOM      8  O   UNL     1      10.332  -5.178  25.031  0.00  0.00    -0.246 OA
ATOM      9  N   UNL     1       8.694  -5.609  26.530  0.00  0.00    -0.275 N 
ATOM     10  H   UNL     1       9.202  -6.433  26.803  0.00  0.00    +0.173 HD
ATOM     11  C   UNL     1       7.541  -5.340  27.199  0.00  0.00    +0.257 A 
ATOM     12  O   UNL     1       7.127  -6.063  28.102  0.00  0.00    -0.267 OA
ATOM     13  C   UNL     1       6.805  -4.122  26.785  0.00  0.00    +0.030 A 
ATOM     14  C   UNL     1       5.524  -3.813  27.468  0.00  0.00    +0.051 C 
ATOM     15  C   UNL     1       7.355  -3.367  25.814  0.00  0.00    +0.102 A 
ENDBRANCH   4   6
BRANCH   1  16
ATOM     16  C   UNL     1       8.182   0.652  23.994  0.00  0.00    +0.208 C 
BRANCH  16  17
ATOM     17  O   UNL     1       8.369   1.703  23.046  0.00  0.00    -0.284 OA
BRANCH  17  18
ATOM     18  P   UNL     1       9.868   2.550  23.209  0.00  0.00    +0.472 P 
ATOM     19  O   UNL     1      11.210   3.307  23.355  0.00  0.00    -0.228 OA
BRANCH  18  20
ATOM     20  O   UNL     1       8.978   3.884  22.916  0.00  0.00    -0.303 OA
ATOM     21  H   UNL     1       8.074   3.719  23.241  0.00  0.00    +0.222 HD
ENDBRANCH  18  20
BRANCH  18  22
ATOM     22  O   UNL     1      10.173   2.165  21.651  0.00  0.00    -0.303 OA
ATOM     23  H   UNL     1       9.643   1.363  21.465  0.00  0.00    +0.222 HD
ENDBRANCH  18  22
ENDBRANCH  17  18
ENDBRANCH  16  17
ENDBRANCH   1  16
TORSDOF 6
ENDMDL
MODEL 3
REMARK VINA RESULT:      -6.6      3.894      5.116
REMARK  Name = 
REMARK  7 active torsions:
REMARK  status: ('A' for Active; 'I' for Inactive)
REMARK    1  A    between atoms: C_2  and  C_3
REMARK    2  A    between atoms: C_3  and  O_4
REMARK    3  A    between atoms: O_4  and  P_5
REMARK    4  A    between atoms: P_5  and  O_6
REMARK    5  A    between atoms: P_5  and  O_7
REMARK    6  A    between atoms: C_10  and  N_14
REMARK    7  A    between atoms: C_16  and  C_17
REMARK                            x       y       z     vdW  Elec       q    Type
REMARK                         _______ _______ _______ _____ _____    ______ ____
ROOT
ATOM      1  C   UNL     1       8.713  -2.404  22.950  0.00  0.00    +0.170 C 
ATOM      2  C   UNL     1       7.647  -1.398  23.238  0.00  0.00    +0.007 C 
ATOM      3  C   UNL     1       6.479  -1.844  22.770  0.00  0.00    +0.025 C 
ATOM      4  C   UNL     1       6.677  -3.169  22.122  0.00  0.00    +0.248 C 
ATOM      5  O   UNL     1       7.979  -3.592  22.572  0.00  0.00    -0.343 OA
ENDROOT
BRANCH   4   6
ATOM      6  N   UNL     1       5.653  -4.123  22.532  0.00  0.00    -0.270 N 
ATOM      7  C   UNL     1       5.685  -5.369  21.921  0.00  0.00    +0.332 A 
ATOM      8  O   UNL     1       6.489  -5.697  21.043  0.00  0.00    -0.246 OA
ATOM      9  N   UNL     1       4.746  -6.265  22.367  0.00  0.00    -0.275 N 
ATOM     10  H   UNL     1       4.773  -7.184  21.959  0.00  0.00    +0.173 HD
ATOM     11  C   UNL     1       3.822  -6.046  23.341  0.00  0.00    +0.257 A 
ATOM     12  O   UNL     1       3.049  -6.924  23.716  0.00  0.00    -0.267 OA
ATOM     13  C   UNL     1       3.795  -4.687  23.934  0.00  0.00    +0.030 A 
ATOM     14  C   UNL     1       2.778  -4.399  24.975  0.00  0.00    +0.051 C 
ATOM     15  C   UNL     1       4.708  -3.801  23.489  0.00  0.00    +0.102 A 
ENDBRANCH   4   6
BRANCH   1  16
ATOM     16  C   UNL     1       9.634  -2.703  24.140  0.00  0.00    +0.208 C 
BRANCH  16  17
ATOM     17  O   UNL     1       9.665  -4.108  24.388  0.00  0.00    -0.284 OA
BRANCH  17  18
ATOM     18  P   UNL     1       8.919  -4.585  25.874  0.00  0.00    +0.472 P 
ATOM     19  O   UNL     1       8.252  -5.011  27.205  0.00  0.00    -0.228 OA
BRANCH  18  20
ATOM     20  O   UNL     1       9.898  -5.886  25.778  0.00  0.00    -0.303 OA
ATOM     21  H   UNL     1      10.305  -5.891  24.893  0.00  0.00    +0.222 HD
ENDBRANCH  18  20
BRANCH  18  22
ATOM     22  O   UNL     1       7.692  -5.190  24.982  0.00  0.00    -0.303 OA
ATOM     23  H   UNL     1       7.476  -6.059  25.378  0.00  0.00    +0.222 HD
ENDBRANCH  18  22
ENDBRANCH  17  18
ENDBRANCH  16  17
ENDBRANCH   1  16
TORSDOF 6
ENDMDL
MODEL 4
REMARK VINA RESULT:      -6.4      2.243      2.821
REMARK  Name = 
REMARK  7 active torsions:
REMARK  status: ('A' for Active; 'I' for Inactive)
REMARK    1  A    between atoms: C_2  and  C_3
REMARK    2  A    between atoms: C_3  and  O_4
REMARK    3  A    between atoms: O_4  and  P_5
REMARK    4  A    between atoms: P_5  and  O_6
REMARK    5  A    between atoms: P_5  and  O_7
REMARK    6  A    between atoms: C_10  and  N_14
REMARK    7  A    between atoms: C_16  and  C_17
REMARK                            x       y       z     vdW  Elec       q    Type
REMARK                         _______ _______ _______ _____ _____    ______ ____
ROOT
ATOM      1  C   UNL     1      10.162   0.059  24.381  0.00  0.00    +0.170 C 
ATOM      2  C   UNL     1      10.437  -0.272  22.951  0.00  0.00    +0.007 C 
ATOM      3  C   UNL     1      10.292  -1.585  22.765  0.00  0.00    +0.025 C 
ATOM      4  C   UNL     1       9.927  -2.233  24.054  0.00  0.00    +0.248 C 
ATOM      5  O   UNL     1       9.534  -1.135  24.902  0.00  0.00    -0.343 OA
ENDROOT
BRANCH   4   6
ATOM      6  N   UNL     1       8.827  -3.176  23.886  0.00  0.00    -0.270 N 
ATOM      7  C   UNL     1       9.001  -4.437  24.442  0.00  0.00    +0.332 A 
ATOM      8  O   UNL     1      10.024  -4.810  25.024  0.00  0.00    -0.246 OA
ATOM      9  N   UNL     1       7.929  -5.284  24.318  0.00  0.00    -0.275 N 
ATOM     10  H   UNL     1       8.023  -6.192  24.742  0.00  0.00    +0.173 HD
ATOM     11  C   UNL     1       6.738  -4.996  23.727  0.00  0.00    +0.257 A 
ATOM     12  O   UNL     1       5.809  -5.800  23.705  0.00  0.00    -0.267 OA
ATOM     13  C   UNL     1       6.614  -3.654  23.108  0.00  0.00    +0.030 A 
ATOM     14  C   UNL     1       5.343  -3.316  22.423  0.00  0.00    +0.051 C 
ATOM     15  C   UNL     1       7.670  -2.824  23.217  0.00  0.00    +0.102 A 
ENDBRANCH   4   6
BRANCH   1  16
ATOM     16  C   UNL     1       9.244   1.272  24.580  0.00  0.00    +0.208 C 
BRANCH  16  17
ATOM     17  O   UNL     1       9.527   2.263  23.593  0.00  0.00    -0.284 OA
BRANCH  17  18
ATOM     18  P   UNL     1       8.134   2.841  22.745  0.00  0.00    +0.472 P 
ATOM     19  O   UNL     1       6.887   3.357  21.986  0.00  0.00    -0.228 OA
BRANCH  18  20
ATOM     20  O   UNL     1       8.924   2.344  21.407  0.00  0.00    -0.303 OA
ATOM     21  H   UNL     1       9.873   2.290  21.622  0.00  0.00    +0.222 HD
ENDBRANCH  18  20
BRANCH  18  22
ATOM     22  O   UNL     1       8.792   4.334  22.825  0.00  0.00    -0.303 OA
ATOM     23  H   UNL     1       9.576   4.250  23.406  0.00  0.00    +0.222 HD
ENDBRANCH  18  22
ENDBRANCH  17  18
ENDBRANCH  16  17
ENDBRANCH   1  16
TORSDOF 6
ENDMDL
MODEL 5
REMARK VINA RESULT:      -6.2      2.093      2.647
REMARK  Name = 
REMARK  7 active torsions:
REMARK  status: ('A' for Active; 'I' for Inactive)
REMARK    1  A    between atoms: C_2  and  C_3
REMARK    2  A    between atoms: C_3  and  O_4
REMARK    3  A    between atoms: O_4  and  P_5
REMARK    4  A    between atoms: P_5  and  O_6
REMARK    5  A    between atoms: P_5  and  O_7
REMARK    6  A    between atoms: C_10  and  N_14
REMARK    7  A    between atoms: C_16  and  C_17
REMARK                            x       y       z     vdW  Elec       q    Type
REMARK                         _______ _______ _______ _____ _____    ______ ____
ROOT
ATOM      1  C   UNL     1      10.136   0.004  23.558  0.00  0.00    +0.170 C 
ATOM      2  C   UNL     1       9.853  -0.351  22.135  0.00  0.00    +0.007 C 
ATOM      3  C   UNL     1       9.640  -1.665  22.041  0.00  0.00    +0.025 C 
ATOM      4  C   UNL     1       9.780  -2.290  23.385  0.00  0.00    +0.248 C 
ATOM      5  O   UNL     1       9.741  -1.175  24.298  0.00  0.00    -0.343 OA
ENDROOT
BRANCH   4   6
ATOM      6  N   UNL     1       8.691  -3.221  23.657  0.00  0.00    -0.270 N 
ATOM      7  C   UNL     1       8.998  -4.319  24.449  0.00  0.00    +0.332 A 
ATOM      8  O   UNL     1      10.121  -4.568  24.895  0.00  0.00    -0.246 OA
ATOM      9  N   UNL     1       7.941  -5.146  24.737  0.00  0.00    -0.275 N 
ATOM     10  H   UNL     1       8.137  -5.932  25.335  0.00  0.00    +0.173 HD
ATOM     11  C   UNL     1       6.653  -4.978  24.335  0.00  0.00    +0.257 A 
ATOM     12  O   UNL     1       5.756  -5.744  24.681  0.00  0.00    -0.267 OA
ATOM     13  C   UNL     1       6.381  -3.816  23.454  0.00  0.00    +0.030 A 
ATOM     14  C   UNL     1       4.994  -3.619  22.966  0.00  0.00    +0.051 C 
ATOM     15  C   UNL     1       7.418  -3.009  23.160  0.00  0.00    +0.102 A 
ENDBRANCH   4   6
BRANCH   1  16
ATOM     16  C   UNL     1       9.369   1.232  24.065  0.00  0.00    +0.208 C 
BRANCH  16  17
ATOM     17  O   UNL     1      10.235   2.366  24.100  0.00  0.00    -0.284 OA
BRANCH  17  18
ATOM     18  P   UNL     1       9.446   3.874  23.798  0.00  0.00    +0.472 P 
ATOM     19  O   UNL     1       8.739   5.225  23.527  0.00  0.00    -0.228 OA
BRANCH  18  20
ATOM     20  O   UNL     1       8.951   3.170  22.412  0.00  0.00    -0.303 OA
ATOM     21  H   UNL     1       8.558   3.861  21.849  0.00  0.00    +0.222 HD
ENDBRANCH  18  20
BRANCH  18  22
ATOM     22  O   UNL     1      10.877   4.431  23.241  0.00  0.00    -0.303 OA
ATOM     23  H   UNL     1      10.806   5.407  23.251  0.00  0.00    +0.222 HD
ENDBRANCH  18  22
ENDBRANCH  17  18
ENDBRANCH  16  17
ENDBRANCH   1  16
TORSDOF 6
ENDMDL
MODEL 6
REMARK VINA RESULT:      -6.2      3.126      7.508
REMARK  Name = 
REMARK  7 active torsions:
REMARK  status: ('A' for Active; 'I' for Inactive)
REMARK    1  A    between atoms: C_2  and  C_3
REMARK    2  A    between atoms: C_3  and  O_4
REMARK    3  A    between atoms: O_4  and  P_5
REMARK    4  A    between atoms: P_5  and  O_6
REMARK    5  A    between atoms: P_5  and  O_7
REMARK    6  A    between atoms: C_10  and  N_14
REMARK    7  A    between atoms: C_16  and  C_17
REMARK                            x       y       z     vdW  Elec       q    Type
REMARK                         _______ _______ _______ _____ _____    ______ ____
ROOT
ATOM      1  C   UNL     1       7.496  -5.050  25.876  0.00  0.00    +0.170 C 
ATOM      2  C   UNL     1       8.984  -5.124  25.985  0.00  0.00    +0.007 C 
ATOM      3  C   UNL     1       9.536  -4.482  24.953  0.00  0.00    +0.025 C 
ATOM      4  C   UNL     1       8.464  -3.946  24.070  0.00  0.00    +0.248 C 
ATOM      5  O   UNL     1       7.269  -4.034  24.872  0.00  0.00    -0.343 OA
ENDROOT
BRANCH   4   6
ATOM      6  N   UNL     1       8.729  -2.565  23.686  0.00  0.00    -0.270 N 
ATOM      7  C   UNL     1       8.046  -2.088  22.576  0.00  0.00    +0.332 A 
ATOM      8  O   UNL     1       7.272  -2.761  21.888  0.00  0.00    -0.246 OA
ATOM      9  N   UNL     1       8.271  -0.769  22.272  0.00  0.00    -0.275 N 
ATOM     10  H   UNL     1       7.761  -0.395  21.489  0.00  0.00    +0.173 HD
ATOM     11  C   UNL     1       9.073   0.091  22.956  0.00  0.00    +0.257 A 
ATOM     12  O   UNL     1       9.179   1.274  22.642  0.00  0.00    -0.267 OA
ATOM     13  C   UNL     1       9.818  -0.474  24.107  0.00  0.00    +0.030 A 
ATOM     14  C   UNL     1      10.730   0.423  24.857  0.00  0.00    +0.051 C 
ATOM     15  C   UNL     1       9.608  -1.772  24.401  0.00  0.00    +0.102 A 
ENDBRANCH   4   6
BRANCH   1  16
ATOM     16  C   UNL     1       6.787  -4.673  27.183  0.00  0.00    +0.208 C 
BRANCH  16  17
ATOM     17  O   UNL     1       7.101  -5.626  28.199  0.00  0.00    -0.284 OA
BRANCH  17  18
ATOM     18  P   UNL     1       5.723  -6.425  28.874  0.00  0.00    +0.472 P 
ATOM     19  O   UNL     1       4.490  -7.141  29.477  0.00  0.00    -0.228 OA
BRANCH  18  20
ATOM     20  O   UNL     1       5.980  -5.462  30.164  0.00  0.00    -0.303 OA
ATOM     21  H   UNL     1       5.160  -5.442  30.691  0.00  0.00    +0.222 HD
ENDBRANCH  18  20
BRANCH  18  22
ATOM     22  O   UNL     1       6.730  -7.632  29.319  0.00  0.00    -0.303 OA
ATOM     23  H   UNL     1       6.919  -7.486  30.269  0.00  0.00    +0.222 HD
ENDBRANCH  18  22
ENDBRANCH  17  18
ENDBRANCH  16  17
ENDBRANCH   1  16
TORSDOF 6
ENDMDL
MODEL 7
REMARK VINA RESULT:      -6.2      3.976      7.514
REMARK  Name = 
REMARK  7 active torsions:
REMARK  status: ('A' for Active; 'I' for Inactive)
REMARK    1  A    between atoms: C_2  and  C_3
REMARK    2  A    between atoms: C_3  and  O_4
REMARK    3  A    between atoms: O_4  and  P_5
REMARK    4  A    between atoms: P_5  and  O_6
REMARK    5  A    between atoms: P_5  and  O_7
REMARK    6  A    between atoms: C_10  and  N_14
REMARK    7  A    between atoms: C_16  and  C_17
REMARK                            x       y       z     vdW  Elec       q    Type
REMARK                         _______ _______ _______ _____ _____    ______ ____
ROOT
ATOM      1  C   UNL     1       8.906  -1.880  23.135  0.00  0.00    +0.170 C 
ATOM      2  C   UNL     1       9.810  -1.504  22.007  0.00  0.00    +0.007 C 
ATOM      3  C   UNL     1       9.545  -0.253  21.626  0.00  0.00    +0.025 C 
ATOM      4  C   UNL     1       8.436   0.295  22.454  0.00  0.00    +0.248 C 
ATOM      5  O   UNL     1       8.338  -0.621  23.563  0.00  0.00    -0.343 OA
ENDROOT
BRANCH   4   6
ATOM      6  N   UNL     1       8.735   1.644  22.922  0.00  0.00    -0.270 N 
ATOM      7  C   UNL     1       7.668   2.376  23.425  0.00  0.00    +0.332 A 
ATOM      8  O   UNL     1       6.501   1.976  23.464  0.00  0.00    -0.246 OA
ATOM      9  N   UNL     1       7.989   3.619  23.910  0.00  0.00    -0.275 N 
ATOM     10  H   UNL     1       7.234   4.154  24.307  0.00  0.00    +0.173 HD
ATOM     11  C   UNL     1       9.231   4.173  23.952  0.00  0.00    +0.257 A 
ATOM     12  O   UNL     1       9.437   5.276  24.452  0.00  0.00    -0.267 OA
ATOM     13  C   UNL     1      10.332   3.373  23.364  0.00  0.00    +0.030 A 
ATOM     14  C   UNL     1      11.695   3.957  23.360  0.00  0.00    +0.051 C 
ATOM     15  C   UNL     1      10.018   2.157  22.875  0.00  0.00    +0.102 A 
ENDBRANCH   4   6
BRANCH   1  16
ATOM     16  C   UNL     1       9.616  -2.570  24.308  0.00  0.00    +0.208 C 
BRANCH  16  17
ATOM     17  O   UNL     1       9.618  -3.983  24.111  0.00  0.00    -0.284 OA
BRANCH  17  18
ATOM     18  P   UNL     1       8.756  -4.871  25.319  0.00  0.00    +0.472 P 
ATOM     19  O   UNL     1       7.984  -5.667  26.400  0.00  0.00    -0.228 OA
BRANCH  18  20
ATOM     20  O   UNL     1       8.854  -3.497  26.191  0.00  0.00    -0.303 OA
ATOM     21  H   UNL     1       8.671  -3.718  27.122  0.00  0.00    +0.222 HD
ENDBRANCH  18  20
BRANCH  18  22
ATOM     22  O   UNL     1      10.191  -5.503  25.778  0.00  0.00    -0.303 OA
ATOM     23  H   UNL     1      10.529  -4.914  26.483  0.00  0.00    +0.222 HD
ENDBRANCH  18  22
ENDBRANCH  17  18
ENDBRANCH  16  17
ENDBRANCH   1  16
TORSDOF 6
ENDMDL
MODEL 8
REMARK VINA RESULT:      -6.1      3.235      6.067
REMARK  Name = 
REMARK  7 active torsions:
REMARK  status: ('A' for Active; 'I' for Inactive)
REMARK    1  A    between atoms: C_2  and  C_3
REMARK    2  A    between atoms: C_3  and  O_4
REMARK    3  A    between atoms: O_4  and  P_5
REMARK    4  A    between atoms: P_5  and  O_6
REMARK    5  A    between atoms: P_5  and  O_7
REMARK    6  A    between atoms: C_10  and  N_14
REMARK    7  A    between atoms: C_16  and  C_17
REMARK                            x       y       z     vdW  Elec       q    Type
REMARK                         _______ _______ _______ _____ _____    ______ ____
ROOT
ATOM      1  C   UNL     1       8.582  -4.601  24.932  0.00  0.00    +0.170 C 
ATOM      2  C   UNL     1       8.190  -3.690  26.048  0.00  0.00    +0.007 C 
ATOM      3  C   UNL     1       8.679  -2.470  25.817  0.00  0.00    +0.025 C 
ATOM      4  C   UNL     1       9.446  -2.475  24.541  0.00  0.00    +0.248 C 
ATOM      5  O   UNL     1       9.054  -3.705  23.899  0.00  0.00    -0.343 OA
ENDROOT
BRANCH   4   6
ATOM      6  N   UNL     1       9.109  -1.326  23.709  0.00  0.00    -0.270 N 
ATOM      7  C   UNL     1       9.902  -1.117  22.589  0.00  0.00    +0.332 A 
ATOM      8  O   UNL     1      10.877  -1.810  22.283  0.00  0.00    -0.246 OA
ATOM      9  N   UNL     1       9.526  -0.064  21.794  0.00  0.00    -0.275 N 
ATOM     10  H   UNL     1      10.070   0.085  20.960  0.00  0.00    +0.173 HD
ATOM     11  C   UNL     1       8.464   0.761  21.998  0.00  0.00    +0.257 A 
ATOM     12  O   UNL     1       8.169   1.653  21.205  0.00  0.00    -0.267 OA
ATOM     13  C   UNL     1       7.672   0.529  23.230  0.00  0.00    +0.030 A 
ATOM     14  C   UNL     1       6.527   1.430  23.505  0.00  0.00    +0.051 C 
ATOM     15  C   UNL     1       8.046  -0.498  24.019  0.00  0.00    +0.102 A 
ENDBRANCH   4   6
BRANCH   1  16
ATOM     16  C   UNL     1       7.437  -5.471  24.397  0.00  0.00    +0.208 C 
BRANCH  16  17
ATOM     17  O   UNL     1       6.413  -4.643  23.846  0.00  0.00    -0.284 OA
BRANCH  17  18
ATOM     18  P   UNL     1       6.148  -4.871  22.152  0.00  0.00    +0.472 P 
ATOM     19  O   UNL     1       5.910  -5.075  20.636  0.00  0.00    -0.228 OA
BRANCH  18  20
ATOM     20  O   UNL     1       7.461  -5.836  22.226  0.00  0.00    -0.303 OA
ATOM     21  H   UNL     1       8.236  -5.274  22.405  0.00  0.00    +0.222 HD
ENDBRANCH  18  20
BRANCH  18  22
ATOM     22  O   UNL     1       6.945  -3.465  21.911  0.00  0.00    -0.303 OA
ATOM     23  H   UNL     1       7.816  -3.712  21.537  0.00  0.00    +0.222 HD
ENDBRANCH  18  22
ENDBRANCH  17  18
ENDBRANCH  16  17
ENDBRANCH   1  16
TORSDOF 6
ENDMDL
MODEL 9
REMARK VINA RESULT:      -5.9      3.976      6.858
REMARK  Name = 
REMARK  7 active torsions:
REMARK  status: ('A' for Active; 'I' for Inactive)
REMARK    1  A    between atoms: C_2  and  C_3
REMARK    2  A    between atoms: C_3  and  O_4
REMARK    3  A    between atoms: O_4  and  P_5
REMARK    4  A    between atoms: P_5  and  O_6
REMARK    5  A    between atoms: P_5  and  O_7
REMARK    6  A    between atoms: C_10  and  N_14
REMARK    7  A    between atoms: C_16  and  C_17
REMARK                            x       y       z     vdW  Elec       q    Type
REMARK                         _______ _______ _______ _____ _____    ______ ____
ROOT
ATOM      1  C   UNL     1       7.430  -4.274  24.467  0.00  0.00    +0.170 C 
ATOM      2  C   UNL     1       7.736  -3.818  25.856  0.00  0.00    +0.007 C 
ATOM      3  C   UNL     1       8.732  -2.931  25.821  0.00  0.00    +0.025 C 
ATOM      4  C   UNL     1       9.178  -2.739  24.413  0.00  0.00    +0.248 C 
ATOM      5  O   UNL     1       8.121  -3.322  23.626  0.00  0.00    -0.343 OA
ENDROOT
BRANCH   4   6
ATOM      6  N   UNL     1       9.343  -1.326  24.093  0.00  0.00    -0.270 N 
ATOM      7  C   UNL     1      10.139  -1.027  22.996  0.00  0.00    +0.332 A 
ATOM      8  O   UNL     1      10.732  -1.867  22.313  0.00  0.00    -0.246 OA
ATOM      9  N   UNL     1      10.230   0.306  22.683  0.00  0.00    -0.275 N 
ATOM     10  H   UNL     1      10.777   0.540  21.872  0.00  0.00    +0.173 HD
ATOM     11  C   UNL     1       9.612   1.330  23.331  0.00  0.00    +0.257 A 
ATOM     12  O   UNL     1       9.708   2.494  22.952  0.00  0.00    -0.267 OA
ATOM     13  C   UNL     1       8.808   0.968  24.524  0.00  0.00    +0.030 A 
ATOM     14  C   UNL     1       8.147   2.061  25.278  0.00  0.00    +0.051 C 
ATOM     15  C   UNL     1       8.727  -0.339  24.840  0.00  0.00    +0.102 A 
ENDBRANCH   4   6
BRANCH   1  16
ATOM     16  C   UNL     1       5.934  -4.296  24.128  0.00  0.00    +0.208 C 
BRANCH  16  17
ATOM     17  O   UNL     1       5.418  -5.617  24.292  0.00  0.00    -0.284 OA
BRANCH  17  18
ATOM     18  P   UNL     1       3.952  -5.921  23.425  0.00  0.00    +0.472 P 
ATOM     19  O   UNL     1       2.640  -6.192  22.650  0.00  0.00    -0.228 OA
BRANCH  18  20
ATOM     20  O   UNL     1       4.175  -7.470  23.883  0.00  0.00    -0.303 OA
ATOM     21  H   UNL     1       4.767  -7.472  24.657  0.00  0.00    +0.222 HD
ENDBRANCH  18  20
BRANCH  18  22
ATOM     22  O   UNL     1       4.853  -5.981  22.064  0.00  0.00    -0.303 OA
ATOM     23  H   UNL     1       4.479  -6.710  21.528  0.00  0.00    +0.222 HD
ENDBRANCH  18  22
ENDBRANCH  17  18
ENDBRANCH  16  17
ENDBRANCH   1  16
TORSDOF 6
ENDMDL
