MODEL 1
REMARK VINA RESULT:      -7.0      0.000      0.000
REMARK  Name = 
REMARK  6 active torsions:
REMARK  status: ('A' for Active; 'I' for Inactive)
REMARK    1  A    between atoms: C_1  and  C_2
REMARK    2  A    between atoms: C_5  and  C_8
REMARK    3  A    between atoms: C_10  and  C_23
REMARK    4  A    between atoms: N_12  and  C_13
REMARK    5  A    between atoms: C_16  and  S_19
REMARK    6  A    between atoms: S_19  and  N_20
REMARK                            x       y       z     vdW  Elec       q    Type
REMARK                         _______ _______ _______ _____ _____    ______ ____
ROOT
ATOM      1  C   UNL     1       9.392   4.032  23.580  0.00  0.00    +0.075 A 
ATOM      2  N   UNL     1      10.279   2.944  23.582  0.00  0.00    -0.232 N 
ATOM      3  N   UNL     1      11.576   3.361  23.587  0.00  0.00    -0.162 NA
ATOM      4  C   UNL     1      11.531   4.675  23.316  0.00  0.00    +0.166 A 
ATOM      5  C   UNL     1      10.197   5.136  23.347  0.00  0.00    +0.062 A 
ENDROOT
BRANCH   1  10
ATOM      6  C   UNL     1       3.703   3.159  24.063  0.00  0.00    +0.044 C 
ATOM      7  C   UNL     1       5.138   3.587  23.963  0.00  0.00    -0.050 A 
ATOM      8  C   UNL     1       5.936   3.666  25.107  0.00  0.00    +0.004 A 
ATOM      9  C   UNL     1       7.307   3.921  24.999  0.00  0.00    +0.010 A 
ATOM     10  C   UNL     1       7.926   4.005  23.744  0.00  0.00    +0.000 A 
ATOM     11  C   UNL     1       7.101   4.026  22.611  0.00  0.00    +0.010 A 
ATOM     12  C   UNL     1       5.723   3.821  22.717  0.00  0.00    +0.004 A 
ENDBRANCH   1  10
BRANCH   2  13
ATOM     13  C   UNL     1      10.025   1.538  23.568  0.00  0.00    +0.066 A 
ATOM     14  C   UNL     1       9.773   0.849  22.376  0.00  0.00    +0.030 A 
ATOM     15  C   UNL     1       9.404  -0.498  22.405  0.00  0.00    +0.030 A 
ATOM     16  C   UNL     1       9.325  -1.166  23.630  0.00  0.00    +0.105 A 
ATOM     17  C   UNL     1       9.677  -0.521  24.817  0.00  0.00    +0.030 A 
ATOM     18  C   UNL     1      10.034   0.831  24.785  0.00  0.00    +0.030 A 
BRANCH  16  19
ATOM     19  S   UNL     1       8.789  -2.858  23.663  0.00  0.00    +0.056 S 
ATOM     20  O   UNL     1       9.877  -3.665  24.161  0.00  0.00    -0.153 OA
ATOM     21  O   UNL     1       8.098  -3.143  22.431  0.00  0.00    -0.153 OA
BRANCH  19  22
ATOM     22  N   UNL     1       7.614  -2.793  24.862  0.00  0.00    -0.204 NA
ATOM     23  H   UNL     1       7.832  -3.319  25.704  0.00  0.00    +0.144 HD
ATOM     24  H   UNL     1       7.250  -1.850  24.994  0.00  0.00    +0.144 HD
ENDBRANCH  19  22
ENDBRANCH  16  19
ENDBRANCH   2  13
BRANCH   4  25
ATOM     25  C   UNL     1      12.760   5.498  23.039  0.00  0.00    +0.436 C 
ATOM     26  F   UNL     1      12.820   6.611  23.820  0.00  0.00    -0.164 F 
ATOM     27  F   UNL     1      12.836   5.912  21.747  0.00  0.00    -0.164 F 
ATOM     28  F   UNL     1      13.901   4.797  23.287  0.00  0.00    -0.164 F 
ENDBRANCH   4  25
TORSDOF 5
ENDMDL
MODEL 2
REMARK VINA RESULT:      -6.9      0.383      1.256
REMARK  Name = 
REMARK  6 active torsions:
REMARK  status: ('A' for Active; 'I' for Inactive)
REMARK    1  A    between atoms: C_1  and  C_2
REMARK    2  A    between atoms: C_5  and  C_8
REMARK    3  A    between atoms: C_10  and  C_23
REMARK    4  A    between atoms: N_12  and  C_13
REMARK    5  A    between atoms: C_16  and  S_19
REMARK    6  A    between atoms: S_19  and  N_20
REMARK                            x       y       z     vdW  Elec       q    Type
REMARK                         _______ _______ _______ _____ _____    ______ ____
ROOT
ATOM      1  C   UNL     1       9.382   4.034  23.616  0.00  0.00    +0.075 A 
ATOM      2  N   UNL     1      10.264   2.943  23.598  0.00  0.00    -0.232 N 
ATOM      3  N   UNL     1      11.562   3.354  23.594  0.00  0.00    -0.162 NA
ATOM      4  C   UNL     1      11.520   4.671  23.336  0.00  0.00    +0.166 A 
ATOM      5  C   UNL     1      10.188   5.138  23.384  0.00  0.00    +0.062 A 
ENDROOT
BRANCH   1  10
ATOM      6  C   UNL     1       3.702   4.728  24.406  0.00  0.00    +0.044 C 
ATOM      7  C   UNL     1       5.138   4.344  24.200  0.00  0.00    -0.050 A 
ATOM      8  C   UNL     1       5.655   4.199  22.910  0.00  0.00    +0.004 A 
ATOM      9  C   UNL     1       7.024   3.986  22.715  0.00  0.00    +0.010 A 
ATOM     10  C   UNL     1       7.917   4.012  23.794  0.00  0.00    +0.000 A 
ATOM     11  C   UNL     1       7.376   4.057  25.087  0.00  0.00    +0.010 A 
ATOM     12  C   UNL     1       6.002   4.219  25.289  0.00  0.00    +0.004 A 
ENDBRANCH   1  10
BRANCH   2  13
ATOM     13  C   UNL     1      10.003   1.538  23.574  0.00  0.00    +0.066 A 
ATOM     14  C   UNL     1       9.736   0.861  22.378  0.00  0.00    +0.030 A 
ATOM     15  C   UNL     1       9.361  -0.484  22.398  0.00  0.00    +0.030 A 
ATOM     16  C   UNL     1       9.292  -1.163  23.618  0.00  0.00    +0.105 A 
ATOM     17  C   UNL     1       9.659  -0.531  24.807  0.00  0.00    +0.030 A 
ATOM     18  C   UNL     1      10.021   0.820  24.783  0.00  0.00    +0.030 A 
BRANCH  16  19
ATOM     19  S   UNL     1       8.749  -2.853  23.640  0.00  0.00    +0.056 S 
ATOM     20  O   UNL     1       9.815  -3.661  24.182  0.00  0.00    -0.153 OA
ATOM     21  O   UNL     1       8.103  -3.142  22.385  0.00  0.00    -0.153 OA
BRANCH  19  22
ATOM     22  N   UNL     1       7.531  -2.777  24.795  0.00  0.00    -0.204 NA
ATOM     23  H   UNL     1       6.883  -2.002  24.682  0.00  0.00    +0.144 HD
ATOM     24  H   UNL     1       7.122  -3.691  24.985  0.00  0.00    +0.144 HD
ENDBRANCH  19  22
ENDBRANCH  16  19
ENDBRANCH   2  13
BRANCH   4  25
ATOM     25  C   UNL     1      12.750   5.492  23.054  0.00  0.00    +0.436 C 
ATOM     26  F   UNL     1      13.896   4.797  23.286  0.00  0.00    -0.164 F 
ATOM     27  F   UNL     1      12.810   6.624  23.803  0.00  0.00    -0.164 F 
ATOM     28  F   UNL     1      12.802   5.888  21.752  0.00  0.00    -0.164 F 
ENDBRANCH   4  25
TORSDOF 5
ENDMDL
MODEL 3
REMARK VINA RESULT:      -6.4      5.077      7.337
REMARK  Name = 
REMARK  6 active torsions:
REMARK  status: ('A' for Active; 'I' for Inactive)
REMARK    1  A    between atoms: C_1  and  C_2
REMARK    2  A    between atoms: C_5  and  C_8
REMARK    3  A    between atoms: C_10  and  C_23
REMARK    4  A    between atoms: N_12  and  C_13
REMARK    5  A    between atoms: C_16  and  S_19
REMARK    6  A    between atoms: S_19  and  N_20
REMARK                            x       y       z     vdW  Elec       q    Type
REMARK                         _______ _______ _______ _____ _____    ______ ____
ROOT
ATOM      1  C   UNL     1       7.941  -2.514  23.875  0.00  0.00    +0.075 A 
ATOM      2  N   UNL     1       7.898  -2.413  25.273  0.00  0.00    -0.232 N 
ATOM      3  N   UNL     1       8.432  -1.236  25.703  0.00  0.00    -0.162 NA
ATOM      4  C   UNL     1       9.054  -0.713  24.634  0.00  0.00    +0.166 A 
ATOM      5  C   UNL     1       8.738  -1.453  23.473  0.00  0.00    +0.062 A 
ENDROOT
BRANCH   1  10
ATOM      6  C   UNL     1       5.993  -6.302  19.973  0.00  0.00    +0.044 C 
ATOM      7  C   UNL     1       6.347  -5.387  21.109  0.00  0.00    -0.050 A 
ATOM      8  C   UNL     1       7.254  -5.793  22.091  0.00  0.00    +0.004 A 
ATOM      9  C   UNL     1       7.696  -4.892  23.066  0.00  0.00    +0.010 A 
ATOM     10  C   UNL     1       7.318  -3.543  23.021  0.00  0.00    +0.000 A 
ATOM     11  C   UNL     1       6.332  -3.173  22.096  0.00  0.00    +0.010 A 
ATOM     12  C   UNL     1       5.850  -4.084  21.151  0.00  0.00    +0.004 A 
ENDBRANCH   1  10
BRANCH   2  13
ATOM     13  C   UNL     1       7.410  -3.327  26.257  0.00  0.00    +0.066 A 
ATOM     14  C   UNL     1       8.124  -4.479  26.608  0.00  0.00    +0.030 A 
ATOM     15  C   UNL     1       7.564  -5.417  27.478  0.00  0.00    +0.030 A 
ATOM     16  C   UNL     1       6.301  -5.182  28.026  0.00  0.00    +0.105 A 
ATOM     17  C   UNL     1       5.622  -3.989  27.770  0.00  0.00    +0.030 A 
ATOM     18  C   UNL     1       6.181  -3.058  26.888  0.00  0.00    +0.030 A 
BRANCH  16  19
ATOM     19  S   UNL     1       5.569  -6.413  29.077  0.00  0.00    +0.056 S 
ATOM     20  O   UNL     1       4.761  -5.738  30.065  0.00  0.00    -0.153 OA
ATOM     21  O   UNL     1       6.577  -7.385  29.414  0.00  0.00    -0.153 OA
BRANCH  19  22
ATOM     22  N   UNL     1       4.525  -7.167  27.997  0.00  0.00    -0.204 NA
ATOM     23  H   UNL     1       4.347  -8.149  28.189  0.00  0.00    +0.144 HD
ATOM     24  H   UNL     1       3.714  -6.589  27.777  0.00  0.00    +0.144 HD
ENDBRANCH  19  22
ENDBRANCH  16  19
ENDBRANCH   2  13
BRANCH   4  25
ATOM     25  C   UNL     1       9.942   0.500  24.712  0.00  0.00    +0.436 C 
ATOM     26  F   UNL     1      10.477   0.824  23.504  0.00  0.00    -0.164 F 
ATOM     27  F   UNL     1      10.977   0.340  25.577  0.00  0.00    -0.164 F 
ATOM     28  F   UNL     1       9.255   1.599  25.131  0.00  0.00    -0.164 F 
ENDBRANCH   4  25
TORSDOF 5
ENDMDL
MODEL 4
REMARK VINA RESULT:      -6.4      3.390      5.347
REMARK  Name = 
REMARK  6 active torsions:
REMARK  status: ('A' for Active; 'I' for Inactive)
REMARK    1  A    between atoms: C_1  and  C_2
REMARK    2  A    between atoms: C_5  and  C_8
REMARK    3  A    between atoms: C_10  and  C_23
REMARK    4  A    between atoms: N_12  and  C_13
REMARK    5  A    between atoms: C_16  and  S_19
REMARK    6  A    between atoms: S_19  and  N_20
REMARK                            x       y       z     vdW  Elec       q    Type
REMARK                         _______ _______ _______ _____ _____    ______ ____
ROOT
ATOM      1  C   UNL     1      10.191   2.281  23.640  0.00  0.00    +0.075 A 
ATOM      2  N   UNL     1       9.336   3.390  23.550  0.00  0.00    -0.232 N 
ATOM      3  N   UNL     1      10.025   4.525  23.246  0.00  0.00    -0.162 NA
ATOM      4  C   UNL     1      11.320   4.212  23.408  0.00  0.00    +0.166 A 
ATOM      5  C   UNL     1      11.467   2.822  23.611  0.00  0.00    +0.062 A 
ENDROOT
BRANCH   1  10
ATOM      6  C   UNL     1       9.496  -3.411  24.335  0.00  0.00    +0.044 C 
ATOM      7  C   UNL     1       9.476  -1.929  24.101  0.00  0.00    -0.050 A 
ATOM      8  C   UNL     1       9.164  -1.051  25.142  0.00  0.00    +0.004 A 
ATOM      9  C   UNL     1       9.288   0.332  24.965  0.00  0.00    +0.010 A 
ATOM     10  C   UNL     1       9.819   0.860  23.781  0.00  0.00    +0.000 A 
ATOM     11  C   UNL     1      10.031  -0.021  22.711  0.00  0.00    +0.010 A 
ATOM     12  C   UNL     1       9.860  -1.400  22.867  0.00  0.00    +0.004 A 
ENDBRANCH   1  10
BRANCH   2  13
ATOM     13  C   UNL     1       7.922   3.492  23.734  0.00  0.00    +0.066 A 
ATOM     14  C   UNL     1       7.361   3.732  24.994  0.00  0.00    +0.030 A 
ATOM     15  C   UNL     1       5.975   3.701  25.165  0.00  0.00    +0.030 A 
ATOM     16  C   UNL     1       5.149   3.466  24.064  0.00  0.00    +0.105 A 
ATOM     17  C   UNL     1       5.688   3.331  22.783  0.00  0.00    +0.030 A 
ATOM     18  C   UNL     1       7.077   3.350  22.618  0.00  0.00    +0.030 A 
BRANCH  16  19
ATOM     19  S   UNL     1       3.393   3.360  24.304  0.00  0.00    +0.056 S 
ATOM     20  O   UNL     1       2.888   4.693  24.527  0.00  0.00    -0.153 OA
ATOM     21  O   UNL     1       3.118   2.256  25.188  0.00  0.00    -0.153 OA
BRANCH  19  22
ATOM     22  N   UNL     1       2.895   2.878  22.773  0.00  0.00    -0.204 NA
ATOM     23  H   UNL     1       3.379   3.331  22.003  0.00  0.00    +0.144 HD
ATOM     24  H   UNL     1       2.775   1.868  22.707  0.00  0.00    +0.144 HD
ENDBRANCH  19  22
ENDBRANCH  16  19
ENDBRANCH   2  13
BRANCH   4  25
ATOM     25  C   UNL     1      12.425   5.233  23.358  0.00  0.00    +0.436 C 
ATOM     26  F   UNL     1      12.421   6.048  24.447  0.00  0.00    -0.164 F 
ATOM     27  F   UNL     1      12.355   6.031  22.261  0.00  0.00    -0.164 F 
ATOM     28  F   UNL     1      13.652   4.644  23.328  0.00  0.00    -0.164 F 
ENDBRANCH   4  25
TORSDOF 5
ENDMDL
MODEL 5
REMARK VINA RESULT:      -6.3      5.858      7.628
REMARK  Name = 
REMARK  6 active torsions:
REMARK  status: ('A' for Active; 'I' for Inactive)
REMARK    1  A    between atoms: C_1  and  C_2
REMARK    2  A    between atoms: C_5  and  C_8
REMARK    3  A    between atoms: C_10  and  C_23
REMARK    4  A    between atoms: N_12  and  C_13
REMARK    5  A    between atoms: C_16  and  S_19
REMARK    6  A    between atoms: S_19  and  N_20
REMARK                            x       y       z     vdW  Elec       q    Type
REMARK                         _______ _______ _______ _____ _____    ______ ____
ROOT
ATOM      1  C   UNL     1       8.451  -1.567  23.462  0.00  0.00    +0.075 A 
ATOM      2  N   UNL     1       7.607  -1.894  24.534  0.00  0.00    -0.232 N 
ATOM      3  N   UNL     1       7.142  -3.169  24.429  0.00  0.00    -0.162 NA
ATOM      4  C   UNL     1       7.453  -3.563  23.184  0.00  0.00    +0.166 A 
ATOM      5  C   UNL     1       8.300  -2.616  22.568  0.00  0.00    +0.062 A 
ENDROOT
BRANCH   1  10
ATOM      6  C   UNL     1      11.122   3.547  23.195  0.00  0.00    +0.044 C 
ATOM      7  C   UNL     1      10.584   2.147  23.148  0.00  0.00    -0.050 A 
ATOM      8  C   UNL     1      10.950   1.214  24.121  0.00  0.00    +0.004 A 
ATOM      9  C   UNL     1      10.337  -0.043  24.163  0.00  0.00    +0.010 A 
ATOM     10  C   UNL     1       9.281  -0.358  23.298  0.00  0.00    +0.000 A 
ATOM     11  C   UNL     1       8.995   0.545  22.264  0.00  0.00    +0.010 A 
ATOM     12  C   UNL     1       9.639   1.783  22.187  0.00  0.00    +0.004 A 
ENDBRANCH   1  10
BRANCH   2  13
ATOM     13  C   UNL     1       7.182  -1.113  25.653  0.00  0.00    +0.066 A 
ATOM     14  C   UNL     1       5.890  -0.578  25.727  0.00  0.00    +0.030 A 
ATOM     15  C   UNL     1       5.543   0.284  26.770  0.00  0.00    +0.030 A 
ATOM     16  C   UNL     1       6.482   0.580  27.761  0.00  0.00    +0.105 A 
ATOM     17  C   UNL     1       7.738  -0.029  27.759  0.00  0.00    +0.030 A 
ATOM     18  C   UNL     1       8.086  -0.881  26.706  0.00  0.00    +0.030 A 
BRANCH  16  19
ATOM     19  S   UNL     1       6.054   1.730  29.044  0.00  0.00    +0.056 S 
ATOM     20  O   UNL     1       5.688   0.977  30.220  0.00  0.00    -0.153 OA
ATOM     21  O   UNL     1       5.220   2.759  28.477  0.00  0.00    -0.153 OA
BRANCH  19  22
ATOM     22  N   UNL     1       7.548   2.441  29.341  0.00  0.00    -0.204 NA
ATOM     23  H   UNL     1       7.809   2.493  30.322  0.00  0.00    +0.144 HD
ATOM     24  H   UNL     1       8.264   2.116  28.694  0.00  0.00    +0.144 HD
ENDBRANCH  19  22
ENDBRANCH  16  19
ENDBRANCH   2  13
BRANCH   4  25
ATOM     25  C   UNL     1       6.954  -4.848  22.580  0.00  0.00    +0.436 C 
ATOM     26  F   UNL     1       6.652  -4.714  21.261  0.00  0.00    -0.164 F 
ATOM     27  F   UNL     1       5.841  -5.323  23.199  0.00  0.00    -0.164 F 
ATOM     28  F   UNL     1       7.889  -5.836  22.658  0.00  0.00    -0.164 F 
ENDBRANCH   4  25
TORSDOF 5
ENDMDL
MODEL 6
REMARK VINA RESULT:      -6.1      3.348      4.300
REMARK  Name = 
REMARK  6 active torsions:
REMARK  status: ('A' for Active; 'I' for Inactive)
REMARK    1  A    between atoms: C_1  and  C_2
REMARK    2  A    between atoms: C_5  and  C_8
REMARK    3  A    between atoms: C_10  and  C_23
REMARK    4  A    between atoms: N_12  and  C_13
REMARK    5  A    between atoms: C_16  and  S_19
REMARK    6  A    between atoms: S_19  and  N_20
REMARK                            x       y       z     vdW  Elec       q    Type
REMARK                         _______ _______ _______ _____ _____    ______ ____
ROOT
ATOM      1  C   UNL     1       7.765   0.805  25.085  0.00  0.00    +0.075 A 
ATOM      2  N   UNL     1       8.283  -0.110  24.157  0.00  0.00    -0.232 N 
ATOM      3  N   UNL     1       9.410   0.371  23.561  0.00  0.00    -0.162 NA
ATOM      4  C   UNL     1       9.462   1.672  23.891  0.00  0.00    +0.166 A 
ATOM      5  C   UNL     1       8.486   1.969  24.867  0.00  0.00    +0.062 A 
ENDROOT
BRANCH   1  10
ATOM      6  C   UNL     1       3.562   0.737  29.047  0.00  0.00    +0.044 C 
ATOM      7  C   UNL     1       4.622   0.551  28.002  0.00  0.00    -0.050 A 
ATOM      8  C   UNL     1       4.307   0.661  26.645  0.00  0.00    +0.004 A 
ATOM      9  C   UNL     1       5.317   0.634  25.678  0.00  0.00    +0.010 A 
ATOM     10  C   UNL     1       6.668   0.594  26.049  0.00  0.00    +0.000 A 
ATOM     11  C   UNL     1       6.965   0.382  27.403  0.00  0.00    +0.010 A 
ATOM     12  C   UNL     1       5.955   0.358  28.369  0.00  0.00    +0.004 A 
ENDBRANCH   1  10
BRANCH   2  13
ATOM     13  C   UNL     1       7.813  -1.400  23.762  0.00  0.00    +0.066 A 
ATOM     14  C   UNL     1       8.441  -2.575  24.192  0.00  0.00    +0.030 A 
ATOM     15  C   UNL     1       8.038  -3.814  23.690  0.00  0.00    +0.030 A 
ATOM     16  C   UNL     1       6.978  -3.880  22.783  0.00  0.00    +0.105 A 
ATOM     17  C   UNL     1       6.272  -2.729  22.427  0.00  0.00    +0.030 A 
ATOM     18  C   UNL     1       6.687  -1.488  22.922  0.00  0.00    +0.030 A 
BRANCH  16  19
ATOM     19  S   UNL     1       6.518  -5.452  22.099  0.00  0.00    +0.056 S 
ATOM     20  O   UNL     1       7.656  -6.333  22.191  0.00  0.00    -0.153 OA
ATOM     21  O   UNL     1       5.796  -5.224  20.873  0.00  0.00    -0.153 OA
BRANCH  19  22
ATOM     22  N   UNL     1       5.384  -5.967  23.228  0.00  0.00    -0.204 NA
ATOM     23  H   UNL     1       5.725  -6.657  23.892  0.00  0.00    +0.144 HD
ATOM     24  H   UNL     1       4.843  -5.193  23.611  0.00  0.00    +0.144 HD
ENDBRANCH  19  22
ENDBRANCH  16  19
ENDBRANCH   2  13
BRANCH   4  25
ATOM     25  C   UNL     1      10.450   2.633  23.287  0.00  0.00    +0.436 C 
ATOM     26  F   UNL     1      11.672   2.555  23.880  0.00  0.00    -0.164 F 
ATOM     27  F   UNL     1      10.046   3.927  23.373  0.00  0.00    -0.164 F 
ATOM     28  F   UNL     1      10.653   2.380  21.964  0.00  0.00    -0.164 F 
ENDBRANCH   4  25
TORSDOF 5
ENDMDL
MODEL 7
REMARK VINA RESULT:      -6.1      5.841      7.839
REMARK  Name = 
REMARK  6 active torsions:
REMARK  status: ('A' for Active; 'I' for Inactive)
REMARK    1  A    between atoms: C_1  and  C_2
REMARK    2  A    between atoms: C_5  and  C_8
REMARK    3  A    between atoms: C_10  and  C_23
REMARK    4  A    between atoms: N_12  and  C_13
REMARK    5  A    between atoms: C_16  and  S_19
REMARK    6  A    between atoms: S_19  and  N_20
REMARK                            x       y       z     vdW  Elec       q    Type
REMARK                         _______ _______ _______ _____ _____    ______ ____
ROOT
ATOM      1  C   UNL     1       8.127  -1.690  23.067  0.00  0.00    +0.075 A 
ATOM      2  N   UNL     1       6.976  -1.904  23.840  0.00  0.00    -0.232 N 
ATOM      3  N   UNL     1       6.493  -3.167  23.672  0.00  0.00    -0.162 NA
ATOM      4  C   UNL     1       7.150  -3.663  22.612  0.00  0.00    +0.166 A 
ATOM      5  C   UNL     1       8.199  -2.796  22.235  0.00  0.00    +0.062 A 
ENDROOT
BRANCH   1  10
ATOM      6  C   UNL     1      11.041   3.289  23.360  0.00  0.00    +0.044 C 
ATOM      7  C   UNL     1      10.463   1.911  23.222  0.00  0.00    -0.050 A 
ATOM      8  C   UNL     1      10.478   1.024  24.300  0.00  0.00    +0.004 A 
ATOM      9  C   UNL     1       9.810  -0.203  24.219  0.00  0.00    +0.010 A 
ATOM     10  C   UNL     1       9.034  -0.527  23.098  0.00  0.00    +0.000 A 
ATOM     11  C   UNL     1       9.110   0.323  21.986  0.00  0.00    +0.010 A 
ATOM     12  C   UNL     1       9.818   1.528  22.045  0.00  0.00    +0.004 A 
ENDBRANCH   1  10
BRANCH   2  13
ATOM     13  C   UNL     1       6.271  -1.028  24.722  0.00  0.00    +0.066 A 
ATOM     14  C   UNL     1       5.740  -1.478  25.936  0.00  0.00    +0.030 A 
ATOM     15  C   UNL     1       4.949  -0.632  26.717  0.00  0.00    +0.030 A 
ATOM     16  C   UNL     1       4.723   0.682  26.298  0.00  0.00    +0.105 A 
ATOM     17  C   UNL     1       5.333   1.178  25.144  0.00  0.00    +0.030 A 
ATOM     18  C   UNL     1       6.114   0.323  24.359  0.00  0.00    +0.030 A 
BRANCH  16  19
ATOM     19  S   UNL     1       3.661   1.729  27.262  0.00  0.00    +0.056 S 
ATOM     20  O   UNL     1       4.162   3.079  27.176  0.00  0.00    -0.153 OA
ATOM     21  O   UNL     1       3.382   1.070  28.512  0.00  0.00    -0.153 OA
BRANCH  19  22
ATOM     22  N   UNL     1       2.244   1.655  26.360  0.00  0.00    -0.204 NA
ATOM     23  H   UNL     1       1.581   0.947  26.664  0.00  0.00    +0.144 HD
ATOM     24  H   UNL     1       1.867   2.580  26.159  0.00  0.00    +0.144 HD
ENDBRANCH  19  22
ENDBRANCH  16  19
ENDBRANCH   2  13
BRANCH   4  25
ATOM     25  C   UNL     1       6.789  -4.971  21.961  0.00  0.00    +0.436 C 
ATOM     26  F   UNL     1       7.887  -5.707  21.640  0.00  0.00    -0.164 F 
ATOM     27  F   UNL     1       6.068  -4.810  20.820  0.00  0.00    -0.164 F 
ATOM     28  F   UNL     1       6.035  -5.751  22.784  0.00  0.00    -0.164 F 
ENDBRANCH   4  25
TORSDOF 5
ENDMDL
MODEL 8
REMARK VINA RESULT:      -6.0      4.596      5.749
REMARK  Name = 
REMARK  6 active torsions:
REMARK  status: ('A' for Active; 'I' for Inactive)
REMARK    1  A    between atoms: C_1  and  C_2
REMARK    2  A    between atoms: C_5  and  C_8
REMARK    3  A    between atoms: C_10  and  C_23
REMARK    4  A    between atoms: N_12  and  C_13
REMARK    5  A    between atoms: C_16  and  S_19
REMARK    6  A    between atoms: S_19  and  N_20
REMARK                            x       y       z     vdW  Elec       q    Type
REMARK                         _______ _______ _______ _____ _____    ______ ____
ROOT
ATOM      1  C   UNL     1       7.177  -0.038  24.626  0.00  0.00    +0.075 A 
ATOM      2  N   UNL     1       7.274  -1.269  23.959  0.00  0.00    -0.232 N 
ATOM      3  N   UNL     1       8.100  -1.185  22.880  0.00  0.00    -0.162 NA
ATOM      4  C   UNL     1       8.312   0.128  22.692  0.00  0.00    +0.166 A 
ATOM      5  C   UNL     1       7.792   0.868  23.777  0.00  0.00    +0.062 A 
ENDROOT
BRANCH   1  10
ATOM      6  C   UNL     1       4.643   0.277  29.808  0.00  0.00    +0.044 C 
ATOM      7  C   UNL     1       5.269   0.399  28.449  0.00  0.00    -0.050 A 
ATOM      8  C   UNL     1       6.635   0.661  28.318  0.00  0.00    +0.004 A 
ATOM      9  C   UNL     1       7.245   0.630  27.060  0.00  0.00    +0.010 A 
ATOM     10  C   UNL     1       6.527   0.241  25.921  0.00  0.00    +0.000 A 
ATOM     11  C   UNL     1       5.140   0.081  26.049  0.00  0.00    +0.010 A 
ATOM     12  C   UNL     1       4.516   0.160  27.298  0.00  0.00    +0.004 A 
ENDBRANCH   1  10
BRANCH   2  13
ATOM     13  C   UNL     1       6.652  -2.526  24.233  0.00  0.00    +0.066 A 
ATOM     14  C   UNL     1       5.582  -2.999  23.464  0.00  0.00    +0.030 A 
ATOM     15  C   UNL     1       4.913  -4.169  23.831  0.00  0.00    +0.030 A 
ATOM     16  C   UNL     1       5.342  -4.887  24.950  0.00  0.00    +0.105 A 
ATOM     17  C   UNL     1       6.473  -4.486  25.664  0.00  0.00    +0.030 A 
ATOM     18  C   UNL     1       7.132  -3.307  25.301  0.00  0.00    +0.030 A 
BRANCH  16  19
ATOM     19  S   UNL     1       4.443  -6.335  25.449  0.00  0.00    +0.056 S 
ATOM     20  O   UNL     1       3.060  -5.966  25.628  0.00  0.00    -0.153 OA
ATOM     21  O   UNL     1       5.210  -7.026  26.453  0.00  0.00    -0.153 OA
BRANCH  19  22
ATOM     22  N   UNL     1       4.545  -7.264  24.052  0.00  0.00    -0.204 NA
ATOM     23  H   UNL     1       5.042  -6.824  23.281  0.00  0.00    +0.144 HD
ATOM     24  H   UNL     1       4.777  -8.235  24.251  0.00  0.00    +0.144 HD
ENDBRANCH  19  22
ENDBRANCH  16  19
ENDBRANCH   2  13
BRANCH   4  25
ATOM     25  C   UNL     1       9.021   0.681  21.485  0.00  0.00    +0.436 C 
ATOM     26  F   UNL     1       9.337  -0.289  20.585  0.00  0.00    -0.164 F 
ATOM     27  F   UNL     1      10.175   1.325  21.801  0.00  0.00    -0.164 F 
ATOM     28  F   UNL     1       8.248   1.581  20.818  0.00  0.00    -0.164 F 
ENDBRANCH   4  25
TORSDOF 5
ENDMDL
MODEL 9
REMARK VINA RESULT:      -6.0      4.220      5.216
REMARK  Name = 
REMARK  6 active torsions:
REMARK  status: ('A' for Active; 'I' for Inactive)
REMARK    1  A    between atoms: C_1  and  C_2
REMARK    2  A    between atoms: C_5  and  C_8
REMARK    3  A    between atoms: C_10  and  C_23
REMARK    4  A    between atoms: N_12  and  C_13
REMARK    5  A    between atoms: C_16  and  S_19
REMARK    6  A    between atoms: S_19  and  N_20
REMARK                            x       y       z     vdW  Elec       q    Type
REMARK                         _______ _______ _______ _____ _____    ______ ____
ROOT
ATOM      1  C   UNL     1       7.291   0.586  24.798  0.00  0.00    +0.075 A 
ATOM      2  N   UNL     1       7.646  -0.731  24.469  0.00  0.00    -0.232 N 
ATOM      3  N   UNL     1       8.480  -0.768  23.393  0.00  0.00    -0.162 NA
ATOM      4  C   UNL     1       8.445   0.468  22.871  0.00  0.00    +0.166 A 
ATOM      5  C   UNL     1       7.754   1.346  23.735  0.00  0.00    +0.062 A 
ENDROOT
BRANCH   1  10
ATOM      6  C   UNL     1       4.103   1.696  29.484  0.00  0.00    +0.044 C 
ATOM      7  C   UNL     1       4.977   1.609  28.268  0.00  0.00    -0.050 A 
ATOM      8  C   UNL     1       6.343   1.342  28.395  0.00  0.00    +0.004 A 
ATOM      9  C   UNL     1       7.130   1.116  27.260  0.00  0.00    +0.010 A 
ATOM     10  C   UNL     1       6.552   1.055  25.985  0.00  0.00    +0.000 A 
ATOM     11  C   UNL     1       5.205   1.425  25.862  0.00  0.00    +0.010 A 
ATOM     12  C   UNL     1       4.426   1.701  26.989  0.00  0.00    +0.004 A 
ENDBRANCH   1  10
BRANCH   2  13
ATOM     13  C   UNL     1       7.265  -1.973  25.066  0.00  0.00    +0.066 A 
ATOM     14  C   UNL     1       6.037  -2.580  24.779  0.00  0.00    +0.030 A 
ATOM     15  C   UNL     1       5.638  -3.725  25.471  0.00  0.00    +0.030 A 
ATOM     16  C   UNL     1       6.489  -4.285  26.427  0.00  0.00    +0.105 A 
ATOM     17  C   UNL     1       7.761  -3.754  26.648  0.00  0.00    +0.030 A 
ATOM     18  C   UNL     1       8.151  -2.599  25.962  0.00  0.00    +0.030 A 
BRANCH  16  19
ATOM     19  S   UNL     1       5.944  -5.701  27.350  0.00  0.00    +0.056 S 
ATOM     20  O   UNL     1       5.514  -6.711  26.413  0.00  0.00    -0.153 OA
ATOM     21  O   UNL     1       5.128  -5.246  28.447  0.00  0.00    -0.153 OA
BRANCH  19  22
ATOM     22  N   UNL     1       7.396  -6.216  28.021  0.00  0.00    -0.204 NA
ATOM     23  H   UNL     1       8.036  -5.470  28.281  0.00  0.00    +0.144 HD
ATOM     24  H   UNL     1       7.263  -6.962  28.702  0.00  0.00    +0.144 HD
ENDBRANCH  19  22
ENDBRANCH  16  19
ENDBRANCH   2  13
BRANCH   4  25
ATOM     25  C   UNL     1       9.080   0.821  21.553  0.00  0.00    +0.436 C 
ATOM     26  F   UNL     1      10.215   1.554  21.708  0.00  0.00    -0.164 F 
ATOM     27  F   UNL     1       8.252   1.533  20.743  0.00  0.00    -0.164 F 
ATOM     28  F   UNL     1       9.438  -0.292  20.854  0.00  0.00    -0.164 F 
ENDBRANCH   4  25
TORSDOF 5
ENDMDL
