MODEL 1
REMARK VINA RESULT:      -6.2      0.000      0.000
REMARK  Name = 
REMARK  19 active torsions:
REMARK  status: ('A' for Active; 'I' for Inactive)
REMARK    1  A    between atoms: C_1  and  O_2
REMARK    2  A    between atoms: O_2  and  C_3
REMARK    3  A    between atoms: C_3  and  C_4
REMARK    4  A    between atoms: C_5  and  C_6
REMARK    5  A    between atoms: C_13  and  C_14
REMARK    6  A    between atoms: C_15  and  C_16
REMARK    7  A    between atoms: C_16  and  O_18
REMARK    8  A    between atoms: C_16  and  C_19
REMARK    9  A    between atoms: C_19  and  C_20
REMARK   10  A    between atoms: C_20  and  O_22
REMARK   11  A    between atoms: C_20  and  C_23
REMARK   12  A    between atoms: C_23  and  C_24
REMARK   13  A    between atoms: C_24  and  O_25
REMARK   14  A    between atoms: C_27  and  C_28
REMARK   15  A    between atoms: C_28  and  C_29
REMARK   16  A    between atoms: C_28  and  C_30
REMARK   17  A    between atoms: C_32  and  C_33
REMARK   18  A    between atoms: C_33  and  C_34
REMARK   19  A    between atoms: C_33  and  C_35
REMARK                            x       y       z     vdW  Elec       q    Type
REMARK                         _______ _______ _______ _____ _____    ______ ____
ROOT
ATOM      1  C   UNL     1       7.927  -0.613  22.700  0.00  0.00    +0.008 A 
ATOM      2  C   UNL     1       7.937   0.728  23.174  0.00  0.00    +0.050 A 
ATOM      3  N   UNL     1       7.167   1.122  24.212  0.00  0.00    -0.255 NA
ATOM      4  C   UNL     1       6.312   0.252  24.783  0.00  0.00    +0.052 A 
ATOM      5  C   UNL     1       6.201  -1.094  24.374  0.00  0.00    +0.004 A 
ATOM      6  C   UNL     1       7.055  -1.584  23.331  0.00  0.00    -0.002 A 
ENDROOT
BRANCH   6   7
ATOM      7  C   UNL     1       7.053  -3.052  22.905  0.00  0.00    -0.017 A 
ATOM      8  C   UNL     1       7.802  -4.043  23.572  0.00  0.00    +0.011 A 
ATOM      9  C   UNL     1       7.776  -5.400  23.209  0.00  0.00    +0.039 A 
ATOM     10  C   UNL     1       6.926  -5.815  22.201  0.00  0.00    +0.123 A 
ATOM     11  F   UNL     1       6.841  -7.120  21.900  0.00  0.00    -0.205 F 
ATOM     12  C   UNL     1       6.168  -4.896  21.515  0.00  0.00    +0.039 A 
ATOM     13  C   UNL     1       6.276  -3.529  21.826  0.00  0.00    +0.011 A 
ENDBRANCH   6   7
BRANCH   2  14
ATOM     14  C   UNL     1       8.703   1.870  22.507  0.00  0.00    +0.032 C 
ATOM     15  C   UNL     1       9.936   2.345  23.292  0.00  0.00    +0.014 C 
ATOM     16  C   UNL     1       7.757   3.054  22.280  0.00  0.00    +0.014 C 
ENDBRANCH   2  14
BRANCH   4  17
ATOM     17  C   UNL     1       5.567   0.817  26.004  0.00  0.00    +0.032 C 
ATOM     18  C   UNL     1       4.884   2.162  25.721  0.00  0.00    +0.014 C 
ATOM     19  C   UNL     1       6.534   0.975  27.180  0.00  0.00    +0.014 C 
ENDBRANCH   4  17
BRANCH   5  20
ATOM     20  C   UNL     1       5.182  -1.916  25.064  0.00  0.00    +0.008 C 
ATOM     21  C   UNL     1       5.522  -2.804  26.018  0.00  0.00    +0.005 C 
BRANCH  21  22
ATOM     22  C   UNL     1       4.637  -3.822  26.691  0.00  0.00    +0.140 C 
BRANCH  22  23
ATOM     23  O   UNL     1       3.312  -3.317  26.845  0.00  0.00    -0.388 OA
ATOM     24  H   UNL     1       2.706  -4.047  26.623  0.00  0.00    +0.210 HD
ENDBRANCH  22  23
BRANCH  22  25
ATOM     25  C   UNL     1       4.585  -5.115  25.857  0.00  0.00    +0.067 C 
BRANCH  25  26
ATOM     26  C   UNL     1       5.366  -6.289  26.471  0.00  0.00    +0.128 C 
BRANCH  26  27
ATOM     27  O   UNL     1       6.761  -5.974  26.581  0.00  0.00    -0.391 OA
ATOM     28  H   UNL     1       7.255  -6.808  26.394  0.00  0.00    +0.210 HD
ENDBRANCH  26  27
BRANCH  26  29
ATOM     29  C   UNL     1       4.866  -6.586  27.888  0.00  0.00    +0.151 C 
BRANCH  29  30
ATOM     30  C   UNL     1       5.960  -6.553  28.927  0.00  0.00    +0.307 C 
ATOM     31  O   UNL     1       6.619  -7.537  29.230  0.00  0.00    -0.251 OA
BRANCH  30  32
ATOM     32  O   UNL     1       6.097  -5.371  29.568  0.00  0.00    -0.481 OA
ATOM     33  H   UNL     1       5.216  -4.953  29.745  0.00  0.00    +0.295 HD
ENDBRANCH  30  32
ENDBRANCH  29  30
ENDBRANCH  26  29
ENDBRANCH  25  26
ENDBRANCH  22  25
ENDBRANCH  21  22
ENDBRANCH   5  20
BRANCH   1  34
ATOM     34  C   UNL     1       8.832  -0.968  21.533  0.00  0.00    +0.197 C 
BRANCH  34  36
ATOM     35  C   UNL     1      10.560  -1.350  23.070  0.00  0.00    +0.194 C 
ATOM     36  O   UNL     1       9.859  -1.862  21.945  0.00  0.00    -0.378 OA
ENDBRANCH  34  36
ENDBRANCH   1  34
TORSDOF 14
ENDMDL
MODEL 2
REMARK VINA RESULT:      -6.1      3.361      8.019
REMARK  Name = 
REMARK  19 active torsions:
REMARK  status: ('A' for Active; 'I' for Inactive)
REMARK    1  A    between atoms: C_1  and  O_2
REMARK    2  A    between atoms: O_2  and  C_3
REMARK    3  A    between atoms: C_3  and  C_4
REMARK    4  A    between atoms: C_5  and  C_6
REMARK    5  A    between atoms: C_13  and  C_14
REMARK    6  A    between atoms: C_15  and  C_16
REMARK    7  A    between atoms: C_16  and  O_18
REMARK    8  A    between atoms: C_16  and  C_19
REMARK    9  A    between atoms: C_19  and  C_20
REMARK   10  A    between atoms: C_20  and  O_22
REMARK   11  A    between atoms: C_20  and  C_23
REMARK   12  A    between atoms: C_23  and  C_24
REMARK   13  A    between atoms: C_24  and  O_25
REMARK   14  A    between atoms: C_27  and  C_28
REMARK   15  A    between atoms: C_28  and  C_29
REMARK   16  A    between atoms: C_28  and  C_30
REMARK   17  A    between atoms: C_32  and  C_33
REMARK   18  A    between atoms: C_33  and  C_34
REMARK   19  A    between atoms: C_33  and  C_35
REMARK                            x       y       z     vdW  Elec       q    Type
REMARK                         _______ _______ _______ _____ _____    ______ ____
ROOT
ATOM      1  C   UNL     1       4.640  -3.564  25.066  0.00  0.00    +0.008 A 
ATOM      2  C   UNL     1       4.335  -4.776  24.389  0.00  0.00    +0.050 A 
ATOM      3  N   UNL     1       5.098  -5.237  23.373  0.00  0.00    -0.255 NA
ATOM      4  C   UNL     1       6.141  -4.509  22.932  0.00  0.00    +0.052 A 
ATOM      5  C   UNL     1       6.517  -3.279  23.513  0.00  0.00    +0.004 A 
ATOM      6  C   UNL     1       5.790  -2.786  24.648  0.00  0.00    -0.002 A 
ENDROOT
BRANCH   6   7
ATOM      7  C   UNL     1       6.202  -1.511  25.382  0.00  0.00    -0.017 A 
ATOM      8  C   UNL     1       7.107  -1.510  26.464  0.00  0.00    +0.011 A 
ATOM      9  C   UNL     1       7.519  -0.337  27.119  0.00  0.00    +0.039 A 
ATOM     10  C   UNL     1       7.086   0.889  26.651  0.00  0.00    +0.123 A 
ATOM     11  F   UNL     1       7.534   2.015  27.225  0.00  0.00    -0.205 F 
ATOM     12  C   UNL     1       6.204   0.953  25.597  0.00  0.00    +0.039 A 
ATOM     13  C   UNL     1       5.727  -0.233  25.012  0.00  0.00    +0.011 A 
ENDBRANCH   6   7
BRANCH   2  14
ATOM     14  C   UNL     1       3.078  -5.610  24.642  0.00  0.00    +0.032 C 
ATOM     15  C   UNL     1       3.325  -7.126  24.682  0.00  0.00    +0.014 C 
ATOM     16  C   UNL     1       2.031  -5.292  23.568  0.00  0.00    +0.014 C 
ENDBRANCH   2  14
BRANCH   4  17
ATOM     17  C   UNL     1       6.965  -5.197  21.832  0.00  0.00    +0.032 C 
ATOM     18  C   UNL     1       6.100  -5.751  20.691  0.00  0.00    +0.014 C 
ATOM     19  C   UNL     1       7.799  -6.331  22.435  0.00  0.00    +0.014 C 
ENDBRANCH   4  17
BRANCH   5  20
ATOM     20  C   UNL     1       7.656  -2.570  22.889  0.00  0.00    +0.008 C 
ATOM     21  C   UNL     1       8.901  -2.653  23.396  0.00  0.00    +0.005 C 
BRANCH  21  22
ATOM     22  C   UNL     1      10.122  -1.871  22.984  0.00  0.00    +0.140 C 
BRANCH  22  23
ATOM     23  O   UNL     1      10.041  -1.496  21.611  0.00  0.00    -0.388 OA
ATOM     24  H   UNL     1      10.944  -1.261  21.330  0.00  0.00    +0.210 HD
ENDBRANCH  22  23
BRANCH  22  25
ATOM     25  C   UNL     1      10.255  -0.600  23.842  0.00  0.00    +0.067 C 
BRANCH  25  26
ATOM     26  C   UNL     1       9.951   0.703  23.084  0.00  0.00    +0.128 C 
BRANCH  26  27
ATOM     27  O   UNL     1       8.538   0.872  22.902  0.00  0.00    -0.391 OA
ATOM     28  H   UNL     1       8.421   1.670  22.333  0.00  0.00    +0.210 HD
ENDBRANCH  26  27
BRANCH  26  29
ATOM     29  C   UNL     1      10.443   1.916  23.879  0.00  0.00    +0.151 C 
BRANCH  29  30
ATOM     30  C   UNL     1       9.482   3.080  23.849  0.00  0.00    +0.307 C 
ATOM     31  O   UNL     1       8.857   3.450  24.832  0.00  0.00    -0.251 OA
BRANCH  30  32
ATOM     32  O   UNL     1       9.293   3.628  22.628  0.00  0.00    -0.481 OA
ATOM     33  H   UNL     1       9.918   4.381  22.470  0.00  0.00    +0.295 HD
ENDBRANCH  30  32
ENDBRANCH  29  30
ENDBRANCH  26  29
ENDBRANCH  25  26
ENDBRANCH  22  25
ENDBRANCH  21  22
ENDBRANCH   5  20
BRANCH   1  34
ATOM     34  C   UNL     1       3.733  -3.128  26.202  0.00  0.00    +0.197 C 
BRANCH  34  36
ATOM     35  C   UNL     1       1.591  -2.270  26.620  0.00  0.00    +0.194 C 
ATOM     36  O   UNL     1       2.694  -2.282  25.724  0.00  0.00    -0.378 OA
ENDBRANCH  34  36
ENDBRANCH   1  34
TORSDOF 14
ENDMDL
MODEL 3
REMARK VINA RESULT:      -6.0      1.065      1.983
REMARK  Name = 
REMARK  19 active torsions:
REMARK  status: ('A' for Active; 'I' for Inactive)
REMARK    1  A    between atoms: C_1  and  O_2
REMARK    2  A    between atoms: O_2  and  C_3
REMARK    3  A    between atoms: C_3  and  C_4
REMARK    4  A    between atoms: C_5  and  C_6
REMARK    5  A    between atoms: C_13  and  C_14
REMARK    6  A    between atoms: C_15  and  C_16
REMARK    7  A    between atoms: C_16  and  O_18
REMARK    8  A    between atoms: C_16  and  C_19
REMARK    9  A    between atoms: C_19  and  C_20
REMARK   10  A    between atoms: C_20  and  O_22
REMARK   11  A    between atoms: C_20  and  C_23
REMARK   12  A    between atoms: C_23  and  C_24
REMARK   13  A    between atoms: C_24  and  O_25
REMARK   14  A    between atoms: C_27  and  C_28
REMARK   15  A    between atoms: C_28  and  C_29
REMARK   16  A    between atoms: C_28  and  C_30
REMARK   17  A    between atoms: C_32  and  C_33
REMARK   18  A    between atoms: C_33  and  C_34
REMARK   19  A    between atoms: C_33  and  C_35
REMARK                            x       y       z     vdW  Elec       q    Type
REMARK                         _______ _______ _______ _____ _____    ______ ____
ROOT
ATOM      1  C   UNL     1       7.913  -0.540  22.943  0.00  0.00    +0.008 A 
ATOM      2  C   UNL     1       8.020   0.796  23.416  0.00  0.00    +0.050 A 
ATOM      3  N   UNL     1       7.322   1.230  24.489  0.00  0.00    -0.255 NA
ATOM      4  C   UNL     1       6.447   0.408  25.100  0.00  0.00    +0.052 A 
ATOM      5  C   UNL     1       6.243  -0.929  24.696  0.00  0.00    +0.004 A 
ATOM      6  C   UNL     1       7.020  -1.464  23.614  0.00  0.00    -0.002 A 
ENDROOT
BRANCH   6   7
ATOM      7  C   UNL     1       6.916  -2.928  23.189  0.00  0.00    -0.017 A 
ATOM      8  C   UNL     1       6.030  -3.372  22.186  0.00  0.00    +0.011 A 
ATOM      9  C   UNL     1       5.956  -4.711  21.765  0.00  0.00    +0.039 A 
ATOM     10  C   UNL     1       6.835  -5.637  22.293  0.00  0.00    +0.123 A 
ATOM     11  F   UNL     1       6.820  -6.900  21.841  0.00  0.00    -0.205 F 
ATOM     12  C   UNL     1       7.725  -5.264  23.273  0.00  0.00    +0.039 A 
ATOM     13  C   UNL     1       7.723  -3.942  23.752  0.00  0.00    +0.011 A 
ENDBRANCH   6   7
BRANCH   2  14
ATOM     14  C   UNL     1       8.816   1.896  22.714  0.00  0.00    +0.032 C 
ATOM     15  C   UNL     1       9.908   2.537  23.585  0.00  0.00    +0.014 C 
ATOM     16  C   UNL     1       7.856   2.984  22.220  0.00  0.00    +0.014 C 
ENDBRANCH   2  14
BRANCH   4  17
ATOM     17  C   UNL     1       5.792   1.009  26.353  0.00  0.00    +0.032 C 
ATOM     18  C   UNL     1       5.019   2.304  26.064  0.00  0.00    +0.014 C 
ATOM     19  C   UNL     1       6.856   1.281  27.421  0.00  0.00    +0.014 C 
ENDBRANCH   4  17
BRANCH   5  20
ATOM     20  C   UNL     1       5.213  -1.695  25.433  0.00  0.00    +0.008 C 
ATOM     21  C   UNL     1       5.506  -2.354  26.571  0.00  0.00    +0.005 C 
BRANCH  21  22
ATOM     22  C   UNL     1       4.625  -3.303  27.343  0.00  0.00    +0.140 C 
BRANCH  22  23
ATOM     23  O   UNL     1       3.471  -3.652  26.582  0.00  0.00    -0.388 OA
ATOM     24  H   UNL     1       3.303  -2.912  25.971  0.00  0.00    +0.210 HD
ENDBRANCH  22  23
BRANCH  22  25
ATOM     25  C   UNL     1       5.402  -4.586  27.690  0.00  0.00    +0.067 C 
BRANCH  25  26
ATOM     26  C   UNL     1       5.964  -5.328  26.466  0.00  0.00    +0.128 C 
BRANCH  26  27
ATOM     27  O   UNL     1       7.286  -5.821  26.729  0.00  0.00    -0.391 OA
ATOM     28  H   UNL     1       7.364  -6.684  26.257  0.00  0.00    +0.210 HD
ENDBRANCH  26  27
BRANCH  26  29
ATOM     29  C   UNL     1       5.098  -6.545  26.129  0.00  0.00    +0.151 C 
BRANCH  29  30
ATOM     30  C   UNL     1       4.438  -6.452  24.774  0.00  0.00    +0.307 C 
ATOM     31  O   UNL     1       3.873  -5.443  24.378  0.00  0.00    -0.251 OA
BRANCH  30  32
ATOM     32  O   UNL     1       4.436  -7.602  24.064  0.00  0.00    -0.481 OA
ATOM     33  H   UNL     1       3.806  -7.553  23.300  0.00  0.00    +0.295 HD
ENDBRANCH  30  32
ENDBRANCH  29  30
ENDBRANCH  26  29
ENDBRANCH  25  26
ENDBRANCH  22  25
ENDBRANCH  21  22
ENDBRANCH   5  20
BRANCH   1  34
ATOM     34  C   UNL     1       8.742  -0.943  21.736  0.00  0.00    +0.197 C 
BRANCH  34  36
ATOM     35  C   UNL     1      10.533  -1.829  22.961  0.00  0.00    +0.194 C 
ATOM     36  O   UNL     1      10.132  -0.842  22.021  0.00  0.00    -0.378 OA
ENDBRANCH  34  36
ENDBRANCH   1  34
TORSDOF 14
ENDMDL
MODEL 4
REMARK VINA RESULT:      -5.9      3.108      7.122
REMARK  Name = 
REMARK  19 active torsions:
REMARK  status: ('A' for Active; 'I' for Inactive)
REMARK    1  A    between atoms: C_1  and  O_2
REMARK    2  A    between atoms: O_2  and  C_3
REMARK    3  A    between atoms: C_3  and  C_4
REMARK    4  A    between atoms: C_5  and  C_6
REMARK    5  A    between atoms: C_13  and  C_14
REMARK    6  A    between atoms: C_15  and  C_16
REMARK    7  A    between atoms: C_16  and  O_18
REMARK    8  A    between atoms: C_16  and  C_19
REMARK    9  A    between atoms: C_19  and  C_20
REMARK   10  A    between atoms: C_20  and  O_22
REMARK   11  A    between atoms: C_20  and  C_23
REMARK   12  A    between atoms: C_23  and  C_24
REMARK   13  A    between atoms: C_24  and  O_25
REMARK   14  A    between atoms: C_27  and  C_28
REMARK   15  A    between atoms: C_28  and  C_29
REMARK   16  A    between atoms: C_28  and  C_30
REMARK   17  A    between atoms: C_32  and  C_33
REMARK   18  A    between atoms: C_33  and  C_34
REMARK   19  A    between atoms: C_33  and  C_35
REMARK                            x       y       z     vdW  Elec       q    Type
REMARK                         _______ _______ _______ _____ _____    ______ ____
ROOT
ATOM      1  C   UNL     1       6.398  -4.391  24.811  0.00  0.00    +0.008 A 
ATOM      2  C   UNL     1       5.403  -4.978  25.639  0.00  0.00    +0.050 A 
ATOM      3  N   UNL     1       4.819  -4.291  26.646  0.00  0.00    -0.255 NA
ATOM      4  C   UNL     1       5.225  -3.039  26.931  0.00  0.00    +0.052 A 
ATOM      5  C   UNL     1       6.224  -2.371  26.191  0.00  0.00    +0.004 A 
ATOM      6  C   UNL     1       6.817  -3.025  25.060  0.00  0.00    -0.002 A 
ENDROOT
BRANCH   6   7
ATOM      7  C   UNL     1       7.834  -2.324  24.160  0.00  0.00    -0.017 A 
ATOM      8  C   UNL     1       9.227  -2.450  24.339  0.00  0.00    +0.011 A 
ATOM      9  C   UNL     1      10.168  -1.838  23.493  0.00  0.00    +0.039 A 
ATOM     10  C   UNL     1       9.729  -1.137  22.387  0.00  0.00    +0.123 A 
ATOM     11  F   UNL     1      10.623  -0.614  21.535  0.00  0.00    -0.205 F 
ATOM     12  C   UNL     1       8.382  -0.981  22.157  0.00  0.00    +0.039 A 
ATOM     13  C   UNL     1       7.452  -1.519  23.064  0.00  0.00    +0.011 A 
ENDBRANCH   6   7
BRANCH   2  14
ATOM     14  C   UNL     1       4.979  -6.445  25.567  0.00  0.00    +0.032 C 
ATOM     15  C   UNL     1       3.824  -6.720  24.593  0.00  0.00    +0.014 C 
ATOM     16  C   UNL     1       4.591  -6.932  26.968  0.00  0.00    +0.014 C 
ENDBRANCH   2  14
BRANCH   4  17
ATOM     17  C   UNL     1       4.414  -2.355  28.043  0.00  0.00    +0.032 C 
ATOM     18  C   UNL     1       4.116  -3.285  29.228  0.00  0.00    +0.014 C 
ATOM     19  C   UNL     1       3.097  -1.818  27.476  0.00  0.00    +0.014 C 
ENDBRANCH   4  17
BRANCH   5  20
ATOM     20  C   UNL     1       6.598  -1.016  26.653  0.00  0.00    +0.008 C 
ATOM     21  C   UNL     1       6.175   0.090  26.010  0.00  0.00    +0.005 C 
BRANCH  21  22
ATOM     22  C   UNL     1       6.595   1.517  26.249  0.00  0.00    +0.140 C 
BRANCH  22  23
ATOM     23  O   UNL     1       7.611   1.583  27.248  0.00  0.00    -0.388 OA
ATOM     24  H   UNL     1       7.183   1.904  28.063  0.00  0.00    +0.210 HD
ENDBRANCH  22  23
BRANCH  22  25
ATOM     25  C   UNL     1       7.133   2.138  24.947  0.00  0.00    +0.067 C 
BRANCH  25  26
ATOM     26  C   UNL     1       8.614   2.547  25.014  0.00  0.00    +0.128 C 
BRANCH  26  27
ATOM     27  O   UNL     1       9.468   1.399  24.913  0.00  0.00    -0.391 OA
ATOM     28  H   UNL     1      10.204   1.537  25.554  0.00  0.00    +0.210 HD
ENDBRANCH  26  27
BRANCH  26  29
ATOM     29  C   UNL     1       8.972   3.468  23.844  0.00  0.00    +0.151 C 
BRANCH  29  30
ATOM     30  C   UNL     1      10.209   3.033  23.097  0.00  0.00    +0.307 C 
ATOM     31  O   UNL     1      11.341   3.314  23.465  0.00  0.00    -0.251 OA
BRANCH  30  32
ATOM     32  O   UNL     1       9.972   2.386  21.934  0.00  0.00    -0.481 OA
ATOM     33  H   UNL     1       9.904   1.407  22.075  0.00  0.00    +0.295 HD
ENDBRANCH  30  32
ENDBRANCH  29  30
ENDBRANCH  26  29
ENDBRANCH  25  26
ENDBRANCH  22  25
ENDBRANCH  21  22
ENDBRANCH   5  20
BRANCH   1  34
ATOM     34  C   UNL     1       6.993  -5.233  23.697  0.00  0.00    +0.197 C 
BRANCH  34  36
ATOM     35  C   UNL     1       6.747  -5.921  21.469  0.00  0.00    +0.194 C 
ATOM     36  O   UNL     1       6.288  -5.032  22.479  0.00  0.00    -0.378 OA
ENDBRANCH  34  36
ENDBRANCH   1  34
TORSDOF 14
ENDMDL
MODEL 5
REMARK VINA RESULT:      -5.7      1.645      2.403
REMARK  Name = 
REMARK  19 active torsions:
REMARK  status: ('A' for Active; 'I' for Inactive)
REMARK    1  A    between atoms: C_1  and  O_2
REMARK    2  A    between atoms: O_2  and  C_3
REMARK    3  A    between atoms: C_3  and  C_4
REMARK    4  A    between atoms: C_5  and  C_6
REMARK    5  A    between atoms: C_13  and  C_14
REMARK    6  A    between atoms: C_15  and  C_16
REMARK    7  A    between atoms: C_16  and  O_18
REMARK    8  A    between atoms: C_16  and  C_19
REMARK    9  A    between atoms: C_19  and  C_20
REMARK   10  A    between atoms: C_20  and  O_22
REMARK   11  A    between atoms: C_20  and  C_23
REMARK   12  A    between atoms: C_23  and  C_24
REMARK   13  A    between atoms: C_24  and  O_25
REMARK   14  A    between atoms: C_27  and  C_28
REMARK   15  A    between atoms: C_28  and  C_29
REMARK   16  A    between atoms: C_28  and  C_30
REMARK   17  A    between atoms: C_32  and  C_33
REMARK   18  A    between atoms: C_33  and  C_34
REMARK   19  A    between atoms: C_33  and  C_35
REMARK                            x       y       z     vdW  Elec       q    Type
REMARK                         _______ _______ _______ _____ _____    ______ ____
ROOT
ATOM      1  C   UNL     1       7.880  -0.375  23.046  0.00  0.00    +0.008 A 
ATOM      2  C   UNL     1       7.917   0.939  23.588  0.00  0.00    +0.050 A 
ATOM      3  N   UNL     1       7.193   1.282  24.675  0.00  0.00    -0.255 NA
ATOM      4  C   UNL     1       6.356   0.388  25.236  0.00  0.00    +0.052 A 
ATOM      5  C   UNL     1       6.220  -0.935  24.763  0.00  0.00    +0.004 A 
ATOM      6  C   UNL     1       7.029  -1.374  23.662  0.00  0.00    -0.002 A 
ENDROOT
BRANCH   6   7
ATOM      7  C   UNL     1       7.000  -2.818  23.162  0.00  0.00    -0.017 A 
ATOM      8  C   UNL     1       7.755  -3.849  23.758  0.00  0.00    +0.011 A 
ATOM      9  C   UNL     1       7.705  -5.186  23.327  0.00  0.00    +0.039 A 
ATOM     10  C   UNL     1       6.827  -5.540  22.321  0.00  0.00    +0.123 A 
ATOM     11  F   UNL     1       6.721  -6.826  21.956  0.00  0.00    -0.205 F 
ATOM     12  C   UNL     1       6.062  -4.580  21.701  0.00  0.00    +0.039 A 
ATOM     13  C   UNL     1       6.192  -3.232  22.079  0.00  0.00    +0.011 A 
ENDBRANCH   6   7
BRANCH   2  14
ATOM     14  C   UNL     1       8.662   2.112  22.950  0.00  0.00    +0.032 C 
ATOM     15  C   UNL     1       9.401   3.010  23.954  0.00  0.00    +0.014 C 
ATOM     16  C   UNL     1       7.678   2.960  22.136  0.00  0.00    +0.014 C 
ENDBRANCH   2  14
BRANCH   4  17
ATOM     17  C   UNL     1       5.664   0.892  26.513  0.00  0.00    +0.032 C 
ATOM     18  C   UNL     1       5.030   2.280  26.345  0.00  0.00    +0.014 C 
ATOM     19  C   UNL     1       6.665   0.927  27.671  0.00  0.00    +0.014 C 
ENDBRANCH   4  17
BRANCH   5  20
ATOM     20  C   UNL     1       5.225  -1.787  25.451  0.00  0.00    +0.008 C 
ATOM     21  C   UNL     1       5.573  -2.589  26.476  0.00  0.00    +0.005 C 
BRANCH  21  22
ATOM     22  C   UNL     1       4.727  -3.628  27.166  0.00  0.00    +0.140 C 
BRANCH  22  23
ATOM     23  O   UNL     1       4.248  -3.138  28.417  0.00  0.00    -0.388 OA
ATOM     24  H   UNL     1       4.372  -3.855  29.065  0.00  0.00    +0.210 HD
ENDBRANCH  22  23
BRANCH  22  25
ATOM     25  C   UNL     1       3.524  -4.006  26.283  0.00  0.00    +0.067 C 
BRANCH  25  26
ATOM     26  C   UNL     1       3.389  -5.514  26.019  0.00  0.00    +0.128 C 
BRANCH  26  27
ATOM     27  O   UNL     1       2.037  -5.857  25.683  0.00  0.00    -0.391 OA
ATOM     28  H   UNL     1       2.067  -6.752  25.269  0.00  0.00    +0.210 HD
ENDBRANCH  26  27
BRANCH  26  29
ATOM     29  C   UNL     1       4.259  -5.933  24.830  0.00  0.00    +0.151 C 
BRANCH  29  30
ATOM     30  C   UNL     1       3.466  -6.499  23.678  0.00  0.00    +0.307 C 
ATOM     31  O   UNL     1       2.996  -5.803  22.789  0.00  0.00    -0.251 OA
BRANCH  30  32
ATOM     32  O   UNL     1       3.232  -7.828  23.749  0.00  0.00    -0.481 OA
ATOM     33  H   UNL     1       2.322  -8.015  24.098  0.00  0.00    +0.295 HD
ENDBRANCH  30  32
ENDBRANCH  29  30
ENDBRANCH  26  29
ENDBRANCH  25  26
ENDBRANCH  22  25
ENDBRANCH  21  22
ENDBRANCH   5  20
BRANCH   1  34
ATOM     34  C   UNL     1       8.735  -0.673  21.827  0.00  0.00    +0.197 C 
BRANCH  34  36
ATOM     35  C   UNL     1      10.538  -1.708  22.910  0.00  0.00    +0.194 C 
ATOM     36  O   UNL     1      10.118  -0.585  22.146  0.00  0.00    -0.378 OA
ENDBRANCH  34  36
ENDBRANCH   1  34
TORSDOF 14
ENDMDL
MODEL 6
REMARK VINA RESULT:      -5.7      3.562      7.358
REMARK  Name = 
REMARK  19 active torsions:
REMARK  status: ('A' for Active; 'I' for Inactive)
REMARK    1  A    between atoms: C_1  and  O_2
REMARK    2  A    between atoms: O_2  and  C_3
REMARK    3  A    between atoms: C_3  and  C_4
REMARK    4  A    between atoms: C_5  and  C_6
REMARK    5  A    between atoms: C_13  and  C_14
REMARK    6  A    between atoms: C_15  and  C_16
REMARK    7  A    between atoms: C_16  and  O_18
REMARK    8  A    between atoms: C_16  and  C_19
REMARK    9  A    between atoms: C_19  and  C_20
REMARK   10  A    between atoms: C_20  and  O_22
REMARK   11  A    between atoms: C_20  and  C_23
REMARK   12  A    between atoms: C_23  and  C_24
REMARK   13  A    between atoms: C_24  and  O_25
REMARK   14  A    between atoms: C_27  and  C_28
REMARK   15  A    between atoms: C_28  and  C_29
REMARK   16  A    between atoms: C_28  and  C_30
REMARK   17  A    between atoms: C_32  and  C_33
REMARK   18  A    between atoms: C_33  and  C_34
REMARK   19  A    between atoms: C_33  and  C_35
REMARK                            x       y       z     vdW  Elec       q    Type
REMARK                         _______ _______ _______ _____ _____    ______ ____
ROOT
ATOM      1  C   UNL     1       5.697  -2.960  23.239  0.00  0.00    +0.008 A 
ATOM      2  C   UNL     1       4.652  -3.666  23.896  0.00  0.00    +0.050 A 
ATOM      3  N   UNL     1       4.131  -3.239  25.068  0.00  0.00    -0.255 NA
ATOM      4  C   UNL     1       4.648  -2.156  25.679  0.00  0.00    +0.052 A 
ATOM      5  C   UNL     1       5.704  -1.398  25.130  0.00  0.00    +0.004 A 
ATOM      6  C   UNL     1       6.237  -1.760  23.847  0.00  0.00    -0.002 A 
ENDROOT
BRANCH   6   7
ATOM      7  C   UNL     1       7.314  -0.927  23.153  0.00  0.00    -0.017 A 
ATOM      8  C   UNL     1       7.034   0.284  22.488  0.00  0.00    +0.011 A 
ATOM      9  C   UNL     1       8.025   1.073  21.880  0.00  0.00    +0.039 A 
ATOM     10  C   UNL     1       9.351   0.700  21.991  0.00  0.00    +0.123 A 
ATOM     11  F   UNL     1      10.307   1.488  21.478  0.00  0.00    -0.205 F 
ATOM     12  C   UNL     1       9.688  -0.470  22.631  0.00  0.00    +0.039 A 
ATOM     13  C   UNL     1       8.678  -1.297  23.153  0.00  0.00    +0.011 A 
ENDBRANCH   6   7
BRANCH   2  14
ATOM     14  C   UNL     1       4.097  -5.012  23.430  0.00  0.00    +0.032 C 
ATOM     15  C   UNL     1       2.564  -5.110  23.469  0.00  0.00    +0.014 C 
ATOM     16  C   UNL     1       4.700  -6.134  24.282  0.00  0.00    +0.014 C 
ENDBRANCH   2  14
BRANCH   4  17
ATOM     17  C   UNL     1       3.901  -1.741  26.957  0.00  0.00    +0.032 C 
ATOM     18  C   UNL     1       4.388  -2.489  28.206  0.00  0.00    +0.014 C 
ATOM     19  C   UNL     1       2.397  -1.971  26.781  0.00  0.00    +0.014 C 
ENDBRANCH   4  17
BRANCH   5  20
ATOM     20  C   UNL     1       6.199  -0.263  25.941  0.00  0.00    +0.008 C 
ATOM     21  C   UNL     1       5.816   1.003  25.687  0.00  0.00    +0.005 C 
BRANCH  21  22
ATOM     22  C   UNL     1       6.348   2.271  26.304  0.00  0.00    +0.140 C 
BRANCH  22  23
ATOM     23  O   UNL     1       7.345   1.978  27.280  0.00  0.00    -0.388 OA
ATOM     24  H   UNL     1       7.991   1.387  26.853  0.00  0.00    +0.210 HD
ENDBRANCH  22  23
BRANCH  22  25
ATOM     25  C   UNL     1       6.963   3.174  25.217  0.00  0.00    +0.067 C 
BRANCH  25  26
ATOM     26  C   UNL     1       8.500   3.194  25.216  0.00  0.00    +0.128 C 
BRANCH  26  27
ATOM     27  O   UNL     1       9.030   1.862  25.178  0.00  0.00    -0.391 OA
ATOM     28  H   UNL     1       9.930   1.927  24.779  0.00  0.00    +0.210 HD
ENDBRANCH  26  27
BRANCH  26  29
ATOM     29  C   UNL     1       9.028   3.916  23.973  0.00  0.00    +0.151 C 
BRANCH  29  30
ATOM     30  C   UNL     1       9.362   5.367  24.219  0.00  0.00    +0.307 C 
ATOM     31  O   UNL     1       9.375   5.865  25.336  0.00  0.00    -0.251 OA
BRANCH  30  32
ATOM     32  O   UNL     1       9.555   6.102  23.102  0.00  0.00    -0.481 OA
ATOM     33  H   UNL     1       8.853   5.920  22.425  0.00  0.00    +0.295 HD
ENDBRANCH  30  32
ENDBRANCH  29  30
ENDBRANCH  26  29
ENDBRANCH  25  26
ENDBRANCH  22  25
ENDBRANCH  21  22
ENDBRANCH   5  20
BRANCH   1  34
ATOM     34  C   UNL     1       6.214  -3.508  21.921  0.00  0.00    +0.197 C 
BRANCH  34  36
ATOM     35  C   UNL     1       7.087  -5.643  21.505  0.00  0.00    +0.194 C 
ATOM     36  O   UNL     1       7.310  -4.388  22.135  0.00  0.00    -0.378 OA
ENDBRANCH  34  36
ENDBRANCH   1  34
TORSDOF 14
ENDMDL
MODEL 7
REMARK VINA RESULT:      -5.5      3.464      8.306
REMARK  Name = 
REMARK  19 active torsions:
REMARK  status: ('A' for Active; 'I' for Inactive)
REMARK    1  A    between atoms: C_1  and  O_2
REMARK    2  A    between atoms: O_2  and  C_3
REMARK    3  A    between atoms: C_3  and  C_4
REMARK    4  A    between atoms: C_5  and  C_6
REMARK    5  A    between atoms: C_13  and  C_14
REMARK    6  A    between atoms: C_15  and  C_16
REMARK    7  A    between atoms: C_16  and  O_18
REMARK    8  A    between atoms: C_16  and  C_19
REMARK    9  A    between atoms: C_19  and  C_20
REMARK   10  A    between atoms: C_20  and  O_22
REMARK   11  A    between atoms: C_20  and  C_23
REMARK   12  A    between atoms: C_23  and  C_24
REMARK   13  A    between atoms: C_24  and  O_25
REMARK   14  A    between atoms: C_27  and  C_28
REMARK   15  A    between atoms: C_28  and  C_29
REMARK   16  A    between atoms: C_28  and  C_30
REMARK   17  A    between atoms: C_32  and  C_33
REMARK   18  A    between atoms: C_33  and  C_34
REMARK   19  A    between atoms: C_33  and  C_35
REMARK                            x       y       z     vdW  Elec       q    Type
REMARK                         _______ _______ _______ _____ _____    ______ ____
ROOT
ATOM      1  C   UNL     1       5.309  -1.739  26.465  0.00  0.00    +0.008 A 
ATOM      2  C   UNL     1       5.231  -3.156  26.564  0.00  0.00    +0.050 A 
ATOM      3  N   UNL     1       6.002  -3.966  25.806  0.00  0.00    -0.255 NA
ATOM      4  C   UNL     1       6.825  -3.438  24.879  0.00  0.00    +0.052 A 
ATOM      5  C   UNL     1       6.960  -2.048  24.677  0.00  0.00    +0.004 A 
ATOM      6  C   UNL     1       6.225  -1.142  25.513  0.00  0.00    -0.002 A 
ENDROOT
BRANCH   6   7
ATOM      7  C   UNL     1       6.397   0.373  25.412  0.00  0.00    -0.017 A 
ATOM      8  C   UNL     1       5.621   1.174  24.548  0.00  0.00    +0.011 A 
ATOM      9  C   UNL     1       5.748   2.572  24.477  0.00  0.00    +0.039 A 
ATOM     10  C   UNL     1       6.616   3.218  25.336  0.00  0.00    +0.123 A 
ATOM     11  F   UNL     1       6.687   4.557  25.325  0.00  0.00    -0.205 F 
ATOM     12  C   UNL     1       7.398   2.492  26.204  0.00  0.00    +0.039 A 
ATOM     13  C   UNL     1       7.329   1.087  26.198  0.00  0.00    +0.011 A 
ENDBRANCH   6   7
BRANCH   2  14
ATOM     14  C   UNL     1       4.212  -3.903  27.424  0.00  0.00    +0.032 C 
ATOM     15  C   UNL     1       4.768  -4.409  28.763  0.00  0.00    +0.014 C 
ATOM     16  C   UNL     1       3.643  -5.084  26.629  0.00  0.00    +0.014 C 
ENDBRANCH   2  14
BRANCH   4  17
ATOM     17  C   UNL     1       7.699  -4.475  24.155  0.00  0.00    +0.032 C 
ATOM     18  C   UNL     1       6.886  -5.441  23.282  0.00  0.00    +0.014 C 
ATOM     19  C   UNL     1       8.515  -5.275  25.174  0.00  0.00    +0.014 C 
ENDBRANCH   4  17
BRANCH   5  20
ATOM     20  C   UNL     1       7.866  -1.620  23.589  0.00  0.00    +0.008 C 
ATOM     21  C   UNL     1       9.175  -1.392  23.811  0.00  0.00    +0.005 C 
BRANCH  21  22
ATOM     22  C   UNL     1      10.185  -0.801  22.861  0.00  0.00    +0.140 C 
BRANCH  22  23
ATOM     23  O   UNL     1      10.868  -1.828  22.146  0.00  0.00    -0.388 OA
ATOM     24  H   UNL     1      11.683  -1.429  21.791  0.00  0.00    +0.210 HD
ENDBRANCH  22  23
BRANCH  22  25
ATOM     25  C   UNL     1       9.485   0.129  21.852  0.00  0.00    +0.067 C 
BRANCH  25  26
ATOM     26  C   UNL     1       9.914   1.602  21.956  0.00  0.00    +0.128 C 
BRANCH  26  27
ATOM     27  O   UNL     1       8.946   2.461  21.336  0.00  0.00    -0.391 OA
ATOM     28  H   UNL     1       8.425   1.898  20.716  0.00  0.00    +0.210 HD
ENDBRANCH  26  27
BRANCH  26  29
ATOM     29  C   UNL     1      10.013   2.033  23.422  0.00  0.00    +0.151 C 
BRANCH  29  30
ATOM     30  C   UNL     1      10.373   3.489  23.594  0.00  0.00    +0.307 C 
ATOM     31  O   UNL     1       9.802   4.225  24.387  0.00  0.00    -0.251 OA
BRANCH  30  32
ATOM     32  O   UNL     1      11.314   3.945  22.739  0.00  0.00    -0.481 OA
ATOM     33  H   UNL     1      12.196   3.527  22.918  0.00  0.00    +0.295 HD
ENDBRANCH  30  32
ENDBRANCH  29  30
ENDBRANCH  26  29
ENDBRANCH  25  26
ENDBRANCH  22  25
ENDBRANCH  21  22
ENDBRANCH   5  20
BRANCH   1  34
ATOM     34  C   UNL     1       4.412  -0.907  27.363  0.00  0.00    +0.197 C 
BRANCH  34  36
ATOM     35  C   UNL     1       2.111  -0.531  27.611  0.00  0.00    +0.194 C 
ATOM     36  O   UNL     1       3.199  -0.575  26.698  0.00  0.00    -0.378 OA
ENDBRANCH  34  36
ENDBRANCH   1  34
TORSDOF 14
ENDMDL
MODEL 8
REMARK VINA RESULT:      -5.4      2.943      5.474
REMARK  Name = 
REMARK  19 active torsions:
REMARK  status: ('A' for Active; 'I' for Inactive)
REMARK    1  A    between atoms: C_1  and  O_2
REMARK    2  A    between atoms: O_2  and  C_3
REMARK    3  A    between atoms: C_3  and  C_4
REMARK    4  A    between atoms: C_5  and  C_6
REMARK    5  A    between atoms: C_13  and  C_14
REMARK    6  A    between atoms: C_15  and  C_16
REMARK    7  A    between atoms: C_16  and  O_18
REMARK    8  A    between atoms: C_16  and  C_19
REMARK    9  A    between atoms: C_19  and  C_20
REMARK   10  A    between atoms: C_20  and  O_22
REMARK   11  A    between atoms: C_20  and  C_23
REMARK   12  A    between atoms: C_23  and  C_24
REMARK   13  A    between atoms: C_24  and  O_25
REMARK   14  A    between atoms: C_27  and  C_28
REMARK   15  A    between atoms: C_28  and  C_29
REMARK   16  A    between atoms: C_28  and  C_30
REMARK   17  A    between atoms: C_32  and  C_33
REMARK   18  A    between atoms: C_33  and  C_34
REMARK   19  A    between atoms: C_33  and  C_35
REMARK                            x       y       z     vdW  Elec       q    Type
REMARK                         _______ _______ _______ _____ _____    ______ ____
ROOT
ATOM      1  C   UNL     1       5.359   1.936  25.220  0.00  0.00    +0.008 A 
ATOM      2  C   UNL     1       4.266   1.617  26.071  0.00  0.00    +0.050 A 
ATOM      3  N   UNL     1       4.094   0.375  26.575  0.00  0.00    -0.255 NA
ATOM      4  C   UNL     1       4.933  -0.617  26.219  0.00  0.00    +0.052 A 
ATOM      5  C   UNL     1       6.035  -0.417  25.360  0.00  0.00    +0.004 A 
ATOM      6  C   UNL     1       6.310   0.901  24.864  0.00  0.00    -0.002 A 
ENDROOT
BRANCH   6   7
ATOM      7  C   UNL     1       7.538   1.204  24.007  0.00  0.00    -0.017 A 
ATOM      8  C   UNL     1       7.521   1.148  22.598  0.00  0.00    +0.011 A 
ATOM      9  C   UNL     1       8.636   1.462  21.803  0.00  0.00    +0.039 A 
ATOM     10  C   UNL     1       9.792   1.918  22.408  0.00  0.00    +0.123 A 
ATOM     11  F   UNL     1      10.835   2.290  21.650  0.00  0.00    -0.205 F 
ATOM     12  C   UNL     1       9.870   1.998  23.779  0.00  0.00    +0.039 A 
ATOM     13  C   UNL     1       8.777   1.591  24.565  0.00  0.00    +0.011 A 
ENDBRANCH   6   7
BRANCH   2  14
ATOM     14  C   UNL     1       3.126   2.579  26.405  0.00  0.00    +0.032 C 
ATOM     15  C   UNL     1       3.369   3.433  27.659  0.00  0.00    +0.014 C 
ATOM     16  C   UNL     1       1.824   1.789  26.572  0.00  0.00    +0.014 C 
ENDBRANCH   2  14
BRANCH   4  17
ATOM     17  C   UNL     1       4.666  -1.951  26.935  0.00  0.00    +0.032 C 
ATOM     18  C   UNL     1       3.553  -2.775  26.273  0.00  0.00    +0.014 C 
ATOM     19  C   UNL     1       4.304  -1.694  28.401  0.00  0.00    +0.014 C 
ENDBRANCH   4  17
BRANCH   5  20
ATOM     20  C   UNL     1       6.838  -1.613  25.021  0.00  0.00    +0.008 C 
ATOM     21  C   UNL     1       6.597  -2.331  23.907  0.00  0.00    +0.005 C 
BRANCH  21  22
ATOM     22  C   UNL     1       7.205  -3.651  23.508  0.00  0.00    +0.140 C 
BRANCH  22  23
ATOM     23  O   UNL     1       7.209  -3.797  22.089  0.00  0.00    -0.388 OA
ATOM     24  H   UNL     1       8.100  -4.104  21.841  0.00  0.00    +0.210 HD
ENDBRANCH  22  23
BRANCH  22  25
ATOM     25  C   UNL     1       8.654  -3.746  24.023  0.00  0.00    +0.067 C 
BRANCH  25  26
ATOM     26  C   UNL     1       8.915  -4.954  24.938  0.00  0.00    +0.128 C 
BRANCH  26  27
ATOM     27  O   UNL     1      10.321  -5.214  25.053  0.00  0.00    -0.391 OA
ATOM     28  H   UNL     1      10.463  -6.142  24.747  0.00  0.00    +0.210 HD
ENDBRANCH  26  27
BRANCH  26  29
ATOM     29  C   UNL     1       8.399  -4.679  26.354  0.00  0.00    +0.151 C 
BRANCH  29  30
ATOM     30  C   UNL     1       7.336  -5.653  26.802  0.00  0.00    +0.307 C 
ATOM     31  O   UNL     1       6.376  -5.953  26.109  0.00  0.00    -0.251 OA
BRANCH  30  32
ATOM     32  O   UNL     1       7.476  -6.100  28.070  0.00  0.00    -0.481 OA
ATOM     33  H   UNL     1       7.137  -7.027  28.164  0.00  0.00    +0.295 HD
ENDBRANCH  30  32
ENDBRANCH  29  30
ENDBRANCH  26  29
ENDBRANCH  25  26
ENDBRANCH  22  25
ENDBRANCH  21  22
ENDBRANCH   5  20
BRANCH   1  34
ATOM     34  C   UNL     1       5.478   3.361  24.708  0.00  0.00    +0.197 C 
BRANCH  34  36
ATOM     35  C   UNL     1       4.987   4.821  22.941  0.00  0.00    +0.194 C 
ATOM     36  O   UNL     1       4.895   3.484  23.417  0.00  0.00    -0.378 OA
ENDBRANCH  34  36
ENDBRANCH   1  34
TORSDOF 14
ENDMDL
MODEL 9
REMARK VINA RESULT:      -5.4      2.681      4.021
REMARK  Name = 
REMARK  19 active torsions:
REMARK  status: ('A' for Active; 'I' for Inactive)
REMARK    1  A    between atoms: C_1  and  O_2
REMARK    2  A    between atoms: O_2  and  C_3
REMARK    3  A    between atoms: C_3  and  C_4
REMARK    4  A    between atoms: C_5  and  C_6
REMARK    5  A    between atoms: C_13  and  C_14
REMARK    6  A    between atoms: C_15  and  C_16
REMARK    7  A    between atoms: C_16  and  O_18
REMARK    8  A    between atoms: C_16  and  C_19
REMARK    9  A    between atoms: C_19  and  C_20
REMARK   10  A    between atoms: C_20  and  O_22
REMARK   11  A    between atoms: C_20  and  C_23
REMARK   12  A    between atoms: C_23  and  C_24
REMARK   13  A    between atoms: C_24  and  O_25
REMARK   14  A    between atoms: C_27  and  C_28
REMARK   15  A    between atoms: C_28  and  C_29
REMARK   16  A    between atoms: C_28  and  C_30
REMARK   17  A    between atoms: C_32  and  C_33
REMARK   18  A    between atoms: C_33  and  C_34
REMARK   19  A    between atoms: C_33  and  C_35
REMARK                            x       y       z     vdW  Elec       q    Type
REMARK                         _______ _______ _______ _____ _____    ______ ____
ROOT
ATOM      1  C   UNL     1       8.473   3.243  23.346  0.00  0.00    +0.008 A 
ATOM      2  C   UNL     1       7.753   4.464  23.458  0.00  0.00    +0.050 A 
ATOM      3  N   UNL     1       6.504   4.511  23.970  0.00  0.00    -0.255 NA
ATOM      4  C   UNL     1       5.881   3.371  24.328  0.00  0.00    +0.052 A 
ATOM      5  C   UNL     1       6.491   2.102  24.233  0.00  0.00    +0.004 A 
ATOM      6  C   UNL     1       7.848   2.007  23.774  0.00  0.00    -0.002 A 
ENDROOT
BRANCH   6   7
ATOM      7  C   UNL     1       8.598   0.677  23.737  0.00  0.00    -0.017 A 
ATOM      8  C   UNL     1       9.423   0.235  24.792  0.00  0.00    +0.011 A 
ATOM      9  C   UNL     1      10.087  -1.004  24.781  0.00  0.00    +0.039 A 
ATOM     10  C   UNL     1       9.876  -1.876  23.730  0.00  0.00    +0.123 A 
ATOM     11  F   UNL     1      10.448  -3.089  23.749  0.00  0.00    -0.205 F 
ATOM     12  C   UNL     1       9.080  -1.503  22.672  0.00  0.00    +0.039 A 
ATOM     13  C   UNL     1       8.498  -0.223  22.652  0.00  0.00    +0.011 A 
ENDBRANCH   6   7
BRANCH   2  14
ATOM     14  C   UNL     1       8.247   5.806  22.917  0.00  0.00    +0.032 C 
ATOM     15  C   UNL     1       8.579   6.840  24.003  0.00  0.00    +0.014 C 
ATOM     16  C   UNL     1       7.197   6.388  21.964  0.00  0.00    +0.014 C 
ENDBRANCH   2  14
BRANCH   4  17
ATOM     17  C   UNL     1       4.501   3.587  24.971  0.00  0.00    +0.032 C 
ATOM     18  C   UNL     1       3.365   3.665  23.942  0.00  0.00    +0.014 C 
ATOM     19  C   UNL     1       4.511   4.864  25.815  0.00  0.00    +0.014 C 
ENDBRANCH   4  17
BRANCH   5  20
ATOM     20  C   UNL     1       5.664   0.937  24.618  0.00  0.00    +0.008 C 
ATOM     21  C   UNL     1       6.001   0.145  25.654  0.00  0.00    +0.005 C 
BRANCH  21  22
ATOM     22  C   UNL     1       5.367  -1.158  26.067  0.00  0.00    +0.140 C 
BRANCH  22  23
ATOM     23  O   UNL     1       3.948  -1.030  26.134  0.00  0.00    -0.388 OA
ATOM     24  H   UNL     1       3.763  -0.173  26.559  0.00  0.00    +0.210 HD
ENDBRANCH  22  23
BRANCH  22  25
ATOM     25  C   UNL     1       5.722  -2.266  25.058  0.00  0.00    +0.067 C 
BRANCH  25  26
ATOM     26  C   UNL     1       5.987  -3.637  25.701  0.00  0.00    +0.128 C 
BRANCH  26  27
ATOM     27  O   UNL     1       6.544  -4.551  24.745  0.00  0.00    -0.391 OA
ATOM     28  H   UNL     1       6.661  -4.045  23.906  0.00  0.00    +0.210 HD
ENDBRANCH  26  27
BRANCH  26  29
ATOM     29  C   UNL     1       7.006  -3.511  26.838  0.00  0.00    +0.151 C 
BRANCH  29  30
ATOM     30  C   UNL     1       8.094  -4.556  26.784  0.00  0.00    +0.307 C 
ATOM     31  O   UNL     1       9.135  -4.400  26.162  0.00  0.00    -0.251 OA
BRANCH  30  32
ATOM     32  O   UNL     1       7.793  -5.720  27.401  0.00  0.00    -0.481 OA
ATOM     33  H   UNL     1       7.507  -6.410  26.748  0.00  0.00    +0.295 HD
ENDBRANCH  30  32
ENDBRANCH  29  30
ENDBRANCH  26  29
ENDBRANCH  25  26
ENDBRANCH  22  25
ENDBRANCH  21  22
ENDBRANCH   5  20
BRANCH   1  34
ATOM     34  C   UNL     1       9.876   3.287  22.768  0.00  0.00    +0.197 C 
BRANCH  34  36
ATOM     35  C   UNL     1      11.856   4.398  23.349  0.00  0.00    +0.194 C 
ATOM     36  O   UNL     1      10.838   3.510  23.791  0.00  0.00    -0.378 OA
ENDBRANCH  34  36
ENDBRANCH   1  34
TORSDOF 14
ENDMDL
