MODEL 1
REMARK VINA RESULT:      -6.1      0.000      0.000
REMARK  Name = 
REMARK  12 active torsions:
REMARK  status: ('A' for Active; 'I' for Inactive)
REMARK    1  A    between atoms: CA_2  and  CB_3
REMARK    2  A    between atoms: CA_2  and  N_4
REMARK    3  A    between atoms: CA_2  and  C_23
REMARK    4  A    between atoms: C_5  and  C_7
REMARK    5  A    between atoms: C_7  and  C_8
REMARK    6  A    between atoms: C_8  and  C_9
REMARK    7  A    between atoms: C_9  and  P_10
REMARK    8  A    between atoms: P_10  and  O_11
REMARK    9  A    between atoms: P_10  and  O_13
REMARK   10  A    between atoms: O_13  and  C_14
REMARK   11  A    between atoms: C_17  and  N_20
REMARK   12  A    between atoms: C_23  and  O_24
REMARK                            x       y       z     vdW  Elec       q    Type
REMARK                         _______ _______ _______ _____ _____    ______ ____
ROOT
ATOM      1  P   UNK A   0       9.562  -0.949  24.255  0.00  0.00    +0.379 P 
ATOM      2  O   UNK A   0       9.031  -1.735  25.460  0.00  0.00    -0.244 OA
ENDROOT
BRANCH   1   3
ATOM      3  O   UNK A   0      10.124  -2.464  23.637  0.00  0.00    -0.315 OA
ATOM      4  H   UNK A   0      10.048  -2.354  22.662  0.00  0.00    +0.221 HD
ENDBRANCH   1   3
BRANCH   1   5
ATOM      5  C   UNK A   0       8.210  -0.963  22.945  0.00  0.00    +0.141 C 
BRANCH   5   6
ATOM      6  C   UNK A   0       8.068  -2.277  22.192  0.00  0.00    +0.022 C 
BRANCH   6   7
ATOM      7  C   UNK A   0       6.791  -3.055  22.512  0.00  0.00    +0.096 C 
BRANCH   7  10
ATOM      8  N   ALA A   1       7.645  -4.073  24.558  0.00  0.00    -0.303 N 
ATOM      9  H   ALA A   1       7.779  -3.121  24.873  0.00  0.00    +0.149 HD
ATOM     10  C   UNK A   0       7.133  -4.302  23.306  0.00  0.00    +0.214 C 
ATOM     11  O   UNK A   0       7.021  -5.442  22.865  0.00  0.00    -0.276 OA
BRANCH   8  12
ATOM     12  CA  ALA A   1       8.063  -5.150  25.462  0.00  0.00    +0.178 C 
ATOM     13  CB  ALA A   1       9.574  -5.351  25.523  0.00  0.00    +0.040 C 
BRANCH  12  14
ATOM     14  C   ALA A   1       7.463  -5.017  26.871  0.00  0.00    +0.325 C 
ATOM     15  OXT ALA A   1       6.774  -4.065  27.218  0.00  0.00    -0.249 OA
BRANCH  14  16
ATOM     16  O   ALA A   1       7.728  -6.047  27.707  0.00  0.00    -0.479 OA
ATOM     17  H   ALA A   1       7.301  -6.894  27.424  0.00  0.00    +0.295 HD
ENDBRANCH  14  16
ENDBRANCH  12  14
ENDBRANCH   8  12
ENDBRANCH   7  10
ENDBRANCH   6   7
ENDBRANCH   5   6
ENDBRANCH   1   5
BRANCH   1  18
ATOM     18  O   UNK A   0       9.000   0.565  24.874  0.00  0.00    -0.424 OA
BRANCH  18  19
ATOM     19  C   UNK A   0       9.359   1.794  24.417  0.00  0.00    +0.130 A 
ATOM     20  C   UNK A   0      10.525   2.057  23.712  0.00  0.00    +0.053 A 
ATOM     21  C   UNK A   0      10.866   3.387  23.431  0.00  0.00    +0.088 A 
ATOM     22  C   UNK A   0      10.032   4.434  23.857  0.00  0.00    +0.273 A 
ATOM     23  C   UNK A   0       8.841   4.161  24.538  0.00  0.00    +0.088 A 
ATOM     24  C   UNK A   0       8.515   2.835  24.819  0.00  0.00    +0.053 A 
BRANCH  22  25
ATOM     25  N   UNK A   0      10.428   5.830  23.627  0.00  0.00    +0.080 N 
ATOM     26  O   UNK A   0      11.640   6.088  23.609  0.00  0.00    +0.041 OA
ATOM     27  O   UNK A   0       9.528   6.668  23.474  0.00  0.00    -0.576 OA
ENDBRANCH  22  25
ENDBRANCH  18  19
ENDBRANCH   1  18
TORSDOF 11
ENDMDL
MODEL 2
REMARK VINA RESULT:      -6.1      2.302      3.509
REMARK  Name = 
REMARK  12 active torsions:
REMARK  status: ('A' for Active; 'I' for Inactive)
REMARK    1  A    between atoms: CA_2  and  CB_3
REMARK    2  A    between atoms: CA_2  and  N_4
REMARK    3  A    between atoms: CA_2  and  C_23
REMARK    4  A    between atoms: C_5  and  C_7
REMARK    5  A    between atoms: C_7  and  C_8
REMARK    6  A    between atoms: C_8  and  C_9
REMARK    7  A    between atoms: C_9  and  P_10
REMARK    8  A    between atoms: P_10  and  O_11
REMARK    9  A    between atoms: P_10  and  O_13
REMARK   10  A    between atoms: O_13  and  C_14
REMARK   11  A    between atoms: C_17  and  N_20
REMARK   12  A    between atoms: C_23  and  O_24
REMARK                            x       y       z     vdW  Elec       q    Type
REMARK                         _______ _______ _______ _____ _____    ______ ____
ROOT
ATOM      1  P   UNK A   0       7.541  -1.991  22.726  0.00  0.00    +0.379 P 
ATOM      2  O   UNK A   0       7.778  -3.505  22.697  0.00  0.00    -0.244 OA
ENDROOT
BRANCH   1   3
ATOM      3  O   UNK A   0       5.853  -2.348  22.606  0.00  0.00    -0.315 OA
ATOM      4  H   UNK A   0       5.647  -2.159  21.662  0.00  0.00    +0.221 HD
ENDBRANCH   1   3
BRANCH   1   5
ATOM      5  C   UNK A   0       7.269  -1.507  24.525  0.00  0.00    +0.141 C 
BRANCH   5   6
ATOM      6  C   UNK A   0       8.017  -2.365  25.534  0.00  0.00    +0.022 C 
BRANCH   6   7
ATOM      7  C   UNK A   0       7.121  -3.263  26.389  0.00  0.00    +0.096 C 
BRANCH   7  10
ATOM      8  N   ALA A   1       5.734  -4.639  24.928  0.00  0.00    -0.303 N 
ATOM      9  H   ALA A   1       5.117  -3.837  24.901  0.00  0.00    +0.149 HD
ATOM     10  C   UNK A   0       6.882  -4.581  25.675  0.00  0.00    +0.214 C 
ATOM     11  O   UNK A   0       7.618  -5.557  25.785  0.00  0.00    -0.276 OA
BRANCH   8  12
ATOM     12  CA  ALA A   1       5.317  -5.837  24.191  0.00  0.00    +0.178 C 
ATOM     13  CB  ALA A   1       4.524  -6.833  25.033  0.00  0.00    +0.040 C 
BRANCH  12  14
ATOM     14  C   ALA A   1       4.582  -5.511  22.881  0.00  0.00    +0.325 C 
ATOM     15  OXT ALA A   1       3.361  -5.442  22.797  0.00  0.00    -0.249 OA
BRANCH  14  16
ATOM     16  O   ALA A   1       5.383  -5.277  21.816  0.00  0.00    -0.479 OA
ATOM     17  H   ALA A   1       5.020  -4.590  21.204  0.00  0.00    +0.295 HD
ENDBRANCH  14  16
ENDBRANCH  12  14
ENDBRANCH   8  12
ENDBRANCH   7  10
ENDBRANCH   6   7
ENDBRANCH   5   6
ENDBRANCH   1   5
BRANCH   1  18
ATOM     18  O   UNK A   0       9.230  -1.633  22.846  0.00  0.00    -0.424 OA
BRANCH  18  19
ATOM     19  C   UNK A   0       9.771  -0.399  23.022  0.00  0.00    +0.130 A 
ATOM     20  C   UNK A   0      10.432   0.009  24.171  0.00  0.00    +0.053 A 
ATOM     21  C   UNK A   0      10.808   1.354  24.301  0.00  0.00    +0.088 A 
ATOM     22  C   UNK A   0      10.520   2.268  23.273  0.00  0.00    +0.273 A 
ATOM     23  C   UNK A   0       9.883   1.844  22.103  0.00  0.00    +0.088 A 
ATOM     24  C   UNK A   0       9.507   0.506  21.987  0.00  0.00    +0.053 A 
BRANCH  22  25
ATOM     25  N   UNK A   0      10.848   3.691  23.441  0.00  0.00    +0.080 N 
ATOM     26  O   UNK A   0      12.035   4.025  23.323  0.00  0.00    +0.041 OA
ATOM     27  O   UNK A   0       9.920   4.470  23.698  0.00  0.00    -0.576 OA
ENDBRANCH  22  25
ENDBRANCH  18  19
ENDBRANCH   1  18
TORSDOF 11
ENDMDL
MODEL 3
REMARK VINA RESULT:      -6.1      1.866      2.561
REMARK  Name = 
REMARK  12 active torsions:
REMARK  status: ('A' for Active; 'I' for Inactive)
REMARK    1  A    between atoms: CA_2  and  CB_3
REMARK    2  A    between atoms: CA_2  and  N_4
REMARK    3  A    between atoms: CA_2  and  C_23
REMARK    4  A    between atoms: C_5  and  C_7
REMARK    5  A    between atoms: C_7  and  C_8
REMARK    6  A    between atoms: C_8  and  C_9
REMARK    7  A    between atoms: C_9  and  P_10
REMARK    8  A    between atoms: P_10  and  O_11
REMARK    9  A    between atoms: P_10  and  O_13
REMARK   10  A    between atoms: O_13  and  C_14
REMARK   11  A    between atoms: C_17  and  N_20
REMARK   12  A    between atoms: C_23  and  O_24
REMARK                            x       y       z     vdW  Elec       q    Type
REMARK                         _______ _______ _______ _____ _____    ______ ____
ROOT
ATOM      1  P   UNK A   0       8.515  -2.766  23.510  0.00  0.00    +0.379 P 
ATOM      2  O   UNK A   0       7.592  -2.590  24.721  0.00  0.00    -0.244 OA
ENDROOT
BRANCH   1   3
ATOM      3  O   UNK A   0       8.880  -4.337  24.136  0.00  0.00    -0.315 OA
ATOM      4  H   UNK A   0       8.025  -4.817  24.058  0.00  0.00    +0.221 HD
ENDBRANCH   1   3
BRANCH   1   5
ATOM      5  C   UNK A   0       7.499  -3.588  22.154  0.00  0.00    +0.141 C 
BRANCH   5   6
ATOM      6  C   UNK A   0       7.166  -5.050  22.408  0.00  0.00    +0.022 C 
BRANCH   6   7
ATOM      7  C   UNK A   0       5.676  -5.335  22.597  0.00  0.00    +0.096 C 
BRANCH   7  10
ATOM      8  N   ALA A   1       6.188  -5.568  24.971  0.00  0.00    -0.303 N 
ATOM      9  H   ALA A   1       7.027  -6.037  24.656  0.00  0.00    +0.149 HD
ATOM     10  C   UNK A   0       5.288  -5.104  24.046  0.00  0.00    +0.214 C 
ATOM     11  O   UNK A   0       4.228  -4.593  24.394  0.00  0.00    -0.276 OA
BRANCH   8  12
ATOM     12  CA  ALA A   1       5.975  -5.465  26.419  0.00  0.00    +0.178 C 
ATOM     13  CB  ALA A   1       5.016  -6.513  26.977  0.00  0.00    +0.040 C 
BRANCH  12  14
ATOM     14  C   ALA A   1       7.288  -5.432  27.218  0.00  0.00    +0.325 C 
ATOM     15  OXT ALA A   1       8.173  -4.609  27.017  0.00  0.00    -0.249 OA
BRANCH  14  16
ATOM     16  O   ALA A   1       7.393  -6.370  28.187  0.00  0.00    -0.479 OA
ATOM     17  H   ALA A   1       6.562  -6.477  28.713  0.00  0.00    +0.295 HD
ENDBRANCH  14  16
ENDBRANCH  12  14
ENDBRANCH   8  12
ENDBRANCH   7  10
ENDBRANCH   6   7
ENDBRANCH   5   6
ENDBRANCH   1   5
BRANCH   1  18
ATOM     18  O   UNK A   0       8.150  -1.195  22.884  0.00  0.00    -0.424 OA
BRANCH  18  19
ATOM     19  C   UNK A   0       8.829  -0.051  23.161  0.00  0.00    +0.130 A 
ATOM     20  C   UNK A   0       8.825   0.581  24.396  0.00  0.00    +0.053 A 
ATOM     21  C   UNK A   0       9.432   1.839  24.520  0.00  0.00    +0.088 A 
ATOM     22  C   UNK A   0      10.038   2.443  23.405  0.00  0.00    +0.273 A 
ATOM     23  C   UNK A   0      10.067   1.786  22.171  0.00  0.00    +0.088 A 
ATOM     24  C   UNK A   0       9.455   0.539  22.057  0.00  0.00    +0.053 A 
BRANCH  22  25
ATOM     25  N   UNK A   0      10.608   3.792  23.518  0.00  0.00    +0.080 N 
ATOM     26  O   UNK A   0      11.790   3.946  23.181  0.00  0.00    +0.041 OA
ATOM     27  O   UNK A   0       9.876   4.694  23.949  0.00  0.00    -0.576 OA
ENDBRANCH  22  25
ENDBRANCH  18  19
ENDBRANCH   1  18
TORSDOF 11
ENDMDL
MODEL 4
REMARK VINA RESULT:      -6.0      2.390      8.542
REMARK  Name = 
REMARK  12 active torsions:
REMARK  status: ('A' for Active; 'I' for Inactive)
REMARK    1  A    between atoms: CA_2  and  CB_3
REMARK    2  A    between atoms: CA_2  and  N_4
REMARK    3  A    between atoms: CA_2  and  C_23
REMARK    4  A    between atoms: C_5  and  C_7
REMARK    5  A    between atoms: C_7  and  C_8
REMARK    6  A    between atoms: C_8  and  C_9
REMARK    7  A    between atoms: C_9  and  P_10
REMARK    8  A    between atoms: P_10  and  O_11
REMARK    9  A    between atoms: P_10  and  O_13
REMARK   10  A    between atoms: O_13  and  C_14
REMARK   11  A    between atoms: C_17  and  N_20
REMARK   12  A    between atoms: C_23  and  O_24
REMARK                            x       y       z     vdW  Elec       q    Type
REMARK                         _______ _______ _______ _____ _____    ______ ____
ROOT
ATOM      1  P   UNK A   0       8.952  -0.239  25.131  0.00  0.00    +0.379 P 
ATOM      2  O   UNK A   0       9.101  -0.698  26.586  0.00  0.00    -0.244 OA
ENDROOT
BRANCH   1   3
ATOM      3  O   UNK A   0       8.538   1.317  25.764  0.00  0.00    -0.315 OA
ATOM      4  H   UNK A   0       7.666   1.163  26.194  0.00  0.00    +0.221 HD
ENDBRANCH   1   3
BRANCH   1   5
ATOM      5  C   UNK A   0      10.615   0.466  24.599  0.00  0.00    +0.141 C 
BRANCH   5   6
ATOM      6  C   UNK A   0      10.529   1.701  23.715  0.00  0.00    +0.022 C 
BRANCH   6   7
ATOM      7  C   UNK A   0       9.977   1.438  22.314  0.00  0.00    +0.096 C 
BRANCH   7  10
ATOM      8  N   ALA A   1       8.677   3.466  22.700  0.00  0.00    -0.303 N 
ATOM      9  H   ALA A   1       9.477   3.773  23.238  0.00  0.00    +0.149 HD
ATOM     10  C   UNK A   0       8.699   2.229  22.107  0.00  0.00    +0.214 C 
ATOM     11  O   UNK A   0       7.720   1.797  21.506  0.00  0.00    -0.276 OA
BRANCH   8  12
ATOM     12  CA  ALA A   1       7.519   4.364  22.638  0.00  0.00    +0.178 C 
ATOM     13  CB  ALA A   1       6.599   4.268  23.851  0.00  0.00    +0.040 C 
BRANCH  12  14
ATOM     14  C   ALA A   1       7.907   5.824  22.350  0.00  0.00    +0.325 C 
ATOM     15  OXT ALA A   1       8.660   6.470  23.069  0.00  0.00    -0.249 OA
BRANCH  14  16
ATOM     16  O   ALA A   1       7.374   6.348  21.223  0.00  0.00    -0.479 OA
ATOM     17  H   ALA A   1       7.305   7.335  21.252  0.00  0.00    +0.295 HD
ENDBRANCH  14  16
ENDBRANCH  12  14
ENDBRANCH   8  12
ENDBRANCH   7  10
ENDBRANCH   6   7
ENDBRANCH   5   6
ENDBRANCH   1   5
BRANCH   1  18
ATOM     18  O   UNK A   0       9.367  -1.794  24.497  0.00  0.00    -0.424 OA
BRANCH  18  19
ATOM     19  C   UNK A   0       8.572  -2.573  23.717  0.00  0.00    +0.130 A 
ATOM     20  C   UNK A   0       7.748  -2.090  22.711  0.00  0.00    +0.053 A 
ATOM     21  C   UNK A   0       6.856  -2.968  22.080  0.00  0.00    +0.088 A 
ATOM     22  C   UNK A   0       6.806  -4.319  22.463  0.00  0.00    +0.273 A 
ATOM     23  C   UNK A   0       7.663  -4.807  23.455  0.00  0.00    +0.088 A 
ATOM     24  C   UNK A   0       8.541  -3.924  24.081  0.00  0.00    +0.053 A 
BRANCH  22  25
ATOM     25  N   UNK A   0       5.820  -5.222  21.854  0.00  0.00    +0.080 N 
ATOM     26  O   UNK A   0       4.672  -5.218  22.322  0.00  0.00    +0.041 OA
ATOM     27  O   UNK A   0       6.194  -5.937  20.915  0.00  0.00    -0.576 OA
ENDBRANCH  22  25
ENDBRANCH  18  19
ENDBRANCH   1  18
TORSDOF 11
ENDMDL
MODEL 5
REMARK VINA RESULT:      -6.0      3.282      8.276
REMARK  Name = 
REMARK  12 active torsions:
REMARK  status: ('A' for Active; 'I' for Inactive)
REMARK    1  A    between atoms: CA_2  and  CB_3
REMARK    2  A    between atoms: CA_2  and  N_4
REMARK    3  A    between atoms: CA_2  and  C_23
REMARK    4  A    between atoms: C_5  and  C_7
REMARK    5  A    between atoms: C_7  and  C_8
REMARK    6  A    between atoms: C_8  and  C_9
REMARK    7  A    between atoms: C_9  and  P_10
REMARK    8  A    between atoms: P_10  and  O_11
REMARK    9  A    between atoms: P_10  and  O_13
REMARK   10  A    between atoms: O_13  and  C_14
REMARK   11  A    between atoms: C_17  and  N_20
REMARK   12  A    between atoms: C_23  and  O_24
REMARK                            x       y       z     vdW  Elec       q    Type
REMARK                         _______ _______ _______ _____ _____    ______ ____
ROOT
ATOM      1  P   UNK A   0       9.034  -4.524  24.753  0.00  0.00    +0.379 P 
ATOM      2  O   UNK A   0      10.117  -3.602  24.181  0.00  0.00    -0.244 OA
ENDROOT
BRANCH   1   3
ATOM      3  O   UNK A   0      10.320  -5.440  25.458  0.00  0.00    -0.315 OA
ATOM      4  H   UNK A   0      10.504  -4.964  26.299  0.00  0.00    +0.221 HD
ENDBRANCH   1   3
BRANCH   1   5
ATOM      5  C   UNK A   0       8.608  -3.878  26.470  0.00  0.00    +0.141 C 
BRANCH   5   6
ATOM      6  C   UNK A   0       7.897  -2.534  26.485  0.00  0.00    +0.022 C 
BRANCH   6   7
ATOM      7  C   UNK A   0       8.813  -1.337  26.748  0.00  0.00    +0.096 C 
BRANCH   7  10
ATOM      8  N   ALA A   1       9.429  -0.716  24.471  0.00  0.00    -0.303 N 
ATOM      9  H   ALA A   1       9.963  -1.575  24.474  0.00  0.00    +0.149 HD
ATOM     10  C   UNK A   0       8.725  -0.358  25.592  0.00  0.00    +0.214 C 
ATOM     11  O   UNK A   0       8.121   0.709  25.648  0.00  0.00    -0.276 OA
BRANCH   8  12
ATOM     12  CA  ALA A   1       9.490   0.115  23.264  0.00  0.00    +0.178 C 
ATOM     13  CB  ALA A   1      10.482   1.270  23.361  0.00  0.00    +0.040 C 
BRANCH  12  14
ATOM     14  C   ALA A   1       9.716  -0.704  21.982  0.00  0.00    +0.325 C 
ATOM     15  OXT ALA A   1       9.173  -0.441  20.916  0.00  0.00    -0.249 OA
BRANCH  14  16
ATOM     16  O   ALA A   1      10.585  -1.733  22.105  0.00  0.00    -0.479 OA
ATOM     17  H   ALA A   1      11.307  -1.553  22.757  0.00  0.00    +0.295 HD
ENDBRANCH  14  16
ENDBRANCH  12  14
ENDBRANCH   8  12
ENDBRANCH   7  10
ENDBRANCH   6   7
ENDBRANCH   5   6
ENDBRANCH   1   5
BRANCH   1  18
ATOM     18  O   UNK A   0       7.747  -3.607  24.048  0.00  0.00    -0.424 OA
BRANCH  18  19
ATOM     19  C   UNK A   0       6.505  -4.075  23.754  0.00  0.00    +0.130 A 
ATOM     20  C   UNK A   0       5.328  -3.390  24.022  0.00  0.00    +0.053 A 
ATOM     21  C   UNK A   0       4.102  -4.039  23.820  0.00  0.00    +0.088 A 
ATOM     22  C   UNK A   0       4.073  -5.363  23.349  0.00  0.00    +0.273 A 
ATOM     23  C   UNK A   0       5.262  -6.036  23.051  0.00  0.00    +0.088 A 
ATOM     24  C   UNK A   0       6.476  -5.384  23.261  0.00  0.00    +0.053 A 
BRANCH  22  25
ATOM     25  N   UNK A   0       2.791  -6.067  23.210  0.00  0.00    +0.080 N 
ATOM     26  O   UNK A   0       1.849  -5.448  22.695  0.00  0.00    +0.041 OA
ATOM     27  O   UNK A   0       2.725  -7.233  23.622  0.00  0.00    -0.576 OA
ENDBRANCH  22  25
ENDBRANCH  18  19
ENDBRANCH   1  18
TORSDOF 11
ENDMDL
MODEL 6
REMARK VINA RESULT:      -6.0      2.693      7.614
REMARK  Name = 
REMARK  12 active torsions:
REMARK  status: ('A' for Active; 'I' for Inactive)
REMARK    1  A    between atoms: CA_2  and  CB_3
REMARK    2  A    between atoms: CA_2  and  N_4
REMARK    3  A    between atoms: CA_2  and  C_23
REMARK    4  A    between atoms: C_5  and  C_7
REMARK    5  A    between atoms: C_7  and  C_8
REMARK    6  A    between atoms: C_8  and  C_9
REMARK    7  A    between atoms: C_9  and  P_10
REMARK    8  A    between atoms: P_10  and  O_11
REMARK    9  A    between atoms: P_10  and  O_13
REMARK   10  A    between atoms: O_13  and  C_14
REMARK   11  A    between atoms: C_17  and  N_20
REMARK   12  A    between atoms: C_23  and  O_24
REMARK                            x       y       z     vdW  Elec       q    Type
REMARK                         _______ _______ _______ _____ _____    ______ ____
ROOT
ATOM      1  P   UNK A   0       5.683   1.313  24.800  0.00  0.00    +0.379 P 
ATOM      2  O   UNK A   0       4.834   0.345  25.632  0.00  0.00    -0.244 OA
ENDROOT
BRANCH   1   3
ATOM      3  O   UNK A   0       4.193   2.003  24.257  0.00  0.00    -0.315 OA
ATOM      4  H   UNK A   0       3.867   2.491  25.048  0.00  0.00    +0.221 HD
ENDBRANCH   1   3
BRANCH   1   5
ATOM      5  C   UNK A   0       5.963   2.848  25.854  0.00  0.00    +0.141 C 
BRANCH   5   6
ATOM      6  C   UNK A   0       7.424   3.188  26.105  0.00  0.00    +0.022 C 
BRANCH   6   7
ATOM      7  C   UNK A   0       7.979   4.296  25.209  0.00  0.00    +0.096 C 
BRANCH   7  10
ATOM      8  N   ALA A   1       9.321   2.407  24.448  0.00  0.00    -0.303 N 
ATOM      9  H   ALA A   1       8.694   1.846  25.009  0.00  0.00    +0.149 HD
ATOM     10  C   UNK A   0       9.149   3.767  24.400  0.00  0.00    +0.214 C 
ATOM     11  O   UNK A   0       9.932   4.484  23.786  0.00  0.00    -0.276 OA
BRANCH   8  12
ATOM     12  CA  ALA A   1      10.414   1.713  23.757  0.00  0.00    +0.178 C 
ATOM     13  CB  ALA A   1      10.981   0.528  24.534  0.00  0.00    +0.040 C 
BRANCH  12  14
ATOM     14  C   ALA A   1      10.054   1.311  22.317  0.00  0.00    +0.325 C 
ATOM     15  OXT ALA A   1      10.015   0.147  21.938  0.00  0.00    -0.249 OA
BRANCH  14  16
ATOM     16  O   ALA A   1       9.756   2.340  21.492  0.00  0.00    -0.479 OA
ATOM     17  H   ALA A   1       9.047   2.118  20.838  0.00  0.00    +0.295 HD
ENDBRANCH  14  16
ENDBRANCH  12  14
ENDBRANCH   8  12
ENDBRANCH   7  10
ENDBRANCH   6   7
ENDBRANCH   5   6
ENDBRANCH   1   5
BRANCH   1  18
ATOM     18  O   UNK A   0       7.173   0.622  25.343  0.00  0.00    -0.424 OA
BRANCH  18  19
ATOM     19  C   UNK A   0       7.522  -0.689  25.254  0.00  0.00    +0.130 A 
ATOM     20  C   UNK A   0       7.931  -1.465  26.329  0.00  0.00    +0.053 A 
ATOM     21  C   UNK A   0       8.417  -2.758  26.091  0.00  0.00    +0.088 A 
ATOM     22  C   UNK A   0       8.481  -3.256  24.778  0.00  0.00    +0.273 A 
ATOM     23  C   UNK A   0       8.036  -2.481  23.702  0.00  0.00    +0.088 A 
ATOM     24  C   UNK A   0       7.561  -1.194  23.950  0.00  0.00    +0.053 A 
BRANCH  22  25
ATOM     25  N   UNK A   0       9.060  -4.582  24.522  0.00  0.00    +0.080 N 
ATOM     26  O   UNK A   0       8.439  -5.343  23.765  0.00  0.00    +0.041 OA
ATOM     27  O   UNK A   0      10.128  -4.864  25.081  0.00  0.00    -0.576 OA
ENDBRANCH  22  25
ENDBRANCH  18  19
ENDBRANCH   1  18
TORSDOF 11
ENDMDL
MODEL 7
REMARK VINA RESULT:      -6.0      2.334      8.851
REMARK  Name = 
REMARK  12 active torsions:
REMARK  status: ('A' for Active; 'I' for Inactive)
REMARK    1  A    between atoms: CA_2  and  CB_3
REMARK    2  A    between atoms: CA_2  and  N_4
REMARK    3  A    between atoms: CA_2  and  C_23
REMARK    4  A    between atoms: C_5  and  C_7
REMARK    5  A    between atoms: C_7  and  C_8
REMARK    6  A    between atoms: C_8  and  C_9
REMARK    7  A    between atoms: C_9  and  P_10
REMARK    8  A    between atoms: P_10  and  O_11
REMARK    9  A    between atoms: P_10  and  O_13
REMARK   10  A    between atoms: O_13  and  C_14
REMARK   11  A    between atoms: C_17  and  N_20
REMARK   12  A    between atoms: C_23  and  O_24
REMARK                            x       y       z     vdW  Elec       q    Type
REMARK                         _______ _______ _______ _____ _____    ______ ____
ROOT
ATOM      1  P   UNK A   0       8.821   1.242  22.362  0.00  0.00    +0.379 P 
ATOM      2  O   UNK A   0       9.219   0.454  21.110  0.00  0.00    -0.244 OA
ENDROOT
BRANCH   1   3
ATOM      3  O   UNK A   0      10.006   2.409  21.889  0.00  0.00    -0.315 OA
ATOM      4  H   UNK A   0       9.492   3.247  21.835  0.00  0.00    +0.221 HD
ENDBRANCH   1   3
BRANCH   1   5
ATOM      5  C   UNK A   0       7.478   2.458  21.848  0.00  0.00    +0.141 C 
BRANCH   5   6
ATOM      6  C   UNK A   0       7.258   3.609  22.817  0.00  0.00    +0.022 C 
BRANCH   6   7
ATOM      7  C   UNK A   0       7.188   4.987  22.157  0.00  0.00    +0.096 C 
BRANCH   7  10
ATOM      8  N   ALA A   1       9.375   5.336  23.179  0.00  0.00    -0.303 N 
ATOM      9  H   ALA A   1       9.511   4.346  23.022  0.00  0.00    +0.149 HD
ATOM     10  C   UNK A   0       8.192   5.921  22.808  0.00  0.00    +0.214 C 
ATOM     11  O   UNK A   0       7.966   7.103  23.046  0.00  0.00    -0.276 OA
BRANCH   8  12
ATOM     12  CA  ALA A   1      10.455   6.069  23.849  0.00  0.00    +0.178 C 
ATOM     13  CB  ALA A   1      10.145   6.434  25.298  0.00  0.00    +0.040 C 
BRANCH  12  14
ATOM     14  C   ALA A   1      11.818   5.367  23.734  0.00  0.00    +0.325 C 
ATOM     15  OXT ALA A   1      11.987   4.334  23.096  0.00  0.00    -0.249 OA
BRANCH  14  16
ATOM     16  O   ALA A   1      12.838   5.985  24.372  0.00  0.00    -0.479 OA
ATOM     17  H   ALA A   1      13.526   6.335  23.752  0.00  0.00    +0.295 HD
ENDBRANCH  14  16
ENDBRANCH  12  14
ENDBRANCH   8  12
ENDBRANCH   7  10
ENDBRANCH   6   7
ENDBRANCH   5   6
ENDBRANCH   1   5
BRANCH   1  18
ATOM     18  O   UNK A   0       7.635   0.074  22.836  0.00  0.00    -0.424 OA
BRANCH  18  19
ATOM     19  C   UNK A   0       7.877  -1.068  23.532  0.00  0.00    +0.130 A 
ATOM     20  C   UNK A   0       8.405  -1.107  24.814  0.00  0.00    +0.053 A 
ATOM     21  C   UNK A   0       8.759  -2.345  25.369  0.00  0.00    +0.088 A 
ATOM     22  C   UNK A   0       8.574  -3.527  24.631  0.00  0.00    +0.273 A 
ATOM     23  C   UNK A   0       8.011  -3.484  23.352  0.00  0.00    +0.088 A 
ATOM     24  C   UNK A   0       7.669  -2.247  22.807  0.00  0.00    +0.053 A 
BRANCH  22  25
ATOM     25  N   UNK A   0       9.015  -4.815  25.183  0.00  0.00    +0.080 N 
ATOM     26  O   UNK A   0       8.179  -5.490  25.801  0.00  0.00    +0.041 OA
ATOM     27  O   UNK A   0      10.195  -5.146  25.005  0.00  0.00    -0.576 OA
ENDBRANCH  22  25
ENDBRANCH  18  19
ENDBRANCH   1  18
TORSDOF 11
ENDMDL
MODEL 8
REMARK VINA RESULT:      -6.0      2.836      3.692
REMARK  Name = 
REMARK  12 active torsions:
REMARK  status: ('A' for Active; 'I' for Inactive)
REMARK    1  A    between atoms: CA_2  and  CB_3
REMARK    2  A    between atoms: CA_2  and  N_4
REMARK    3  A    between atoms: CA_2  and  C_23
REMARK    4  A    between atoms: C_5  and  C_7
REMARK    5  A    between atoms: C_7  and  C_8
REMARK    6  A    between atoms: C_8  and  C_9
REMARK    7  A    between atoms: C_9  and  P_10
REMARK    8  A    between atoms: P_10  and  O_11
REMARK    9  A    between atoms: P_10  and  O_13
REMARK   10  A    between atoms: O_13  and  C_14
REMARK   11  A    between atoms: C_17  and  N_20
REMARK   12  A    between atoms: C_23  and  O_24
REMARK                            x       y       z     vdW  Elec       q    Type
REMARK                         _______ _______ _______ _____ _____    ______ ____
ROOT
ATOM      1  P   UNK A   0       7.616  -3.130  23.905  0.00  0.00    +0.379 P 
ATOM      2  O   UNK A   0       6.598  -2.289  23.127  0.00  0.00    -0.244 OA
ENDROOT
BRANCH   1   3
ATOM      3  O   UNK A   0       6.266  -3.815  24.743  0.00  0.00    -0.315 OA
ATOM      4  H   UNK A   0       5.751  -3.026  25.028  0.00  0.00    +0.221 HD
ENDBRANCH   1   3
BRANCH   1   5
ATOM      5  C   UNK A   0       7.813  -4.758  22.979  0.00  0.00    +0.141 C 
BRANCH   5   6
ATOM      6  C   UNK A   0       7.037  -4.844  21.673  0.00  0.00    +0.022 C 
BRANCH   6   7
ATOM      7  C   UNK A   0       5.999  -5.965  21.627  0.00  0.00    +0.096 C 
BRANCH   7  10
ATOM      8  N   ALA A   1       4.919  -6.737  23.674  0.00  0.00    -0.303 N 
ATOM      9  H   ALA A   1       5.541  -7.531  23.601  0.00  0.00    +0.149 HD
ATOM     10  C   UNK A   0       4.965  -5.755  22.719  0.00  0.00    +0.214 C 
ATOM     11  O   UNK A   0       4.179  -4.812  22.739  0.00  0.00    -0.276 OA
BRANCH   8  12
ATOM     12  CA  ALA A   1       3.967  -6.725  24.790  0.00  0.00    +0.178 C 
ATOM     13  CB  ALA A   1       2.869  -7.779  24.675  0.00  0.00    +0.040 C 
BRANCH  12  14
ATOM     14  C   ALA A   1       4.653  -6.787  26.165  0.00  0.00    +0.325 C 
ATOM     15  OXT ALA A   1       5.809  -6.426  26.352  0.00  0.00    -0.249 OA
BRANCH  14  16
ATOM     16  O   ALA A   1       3.878  -7.250  27.173  0.00  0.00    -0.479 OA
ATOM     17  H   ALA A   1       2.984  -6.825  27.198  0.00  0.00    +0.295 HD
ENDBRANCH  14  16
ENDBRANCH  12  14
ENDBRANCH   8  12
ENDBRANCH   7  10
ENDBRANCH   6   7
ENDBRANCH   5   6
ENDBRANCH   1   5
BRANCH   1  18
ATOM     18  O   UNK A   0       8.966  -2.446  23.067  0.00  0.00    -0.424 OA
BRANCH  18  19
ATOM     19  C   UNK A   0       9.445  -1.184  23.227  0.00  0.00    +0.130 A 
ATOM     20  C   UNK A   0       9.785  -0.625  24.451  0.00  0.00    +0.053 A 
ATOM     21  C   UNK A   0      10.117   0.735  24.510  0.00  0.00    +0.088 A 
ATOM     22  C   UNK A   0      10.107   1.515  23.341  0.00  0.00    +0.273 A 
ATOM     23  C   UNK A   0       9.795   0.939  22.106  0.00  0.00    +0.088 A 
ATOM     24  C   UNK A   0       9.460  -0.414  22.059  0.00  0.00    +0.053 A 
BRANCH  22  25
ATOM     25  N   UNK A   0      10.382   2.957  23.416  0.00  0.00    +0.080 N 
ATOM     26  O   UNK A   0       9.411   3.723  23.492  0.00  0.00    +0.041 OA
ATOM     27  O   UNK A   0      11.565   3.321  23.390  0.00  0.00    -0.576 OA
ENDBRANCH  22  25
ENDBRANCH  18  19
ENDBRANCH   1  18
TORSDOF 11
ENDMDL
MODEL 9
REMARK VINA RESULT:      -6.0      2.526      9.322
REMARK  Name = 
REMARK  12 active torsions:
REMARK  status: ('A' for Active; 'I' for Inactive)
REMARK    1  A    between atoms: CA_2  and  CB_3
REMARK    2  A    between atoms: CA_2  and  N_4
REMARK    3  A    between atoms: CA_2  and  C_23
REMARK    4  A    between atoms: C_5  and  C_7
REMARK    5  A    between atoms: C_7  and  C_8
REMARK    6  A    between atoms: C_8  and  C_9
REMARK    7  A    between atoms: C_9  and  P_10
REMARK    8  A    between atoms: P_10  and  O_11
REMARK    9  A    between atoms: P_10  and  O_13
REMARK   10  A    between atoms: O_13  and  C_14
REMARK   11  A    between atoms: C_17  and  N_20
REMARK   12  A    between atoms: C_23  and  O_24
REMARK                            x       y       z     vdW  Elec       q    Type
REMARK                         _______ _______ _______ _____ _____    ______ ____
ROOT
ATOM      1  P   UNK A   0       8.857  -2.196  23.467  0.00  0.00    +0.379 P 
ATOM      2  O   UNK A   0      10.046  -3.080  23.860  0.00  0.00    -0.244 OA
ENDROOT
BRANCH   1   3
ATOM      3  O   UNK A   0       9.529  -0.993  24.513  0.00  0.00    -0.315 OA
ATOM      4  H   UNK A   0       9.761  -0.261  23.897  0.00  0.00    +0.221 HD
ENDBRANCH   1   3
BRANCH   1   5
ATOM      5  C   UNK A   0       9.401  -1.160  21.992  0.00  0.00    +0.141 C 
BRANCH   5   6
ATOM      6  C   UNK A   0      10.370  -0.036  22.328  0.00  0.00    +0.022 C 
BRANCH   6   7
ATOM      7  C   UNK A   0       9.851   1.365  22.000  0.00  0.00    +0.096 C 
BRANCH   7  10
ATOM      8  N   ALA A   1      10.825   3.480  22.727  0.00  0.00    -0.303 N 
ATOM      9  H   ALA A   1      11.020   3.628  21.746  0.00  0.00    +0.149 HD
ATOM     10  C   UNK A   0      10.207   2.322  23.123  0.00  0.00    +0.214 C 
ATOM     11  O   UNK A   0      10.016   2.077  24.311  0.00  0.00    -0.276 OA
BRANCH   8  12
ATOM     12  CA  ALA A   1      11.271   4.512  23.670  0.00  0.00    +0.178 C 
ATOM     13  CB  ALA A   1      12.594   5.168  23.284  0.00  0.00    +0.040 C 
BRANCH  12  14
ATOM     14  C   ALA A   1      10.192   5.569  23.957  0.00  0.00    +0.325 C 
ATOM     15  OXT ALA A   1       9.848   5.882  25.091  0.00  0.00    -0.249 OA
BRANCH  14  16
ATOM     16  O   ALA A   1       9.656   6.155  22.863  0.00  0.00    -0.479 OA
ATOM     17  H   ALA A   1      10.115   5.898  22.024  0.00  0.00    +0.295 HD
ENDBRANCH  14  16
ENDBRANCH  12  14
ENDBRANCH   8  12
ENDBRANCH   7  10
ENDBRANCH   6   7
ENDBRANCH   5   6
ENDBRANCH   1   5
BRANCH   1  18
ATOM     18  O   UNK A   0       8.185  -3.400  22.421  0.00  0.00    -0.424 OA
BRANCH  18  19
ATOM     19  C   UNK A   0       7.237  -4.312  22.764  0.00  0.00    +0.130 A 
ATOM     20  C   UNK A   0       6.996  -5.488  22.068  0.00  0.00    +0.053 A 
ATOM     21  C   UNK A   0       5.889  -6.273  22.421  0.00  0.00    +0.088 A 
ATOM     22  C   UNK A   0       5.044  -5.871  23.469  0.00  0.00    +0.273 A 
ATOM     23  C   UNK A   0       5.312  -4.702  24.188  0.00  0.00    +0.088 A 
ATOM     24  C   UNK A   0       6.411  -3.924  23.825  0.00  0.00    +0.053 A 
BRANCH  22  25
ATOM     25  N   UNK A   0       3.844  -6.655  23.789  0.00  0.00    +0.080 N 
ATOM     26  O   UNK A   0       3.991  -7.676  24.475  0.00  0.00    +0.041 OA
ATOM     27  O   UNK A   0       2.758  -6.254  23.348  0.00  0.00    -0.576 OA
ENDBRANCH  22  25
ENDBRANCH  18  19
ENDBRANCH   1  18
TORSDOF 11
ENDMDL
