MODEL 1
REMARK VINA RESULT:      -6.0      0.000      0.000
REMARK  Name = 
REMARK  17 active torsions:
REMARK  status: ('A' for Active; 'I' for Inactive)
REMARK    1  A    between atoms: C_1  and  N_2
REMARK    2  A    between atoms: N_2  and  C_3
REMARK    3  A    between atoms: C_3  and  C_4
REMARK    4  A    between atoms: C_4  and  O_5
REMARK    5  A    between atoms: C_4  and  C_6
REMARK    6  A    between atoms: C_8  and  O_9
REMARK    7  A    between atoms: O_9  and  C_10
REMARK    8  A    between atoms: C_10  and  C_12
REMARK    9  A    between atoms: C_12  and  C_13
REMARK   10  A    between atoms: C_12  and  C_14
REMARK   11  A    between atoms: C_12  and  C_15
REMARK   12  A    between atoms: C_16  and  O_17
REMARK   13  A    between atoms: O_17  and  C_18
REMARK   14  A    between atoms: C_18  and  C_20
REMARK   15  A    between atoms: C_20  and  C_21
REMARK   16  A    between atoms: C_20  and  C_22
REMARK   17  A    between atoms: C_20  and  C_23
REMARK                            x       y       z     vdW  Elec       q    Type
REMARK                         _______ _______ _______ _____ _____    ______ ____
ROOT
ATOM      1  C   UNL     1       9.464  -0.522  24.195  0.00  0.00    -0.014 A 
ATOM      2  C   UNL     1       9.570  -0.376  25.585  0.00  0.00    +0.010 A 
ATOM      3  C   UNL     1       8.727  -1.085  26.450  0.00  0.00    +0.050 A 
ATOM      4  C   UNL     1       7.780  -1.978  25.939  0.00  0.00    +0.174 A 
ATOM      5  C   UNL     1       7.650  -2.123  24.553  0.00  0.00    +0.174 A 
ATOM      6  C   UNL     1       8.495  -1.404  23.695  0.00  0.00    +0.056 A 
ENDROOT
BRANCH   1   7
ATOM      7  C   UNL     1      10.389   0.220  23.252  0.00  0.00    +0.158 C 
BRANCH   7   8
ATOM      8  O   UNL     1      10.741   1.500  23.798  0.00  0.00    -0.386 OA
ATOM      9  H   UNL     1      10.411   2.194  23.203  0.00  0.00    +0.210 HD
ENDBRANCH   7   8
BRANCH   7  10
ATOM     10  C   UNL     1       9.730   0.430  21.861  0.00  0.00    +0.116 C 
BRANCH  10  12
ATOM     11  C   UNL     1       8.059   2.158  21.696  0.00  0.00    +0.101 C 
ATOM     12  N   UNL     1       9.476   1.852  21.583  0.00  0.00    -0.316 NA
ATOM     13  H   UNL     1      10.015   2.404  22.257  0.00  0.00    +0.122 HD
ENDBRANCH  10  12
ENDBRANCH   7  10
ENDBRANCH   1   7
BRANCH   4  14
ATOM     14  O   UNL     1       6.898  -2.695  26.789  0.00  0.00    -0.422 OA
BRANCH  14  15
ATOM     15  C   UNL     1       7.084  -4.062  27.051  0.00  0.00    +0.318 C 
ATOM     16  O   UNL     1       8.168  -4.628  27.113  0.00  0.00    -0.250 OA
BRANCH  15  17
ATOM     17  C   UNL     1       5.734  -4.778  27.223  0.00  0.00    +0.060 C 
ATOM     18  C   UNL     1       4.587  -3.889  26.724  0.00  0.00    +0.022 C 
ATOM     19  C   UNL     1       5.495  -5.074  28.718  0.00  0.00    +0.022 C 
ATOM     20  C   UNL     1       5.762  -6.103  26.456  0.00  0.00    +0.022 C 
ENDBRANCH  15  17
ENDBRANCH  14  15
ENDBRANCH   4  14
BRANCH   5  21
ATOM     21  O   UNL     1       6.789  -3.115  24.042  0.00  0.00    -0.422 OA
BRANCH  21  22
ATOM     22  C   UNL     1       7.329  -4.249  23.423  0.00  0.00    +0.318 C 
ATOM     23  O   UNL     1       8.368  -4.803  23.762  0.00  0.00    -0.250 OA
BRANCH  22  24
ATOM     24  C   UNL     1       6.385  -4.776  22.329  0.00  0.00    +0.060 C 
ATOM     25  C   UNL     1       5.958  -3.589  21.450  0.00  0.00    +0.022 C 
ATOM     26  C   UNL     1       5.145  -5.385  22.995  0.00  0.00    +0.022 C 
ATOM     27  C   UNL     1       7.055  -5.835  21.439  0.00  0.00    +0.022 C 
ENDBRANCH  22  24
ENDBRANCH  21  22
ENDBRANCH   5  21
TORSDOF 10
ENDMDL
MODEL 2
REMARK VINA RESULT:      -6.0      2.634      6.038
REMARK  Name = 
REMARK  17 active torsions:
REMARK  status: ('A' for Active; 'I' for Inactive)
REMARK    1  A    between atoms: C_1  and  N_2
REMARK    2  A    between atoms: N_2  and  C_3
REMARK    3  A    between atoms: C_3  and  C_4
REMARK    4  A    between atoms: C_4  and  O_5
REMARK    5  A    between atoms: C_4  and  C_6
REMARK    6  A    between atoms: C_8  and  O_9
REMARK    7  A    between atoms: O_9  and  C_10
REMARK    8  A    between atoms: C_10  and  C_12
REMARK    9  A    between atoms: C_12  and  C_13
REMARK   10  A    between atoms: C_12  and  C_14
REMARK   11  A    between atoms: C_12  and  C_15
REMARK   12  A    between atoms: C_16  and  O_17
REMARK   13  A    between atoms: O_17  and  C_18
REMARK   14  A    between atoms: C_18  and  C_20
REMARK   15  A    between atoms: C_20  and  C_21
REMARK   16  A    between atoms: C_20  and  C_22
REMARK   17  A    between atoms: C_20  and  C_23
REMARK                            x       y       z     vdW  Elec       q    Type
REMARK                         _______ _______ _______ _____ _____    ______ ____
ROOT
ATOM      1  C   UNL     1       7.213  -3.713  26.377  0.00  0.00    -0.014 A 
ATOM      2  C   UNL     1       7.331  -2.347  26.666  0.00  0.00    +0.010 A 
ATOM      3  C   UNL     1       7.590  -1.415  25.652  0.00  0.00    +0.050 A 
ATOM      4  C   UNL     1       7.708  -1.833  24.322  0.00  0.00    +0.174 A 
ATOM      5  C   UNL     1       7.610  -3.196  24.019  0.00  0.00    +0.174 A 
ATOM      6  C   UNL     1       7.355  -4.121  25.042  0.00  0.00    +0.056 A 
ENDROOT
BRANCH   1   7
ATOM      7  C   UNL     1       6.906  -4.724  27.462  0.00  0.00    +0.158 C 
BRANCH   7   8
ATOM      8  O   UNL     1       7.842  -5.812  27.414  0.00  0.00    -0.386 OA
ATOM      9  H   UNL     1       8.281  -5.882  28.278  0.00  0.00    +0.210 HD
ENDBRANCH   7   8
BRANCH   7  10
ATOM     10  C   UNL     1       5.467  -5.291  27.318  0.00  0.00    +0.116 C 
BRANCH  10  12
ATOM     11  C   UNL     1       4.201  -6.994  26.179  0.00  0.00    +0.101 C 
ATOM     12  N   UNL     1       5.469  -6.671  26.813  0.00  0.00    -0.316 NA
ATOM     13  H   UNL     1       6.236  -6.758  26.140  0.00  0.00    +0.122 HD
ENDBRANCH  10  12
ENDBRANCH   7  10
ENDBRANCH   1   7
BRANCH   4  14
ATOM     14  O   UNL     1       7.992  -0.917  23.277  0.00  0.00    -0.422 OA
BRANCH  14  15
ATOM     15  C   UNL     1       9.311  -0.556  22.957  0.00  0.00    +0.318 C 
ATOM     16  O   UNL     1      10.165  -1.317  22.516  0.00  0.00    -0.250 OA
BRANCH  15  17
ATOM     17  C   UNL     1       9.565   0.929  23.263  0.00  0.00    +0.060 C 
ATOM     18  C   UNL     1      10.574   1.077  24.409  0.00  0.00    +0.022 C 
ATOM     19  C   UNL     1       8.245   1.598  23.698  0.00  0.00    +0.022 C 
ATOM     20  C   UNL     1      10.078   1.627  22.000  0.00  0.00    +0.022 C 
ENDBRANCH  15  17
ENDBRANCH  14  15
ENDBRANCH   4  14
BRANCH   5  21
ATOM     21  O   UNL     1       7.598  -3.603  22.670  0.00  0.00    -0.422 OA
BRANCH  21  22
ATOM     22  C   UNL     1       6.389  -3.969  22.067  0.00  0.00    +0.318 C 
ATOM     23  O   UNL     1       5.547  -3.179  21.654  0.00  0.00    -0.250 OA
BRANCH  22  24
ATOM     24  C   UNL     1       6.306  -5.494  21.888  0.00  0.00    +0.060 C 
ATOM     25  C   UNL     1       6.035  -5.788  20.402  0.00  0.00    +0.022 C 
ATOM     26  C   UNL     1       5.142  -6.030  22.731  0.00  0.00    +0.022 C 
ATOM     27  C   UNL     1       7.604  -6.203  22.304  0.00  0.00    +0.022 C 
ENDBRANCH  22  24
ENDBRANCH  21  22
ENDBRANCH   5  21
TORSDOF 10
ENDMDL
MODEL 3
REMARK VINA RESULT:      -5.9      1.623      2.236
REMARK  Name = 
REMARK  17 active torsions:
REMARK  status: ('A' for Active; 'I' for Inactive)
REMARK    1  A    between atoms: C_1  and  N_2
REMARK    2  A    between atoms: N_2  and  C_3
REMARK    3  A    between atoms: C_3  and  C_4
REMARK    4  A    between atoms: C_4  and  O_5
REMARK    5  A    between atoms: C_4  and  C_6
REMARK    6  A    between atoms: C_8  and  O_9
REMARK    7  A    between atoms: O_9  and  C_10
REMARK    8  A    between atoms: C_10  and  C_12
REMARK    9  A    between atoms: C_12  and  C_13
REMARK   10  A    between atoms: C_12  and  C_14
REMARK   11  A    between atoms: C_12  and  C_15
REMARK   12  A    between atoms: C_16  and  O_17
REMARK   13  A    between atoms: O_17  and  C_18
REMARK   14  A    between atoms: C_18  and  C_20
REMARK   15  A    between atoms: C_20  and  C_21
REMARK   16  A    between atoms: C_20  and  C_22
REMARK   17  A    between atoms: C_20  and  C_23
REMARK                            x       y       z     vdW  Elec       q    Type
REMARK                         _______ _______ _______ _____ _____    ______ ____
ROOT
ATOM      1  C   UNL     1       8.503   0.182  23.113  0.00  0.00    -0.014 A 
ATOM      2  C   UNL     1       8.556   0.078  24.509  0.00  0.00    +0.010 A 
ATOM      3  C   UNL     1       8.261  -1.131  25.153  0.00  0.00    +0.050 A 
ATOM      4  C   UNL     1       7.935  -2.268  24.406  0.00  0.00    +0.174 A 
ATOM      5  C   UNL     1       7.862  -2.176  23.012  0.00  0.00    +0.174 A 
ATOM      6  C   UNL     1       8.153  -0.960  22.377  0.00  0.00    +0.056 A 
ENDROOT
BRANCH   1   7
ATOM      7  C   UNL     1       8.846   1.478  22.405  0.00  0.00    +0.158 C 
BRANCH   7   8
ATOM      8  O   UNL     1       8.894   1.276  20.985  0.00  0.00    -0.386 OA
ATOM      9  H   UNL     1       9.518   0.557  20.794  0.00  0.00    +0.210 HD
ENDBRANCH   7   8
BRANCH   7  10
ATOM     10  C   UNL     1      10.213   2.039  22.882  0.00  0.00    +0.116 C 
BRANCH  10  12
ATOM     11  C   UNL     1       8.809   3.888  23.526  0.00  0.00    +0.101 C 
ATOM     12  N   UNL     1      10.152   3.485  23.141  0.00  0.00    -0.316 NA
ATOM     13  H   UNL     1      10.817   3.697  23.890  0.00  0.00    +0.122 HD
ENDBRANCH  10  12
ENDBRANCH   7  10
ENDBRANCH   1   7
BRANCH   4  14
ATOM     14  O   UNL     1       7.611  -3.500  25.030  0.00  0.00    -0.422 OA
BRANCH  14  15
ATOM     15  C   UNL     1       6.338  -3.733  25.575  0.00  0.00    +0.318 C 
ATOM     16  O   UNL     1       5.315  -3.135  25.261  0.00  0.00    -0.250 OA
BRANCH  15  17
ATOM     17  C   UNL     1       6.392  -4.826  26.655  0.00  0.00    +0.060 C 
ATOM     18  C   UNL     1       7.846  -5.221  26.947  0.00  0.00    +0.022 C 
ATOM     19  C   UNL     1       5.647  -6.081  26.155  0.00  0.00    +0.022 C 
ATOM     20  C   UNL     1       5.705  -4.319  27.926  0.00  0.00    +0.022 C 
ENDBRANCH  15  17
ENDBRANCH  14  15
ENDBRANCH   4  14
BRANCH   5  21
ATOM     21  O   UNL     1       7.662  -3.347  22.254  0.00  0.00    -0.422 OA
BRANCH  21  22
ATOM     22  C   UNL     1       6.360  -3.760  21.946  0.00  0.00    +0.318 C 
ATOM     23  O   UNL     1       5.450  -3.010  21.612  0.00  0.00    -0.250 OA
BRANCH  22  24
ATOM     24  C   UNL     1       6.251  -5.294  21.972  0.00  0.00    +0.060 C 
ATOM     25  C   UNL     1       6.175  -5.794  20.519  0.00  0.00    +0.022 C 
ATOM     26  C   UNL     1       4.967  -5.688  22.711  0.00  0.00    +0.022 C 
ATOM     27  C   UNL     1       7.457  -5.954  22.659  0.00  0.00    +0.022 C 
ENDBRANCH  22  24
ENDBRANCH  21  22
ENDBRANCH   5  21
TORSDOF 10
ENDMDL
MODEL 4
REMARK VINA RESULT:      -5.8      2.837      5.914
REMARK  Name = 
REMARK  17 active torsions:
REMARK  status: ('A' for Active; 'I' for Inactive)
REMARK    1  A    between atoms: C_1  and  N_2
REMARK    2  A    between atoms: N_2  and  C_3
REMARK    3  A    between atoms: C_3  and  C_4
REMARK    4  A    between atoms: C_4  and  O_5
REMARK    5  A    between atoms: C_4  and  C_6
REMARK    6  A    between atoms: C_8  and  O_9
REMARK    7  A    between atoms: O_9  and  C_10
REMARK    8  A    between atoms: C_10  and  C_12
REMARK    9  A    between atoms: C_12  and  C_13
REMARK   10  A    between atoms: C_12  and  C_14
REMARK   11  A    between atoms: C_12  and  C_15
REMARK   12  A    between atoms: C_16  and  O_17
REMARK   13  A    between atoms: O_17  and  C_18
REMARK   14  A    between atoms: C_18  and  C_20
REMARK   15  A    between atoms: C_20  and  C_21
REMARK   16  A    between atoms: C_20  and  C_22
REMARK   17  A    between atoms: C_20  and  C_23
REMARK                            x       y       z     vdW  Elec       q    Type
REMARK                         _______ _______ _______ _____ _____    ______ ____
ROOT
ATOM      1  C   UNL     1       9.076  -3.541  24.450  0.00  0.00    -0.014 A 
ATOM      2  C   UNL     1       9.758  -2.365  24.110  0.00  0.00    +0.010 A 
ATOM      3  C   UNL     1       9.093  -1.301  23.487  0.00  0.00    +0.050 A 
ATOM      4  C   UNL     1       7.723  -1.384  23.219  0.00  0.00    +0.174 A 
ATOM      5  C   UNL     1       7.031  -2.558  23.538  0.00  0.00    +0.174 A 
ATOM      6  C   UNL     1       7.707  -3.619  24.156  0.00  0.00    +0.056 A 
ENDROOT
BRANCH   1   7
ATOM      7  C   UNL     1       9.780  -4.686  25.148  0.00  0.00    +0.158 C 
BRANCH   7   8
ATOM      8  O   UNL     1       9.545  -5.920  24.452  0.00  0.00    -0.386 OA
ATOM      9  H   UNL     1       8.619  -6.180  24.586  0.00  0.00    +0.210 HD
ENDBRANCH   7   8
BRANCH   7  10
ATOM     10  C   UNL     1       9.298  -4.837  26.616  0.00  0.00    +0.116 C 
BRANCH  10  12
ATOM     11  C   UNL     1       7.082  -5.341  27.415  0.00  0.00    +0.101 C 
ATOM     12  N   UNL     1       8.261  -5.871  26.750  0.00  0.00    -0.316 NA
ATOM     13  H   UNL     1       8.023  -6.199  25.810  0.00  0.00    +0.122 HD
ENDBRANCH  10  12
ENDBRANCH   7  10
ENDBRANCH   1   7
BRANCH   4  14
ATOM     14  O   UNL     1       7.026  -0.332  22.570  0.00  0.00    -0.422 OA
BRANCH  14  15
ATOM     15  C   UNL     1       6.743   0.875  23.230  0.00  0.00    +0.318 C 
ATOM     16  O   UNL     1       5.948   1.006  24.153  0.00  0.00    -0.250 OA
BRANCH  15  17
ATOM     17  C   UNL     1       7.544   2.037  22.620  0.00  0.00    +0.060 C 
ATOM     18  C   UNL     1       8.281   1.577  21.355  0.00  0.00    +0.022 C 
ATOM     19  C   UNL     1       8.597   2.527  23.635  0.00  0.00    +0.022 C 
ATOM     20  C   UNL     1       6.594   3.195  22.298  0.00  0.00    +0.022 C 
ENDBRANCH  15  17
ENDBRANCH  14  15
ENDBRANCH   4  14
BRANCH   5  21
ATOM     21  O   UNL     1       5.630  -2.594  23.388  0.00  0.00    -0.422 OA
BRANCH  21  22
ATOM     22  C   UNL     1       5.016  -3.744  22.878  0.00  0.00    +0.318 C 
ATOM     23  O   UNL     1       5.196  -4.190  21.751  0.00  0.00    -0.250 OA
BRANCH  22  24
ATOM     24  C   UNL     1       4.172  -4.439  23.959  0.00  0.00    +0.060 C 
ATOM     25  C   UNL     1       3.967  -3.449  25.119  0.00  0.00    +0.022 C 
ATOM     26  C   UNL     1       4.934  -5.667  24.471  0.00  0.00    +0.022 C 
ATOM     27  C   UNL     1       2.795  -4.877  23.434  0.00  0.00    +0.022 C 
ENDBRANCH  22  24
ENDBRANCH  21  22
ENDBRANCH   5  21
TORSDOF 10
ENDMDL
MODEL 5
REMARK VINA RESULT:      -5.8      1.859      4.170
REMARK  Name = 
REMARK  17 active torsions:
REMARK  status: ('A' for Active; 'I' for Inactive)
REMARK    1  A    between atoms: C_1  and  N_2
REMARK    2  A    between atoms: N_2  and  C_3
REMARK    3  A    between atoms: C_3  and  C_4
REMARK    4  A    between atoms: C_4  and  O_5
REMARK    5  A    between atoms: C_4  and  C_6
REMARK    6  A    between atoms: C_8  and  O_9
REMARK    7  A    between atoms: O_9  and  C_10
REMARK    8  A    between atoms: C_10  and  C_12
REMARK    9  A    between atoms: C_12  and  C_13
REMARK   10  A    between atoms: C_12  and  C_14
REMARK   11  A    between atoms: C_12  and  C_15
REMARK   12  A    between atoms: C_16  and  O_17
REMARK   13  A    between atoms: O_17  and  C_18
REMARK   14  A    between atoms: C_18  and  C_20
REMARK   15  A    between atoms: C_20  and  C_21
REMARK   16  A    between atoms: C_20  and  C_22
REMARK   17  A    between atoms: C_20  and  C_23
REMARK                            x       y       z     vdW  Elec       q    Type
REMARK                         _______ _______ _______ _____ _____    ______ ____
ROOT
ATOM      1  C   UNL     1       8.757   0.664  22.645  0.00  0.00    -0.014 A 
ATOM      2  C   UNL     1       9.236  -0.329  21.781  0.00  0.00    +0.010 A 
ATOM      3  C   UNL     1       8.773  -1.648  21.870  0.00  0.00    +0.050 A 
ATOM      4  C   UNL     1       7.796  -1.991  22.811  0.00  0.00    +0.174 A 
ATOM      5  C   UNL     1       7.319  -1.015  23.693  0.00  0.00    +0.174 A 
ATOM      6  C   UNL     1       7.794   0.301  23.598  0.00  0.00    +0.056 A 
ENDROOT
BRANCH   1   7
ATOM      7  C   UNL     1       9.232   2.099  22.539  0.00  0.00    +0.158 C 
BRANCH   7   8
ATOM      8  O   UNL     1      10.229   2.223  21.513  0.00  0.00    -0.386 OA
ATOM      9  H   UNL     1       9.882   1.832  20.694  0.00  0.00    +0.210 HD
ENDBRANCH   7   8
BRANCH   7  10
ATOM     10  C   UNL     1       9.827   2.600  23.882  0.00  0.00    +0.116 C 
BRANCH  10  12
ATOM     11  C   UNL     1       8.154   4.284  23.472  0.00  0.00    +0.101 C 
ATOM     12  N   UNL     1       9.021   3.680  24.471  0.00  0.00    -0.316 NA
ATOM     13  H   UNL     1       8.464   3.276  25.230  0.00  0.00    +0.122 HD
ENDBRANCH  10  12
ENDBRANCH   7  10
ENDBRANCH   1   7
BRANCH   4  14
ATOM     14  O   UNL     1       7.323  -3.322  22.940  0.00  0.00    -0.422 OA
BRANCH  14  15
ATOM     15  C   UNL     1       6.293  -3.816  22.122  0.00  0.00    +0.318 C 
ATOM     16  O   UNL     1       5.486  -3.127  21.510  0.00  0.00    -0.250 OA
BRANCH  15  17
ATOM     17  C   UNL     1       6.285  -5.353  22.115  0.00  0.00    +0.060 C 
ATOM     18  C   UNL     1       7.589  -5.900  22.711  0.00  0.00    +0.022 C 
ATOM     19  C   UNL     1       6.173  -5.861  20.663  0.00  0.00    +0.022 C 
ATOM     20  C   UNL     1       5.076  -5.858  22.908  0.00  0.00    +0.022 C 
ENDBRANCH  15  17
ENDBRANCH  14  15
ENDBRANCH   4  14
BRANCH   5  21
ATOM     21  O   UNL     1       6.245  -1.327  24.551  0.00  0.00    -0.422 OA
BRANCH  21  22
ATOM     22  C   UNL     1       6.504  -1.862  25.819  0.00  0.00    +0.318 C 
ATOM     23  O   UNL     1       7.341  -1.429  26.602  0.00  0.00    -0.250 OA
BRANCH  22  24
ATOM     24  C   UNL     1       5.518  -2.996  26.145  0.00  0.00    +0.060 C 
ATOM     25  C   UNL     1       4.385  -2.962  25.106  0.00  0.00    +0.022 C 
ATOM     26  C   UNL     1       4.932  -2.757  27.542  0.00  0.00    +0.022 C 
ATOM     27  C   UNL     1       6.185  -4.380  26.104  0.00  0.00    +0.022 C 
ENDBRANCH  22  24
ENDBRANCH  21  22
ENDBRANCH   5  21
TORSDOF 10
ENDMDL
MODEL 6
REMARK VINA RESULT:      -5.6      2.623      4.809
REMARK  Name = 
REMARK  17 active torsions:
REMARK  status: ('A' for Active; 'I' for Inactive)
REMARK    1  A    between atoms: C_1  and  N_2
REMARK    2  A    between atoms: N_2  and  C_3
REMARK    3  A    between atoms: C_3  and  C_4
REMARK    4  A    between atoms: C_4  and  O_5
REMARK    5  A    between atoms: C_4  and  C_6
REMARK    6  A    between atoms: C_8  and  O_9
REMARK    7  A    between atoms: O_9  and  C_10
REMARK    8  A    between atoms: C_10  and  C_12
REMARK    9  A    between atoms: C_12  and  C_13
REMARK   10  A    between atoms: C_12  and  C_14
REMARK   11  A    between atoms: C_12  and  C_15
REMARK   12  A    between atoms: C_16  and  O_17
REMARK   13  A    between atoms: O_17  and  C_18
REMARK   14  A    between atoms: C_18  and  C_20
REMARK   15  A    between atoms: C_20  and  C_21
REMARK   16  A    between atoms: C_20  and  C_22
REMARK   17  A    between atoms: C_20  and  C_23
REMARK                            x       y       z     vdW  Elec       q    Type
REMARK                         _______ _______ _______ _____ _____    ______ ____
ROOT
ATOM      1  C   UNL     1       9.473   2.175  23.273  0.00  0.00    -0.014 A 
ATOM      2  C   UNL     1       9.898   1.567  22.084  0.00  0.00    +0.010 A 
ATOM      3  C   UNL     1       9.432   0.297  21.717  0.00  0.00    +0.050 A 
ATOM      4  C   UNL     1       8.509  -0.376  22.523  0.00  0.00    +0.174 A 
ATOM      5  C   UNL     1       8.087   0.210  23.722  0.00  0.00    +0.174 A 
ATOM      6  C   UNL     1       8.563   1.479  24.083  0.00  0.00    +0.056 A 
ENDROOT
BRANCH   1   7
ATOM      7  C   UNL     1       9.950   3.558  23.665  0.00  0.00    +0.158 C 
BRANCH   7   8
ATOM      8  O   UNL     1       9.148   4.565  23.028  0.00  0.00    -0.386 OA
ATOM      9  H   UNL     1       9.332   4.551  22.074  0.00  0.00    +0.210 HD
ENDBRANCH   7   8
BRANCH   7  10
ATOM     10  C   UNL     1      11.437   3.778  23.275  0.00  0.00    +0.116 C 
BRANCH  10  12
ATOM     11  C   UNL     1      13.125   5.372  22.635  0.00  0.00    +0.101 C 
ATOM     12  N   UNL     1      11.733   5.194  23.016  0.00  0.00    -0.316 NA
ATOM     13  H   UNL     1      11.114   5.512  22.264  0.00  0.00    +0.122 HD
ENDBRANCH  10  12
ENDBRANCH   7  10
ENDBRANCH   1   7
BRANCH   4  14
ATOM     14  O   UNL     1       8.035  -1.671  22.190  0.00  0.00    -0.422 OA
BRANCH  14  15
ATOM     15  C   UNL     1       8.379  -2.797  22.956  0.00  0.00    +0.318 C 
ATOM     16  O   UNL     1       9.482  -3.008  23.445  0.00  0.00    -0.250 OA
BRANCH  15  17
ATOM     17  C   UNL     1       7.189  -3.762  23.082  0.00  0.00    +0.060 C 
ATOM     18  C   UNL     1       7.367  -4.960  22.141  0.00  0.00    +0.022 C 
ATOM     19  C   UNL     1       5.889  -3.031  22.685  0.00  0.00    +0.022 C 
ATOM     20  C   UNL     1       7.066  -4.230  24.535  0.00  0.00    +0.022 C 
ENDBRANCH  15  17
ENDBRANCH  14  15
ENDBRANCH   4  14
BRANCH   5  21
ATOM     21  O   UNL     1       7.062  -0.406  24.467  0.00  0.00    -0.422 OA
BRANCH  21  22
ATOM     22  C   UNL     1       7.292  -0.761  25.802  0.00  0.00    +0.318 C 
ATOM     23  O   UNL     1       8.294  -1.339  26.208  0.00  0.00    -0.250 OA
BRANCH  22  24
ATOM     24  C   UNL     1       6.172  -0.229  26.711  0.00  0.00    +0.060 C 
ATOM     25  C   UNL     1       6.821   0.570  27.854  0.00  0.00    +0.022 C 
ATOM     26  C   UNL     1       5.402  -1.418  27.298  0.00  0.00    +0.022 C 
ATOM     27  C   UNL     1       5.195   0.689  25.959  0.00  0.00    +0.022 C 
ENDBRANCH  22  24
ENDBRANCH  21  22
ENDBRANCH   5  21
TORSDOF 10
ENDMDL
MODEL 7
REMARK VINA RESULT:      -5.5      3.231      7.095
REMARK  Name = 
REMARK  17 active torsions:
REMARK  status: ('A' for Active; 'I' for Inactive)
REMARK    1  A    between atoms: C_1  and  N_2
REMARK    2  A    between atoms: N_2  and  C_3
REMARK    3  A    between atoms: C_3  and  C_4
REMARK    4  A    between atoms: C_4  and  O_5
REMARK    5  A    between atoms: C_4  and  C_6
REMARK    6  A    between atoms: C_8  and  O_9
REMARK    7  A    between atoms: O_9  and  C_10
REMARK    8  A    between atoms: C_10  and  C_12
REMARK    9  A    between atoms: C_12  and  C_13
REMARK   10  A    between atoms: C_12  and  C_14
REMARK   11  A    between atoms: C_12  and  C_15
REMARK   12  A    between atoms: C_16  and  O_17
REMARK   13  A    between atoms: O_17  and  C_18
REMARK   14  A    between atoms: C_18  and  C_20
REMARK   15  A    between atoms: C_20  and  C_21
REMARK   16  A    between atoms: C_20  and  C_22
REMARK   17  A    between atoms: C_20  and  C_23
REMARK                            x       y       z     vdW  Elec       q    Type
REMARK                         _______ _______ _______ _____ _____    ______ ____
ROOT
ATOM      1  C   UNL     1       8.997  -3.628  25.618  0.00  0.00    -0.014 A 
ATOM      2  C   UNL     1       9.740  -3.457  24.442  0.00  0.00    +0.010 A 
ATOM      3  C   UNL     1       9.778  -2.219  23.787  0.00  0.00    +0.050 A 
ATOM      4  C   UNL     1       9.095  -1.120  24.315  0.00  0.00    +0.174 A 
ATOM      5  C   UNL     1       8.335  -1.277  25.480  0.00  0.00    +0.174 A 
ATOM      6  C   UNL     1       8.299  -2.522  26.125  0.00  0.00    +0.056 A 
ENDROOT
BRANCH   1   7
ATOM      7  C   UNL     1       8.971  -4.955  26.348  0.00  0.00    +0.158 C 
BRANCH   7   8
ATOM      8  O   UNL     1       9.717  -5.943  25.621  0.00  0.00    -0.386 OA
ATOM      9  H   UNL     1      10.025  -6.621  26.245  0.00  0.00    +0.210 HD
ENDBRANCH   7   8
BRANCH   7  10
ATOM     10  C   UNL     1       7.517  -5.465  26.544  0.00  0.00    +0.116 C 
BRANCH  10  12
ATOM     11  C   UNL     1       6.037  -5.630  28.438  0.00  0.00    +0.101 C 
ATOM     12  N   UNL     1       7.315  -6.044  27.881  0.00  0.00    -0.316 NA
ATOM     13  H   UNL     1       7.350  -7.064  27.789  0.00  0.00    +0.122 HD
ENDBRANCH  10  12
ENDBRANCH   7  10
ENDBRANCH   1   7
BRANCH   4  14
ATOM     14  O   UNL     1       9.097   0.141  23.664  0.00  0.00    -0.422 OA
BRANCH  14  15
ATOM     15  C   UNL     1      10.065   1.115  23.957  0.00  0.00    +0.318 C 
ATOM     16  O   UNL     1      11.166   0.892  24.446  0.00  0.00    -0.250 OA
BRANCH  15  17
ATOM     17  C   UNL     1       9.552   2.523  23.613  0.00  0.00    +0.060 C 
ATOM     18  C   UNL     1       8.726   2.492  22.320  0.00  0.00    +0.022 C 
ATOM     19  C   UNL     1      10.751   3.468  23.393  0.00  0.00    +0.022 C 
ATOM     20  C   UNL     1       8.712   3.055  24.777  0.00  0.00    +0.022 C 
ENDBRANCH  15  17
ENDBRANCH  14  15
ENDBRANCH   4  14
BRANCH   5  21
ATOM     21  O   UNL     1       7.754  -0.143  26.083  0.00  0.00    -0.422 OA
BRANCH  21  22
ATOM     22  C   UNL     1       6.403   0.145  25.859  0.00  0.00    +0.318 C 
ATOM     23  O   UNL     1       5.756  -0.242  24.892  0.00  0.00    -0.250 OA
BRANCH  22  24
ATOM     24  C   UNL     1       5.804   0.920  27.045  0.00  0.00    +0.060 C 
ATOM     25  C   UNL     1       4.838   1.978  26.488  0.00  0.00    +0.022 C 
ATOM     26  C   UNL     1       6.939   1.619  27.804  0.00  0.00    +0.022 C 
ATOM     27  C   UNL     1       5.034   0.006  28.011  0.00  0.00    +0.022 C 
ENDBRANCH  22  24
ENDBRANCH  21  22
ENDBRANCH   5  21
TORSDOF 10
ENDMDL
MODEL 8
REMARK VINA RESULT:      -5.3      2.846      5.032
REMARK  Name = 
REMARK  17 active torsions:
REMARK  status: ('A' for Active; 'I' for Inactive)
REMARK    1  A    between atoms: C_1  and  N_2
REMARK    2  A    between atoms: N_2  and  C_3
REMARK    3  A    between atoms: C_3  and  C_4
REMARK    4  A    between atoms: C_4  and  O_5
REMARK    5  A    between atoms: C_4  and  C_6
REMARK    6  A    between atoms: C_8  and  O_9
REMARK    7  A    between atoms: O_9  and  C_10
REMARK    8  A    between atoms: C_10  and  C_12
REMARK    9  A    between atoms: C_12  and  C_13
REMARK   10  A    between atoms: C_12  and  C_14
REMARK   11  A    between atoms: C_12  and  C_15
REMARK   12  A    between atoms: C_16  and  O_17
REMARK   13  A    between atoms: O_17  and  C_18
REMARK   14  A    between atoms: C_18  and  C_20
REMARK   15  A    between atoms: C_20  and  C_21
REMARK   16  A    between atoms: C_20  and  C_22
REMARK   17  A    between atoms: C_20  and  C_23
REMARK                            x       y       z     vdW  Elec       q    Type
REMARK                         _______ _______ _______ _____ _____    ______ ____
ROOT
ATOM      1  C   UNL     1       9.688   1.212  23.638  0.00  0.00    -0.014 A 
ATOM      2  C   UNL     1      10.063  -0.038  23.127  0.00  0.00    +0.010 A 
ATOM      3  C   UNL     1       9.754  -1.220  23.814  0.00  0.00    +0.050 A 
ATOM      4  C   UNL     1       9.037  -1.172  25.014  0.00  0.00    +0.174 A 
ATOM      5  C   UNL     1       8.669   0.069  25.546  0.00  0.00    +0.174 A 
ATOM      6  C   UNL     1       8.988   1.246  24.853  0.00  0.00    +0.056 A 
ENDROOT
BRANCH   1   7
ATOM      7  C   UNL     1       9.993   2.493  22.889  0.00  0.00    +0.158 C 
BRANCH   7   8
ATOM      8  O   UNL     1      10.224   2.220  21.499  0.00  0.00    -0.386 OA
ATOM      9  H   UNL     1      10.749   1.405  21.425  0.00  0.00    +0.210 HD
ENDBRANCH   7   8
BRANCH   7  10
ATOM     10  C   UNL     1      11.240   3.209  23.476  0.00  0.00    +0.116 C 
BRANCH  10  12
ATOM     11  C   UNL     1      12.517   5.242  23.277  0.00  0.00    +0.101 C 
ATOM     12  N   UNL     1      11.183   4.664  23.274  0.00  0.00    -0.316 NA
ATOM     13  H   UNL     1      10.721   4.838  22.376  0.00  0.00    +0.122 HD
ENDBRANCH  10  12
ENDBRANCH   7  10
ENDBRANCH   1   7
BRANCH   4  14
ATOM     14  O   UNL     1       8.728  -2.349  25.743  0.00  0.00    -0.422 OA
BRANCH  14  15
ATOM     15  C   UNL     1       7.619  -3.145  25.414  0.00  0.00    +0.318 C 
ATOM     16  O   UNL     1       6.473  -2.736  25.272  0.00  0.00    -0.250 OA
BRANCH  15  17
ATOM     17  C   UNL     1       8.023  -4.623  25.281  0.00  0.00    +0.060 C 
ATOM     18  C   UNL     1       9.481  -4.823  25.712  0.00  0.00    +0.022 C 
ATOM     19  C   UNL     1       7.894  -5.062  23.808  0.00  0.00    +0.022 C 
ATOM     20  C   UNL     1       7.086  -5.483  26.135  0.00  0.00    +0.022 C 
ENDBRANCH  15  17
ENDBRANCH  14  15
ENDBRANCH   4  14
BRANCH   5  21
ATOM     21  O   UNL     1       7.837   0.112  26.682  0.00  0.00    -0.422 OA
BRANCH  21  22
ATOM     22  C   UNL     1       6.592   0.749  26.606  0.00  0.00    +0.318 C 
ATOM     23  O   UNL     1       5.715   0.473  25.796  0.00  0.00    -0.250 OA
BRANCH  22  24
ATOM     24  C   UNL     1       6.427   1.766  27.748  0.00  0.00    +0.060 C 
ATOM     25  C   UNL     1       7.171   1.228  28.982  0.00  0.00    +0.022 C 
ATOM     26  C   UNL     1       4.935   1.905  28.076  0.00  0.00    +0.022 C 
ATOM     27  C   UNL     1       6.999   3.146  27.388  0.00  0.00    +0.022 C 
ENDBRANCH  22  24
ENDBRANCH  21  22
ENDBRANCH   5  21
TORSDOF 10
ENDMDL
MODEL 9
REMARK VINA RESULT:      -5.3      2.387      4.586
REMARK  Name = 
REMARK  17 active torsions:
REMARK  status: ('A' for Active; 'I' for Inactive)
REMARK    1  A    between atoms: C_1  and  N_2
REMARK    2  A    between atoms: N_2  and  C_3
REMARK    3  A    between atoms: C_3  and  C_4
REMARK    4  A    between atoms: C_4  and  O_5
REMARK    5  A    between atoms: C_4  and  C_6
REMARK    6  A    between atoms: C_8  and  O_9
REMARK    7  A    between atoms: O_9  and  C_10
REMARK    8  A    between atoms: C_10  and  C_12
REMARK    9  A    between atoms: C_12  and  C_13
REMARK   10  A    between atoms: C_12  and  C_14
REMARK   11  A    between atoms: C_12  and  C_15
REMARK   12  A    between atoms: C_16  and  O_17
REMARK   13  A    between atoms: O_17  and  C_18
REMARK   14  A    between atoms: C_18  and  C_20
REMARK   15  A    between atoms: C_20  and  C_21
REMARK   16  A    between atoms: C_20  and  C_22
REMARK   17  A    between atoms: C_20  and  C_23
REMARK                            x       y       z     vdW  Elec       q    Type
REMARK                         _______ _______ _______ _____ _____    ______ ____
ROOT
ATOM      1  C   UNL     1       9.267   1.356  23.319  0.00  0.00    -0.014 A 
ATOM      2  C   UNL     1       9.798   0.573  22.285  0.00  0.00    +0.010 A 
ATOM      3  C   UNL     1       9.627  -0.817  22.273  0.00  0.00    +0.050 A 
ATOM      4  C   UNL     1       8.894  -1.448  23.284  0.00  0.00    +0.174 A 
ATOM      5  C   UNL     1       8.371  -0.683  24.332  0.00  0.00    +0.174 A 
ATOM      6  C   UNL     1       8.552   0.708  24.338  0.00  0.00    +0.056 A 
ENDROOT
BRANCH   1   7
ATOM      7  C   UNL     1       9.423   2.863  23.327  0.00  0.00    +0.158 C 
BRANCH   7   8
ATOM      8  O   UNL     1       8.764   3.442  22.191  0.00  0.00    -0.386 OA
ATOM      9  H   UNL     1       9.364   3.401  21.429  0.00  0.00    +0.210 HD
ENDBRANCH   7   8
BRANCH   7  10
ATOM     10  C   UNL     1      10.919   3.278  23.307  0.00  0.00    +0.116 C 
BRANCH  10  12
ATOM     11  C   UNL     1      12.482   5.109  23.233  0.00  0.00    +0.101 C 
ATOM     12  N   UNL     1      11.085   4.737  23.385  0.00  0.00    -0.316 NA
ATOM     13  H   UNL     1      10.521   5.156  22.641  0.00  0.00    +0.122 HD
ENDBRANCH  10  12
ENDBRANCH   7  10
ENDBRANCH   1   7
BRANCH   4  14
ATOM     14  O   UNL     1       8.722  -2.856  23.311  0.00  0.00    -0.422 OA
BRANCH  14  15
ATOM     15  C   UNL     1       7.596  -3.467  22.735  0.00  0.00    +0.318 C 
ATOM     16  O   UNL     1       6.878  -2.962  21.880  0.00  0.00    -0.250 OA
BRANCH  15  17
ATOM     17  C   UNL     1       7.353  -4.858  23.344  0.00  0.00    +0.060 C 
ATOM     18  C   UNL     1       8.474  -5.217  24.328  0.00  0.00    +0.022 C 
ATOM     19  C   UNL     1       7.344  -5.916  22.222  0.00  0.00    +0.022 C 
ATOM     20  C   UNL     1       5.993  -4.873  24.047  0.00  0.00    +0.022 C 
ENDBRANCH  15  17
ENDBRANCH  14  15
ENDBRANCH   4  14
BRANCH   5  21
ATOM     21  O   UNL     1       7.525  -1.296  25.278  0.00  0.00    -0.422 OA
BRANCH  21  22
ATOM     22  C   UNL     1       6.151  -1.030  25.255  0.00  0.00    +0.318 C 
ATOM     23  O   UNL     1       5.378  -1.420  24.388  0.00  0.00    -0.250 OA
BRANCH  22  24
ATOM     24  C   UNL     1       5.718  -0.276  26.524  0.00  0.00    +0.060 C 
ATOM     25  C   UNL     1       6.901  -0.273  27.507  0.00  0.00    +0.022 C 
ATOM     26  C   UNL     1       4.534  -1.014  27.160  0.00  0.00    +0.022 C 
ATOM     27  C   UNL     1       5.314   1.177  26.232  0.00  0.00    +0.022 C 
ENDBRANCH  22  24
ENDBRANCH  21  22
ENDBRANCH   5  21
TORSDOF 10
ENDMDL
