MODEL 1
REMARK VINA RESULT:      -8.1      0.000      0.000
REMARK  Name = 
REMARK  3 active torsions:
REMARK  status: ('A' for Active; 'I' for Inactive)
REMARK    1  A    between atoms: C_2  and  C_3
REMARK    2  A    between atoms: C_16  and  C_19
REMARK    3  A    between atoms: C_22  and  C_23
REMARK                            x       y       z     vdW  Elec       q    Type
REMARK                         _______ _______ _______ _____ _____    ______ ____
ROOT
ATOM      1  C   UNL     1       7.868   3.509  22.235  0.00  0.00    +0.087 C 
ATOM      2  C   UNL     1       7.169   4.872  22.352  0.00  0.00    +0.029 C 
ATOM      3  N   UNL     1       8.983   3.527  23.172  0.00  0.00    -0.307 N 
ATOM      4  H   UNL     1       9.516   4.389  23.176  0.00  0.00    +0.149 HD
ATOM      5  C   UNL     1       9.877   2.501  23.321  0.00  0.00    +0.253 C 
ATOM      6  O   UNL     1      11.069   2.811  23.342  0.00  0.00    -0.270 OA
ATOM      7  C   UNL     1       9.357   1.199  23.635  0.00  0.00    +0.096 A 
ATOM      8  S   UNL     1      10.188   0.358  24.860  0.00  0.00    -0.082 S 
ATOM      9  C   UNL     1       8.880  -0.721  25.083  0.00  0.00    +0.023 A 
ATOM     10  C   UNL     1       8.693  -1.532  26.210  0.00  0.00    +0.018 A 
ATOM     11  C   UNL     1       7.592  -2.375  26.238  0.00  0.00    +0.029 A 
ATOM     12  C   UNL     1       6.853  -2.605  25.106  0.00  0.00    +0.072 A 
ATOM     13  N   UNL     1       5.972  -3.615  25.155  0.00  0.00    -0.247 NA
ATOM     14  C   UNL     1       5.547  -4.157  23.994  0.00  0.00    +0.073 A 
ATOM     15  C   UNL     1       6.033  -3.679  22.782  0.00  0.00    +0.029 A 
ATOM     16  C   UNL     1       6.711  -2.447  22.735  0.00  0.00    +0.013 A 
ATOM     17  C   UNL     1       7.148  -1.869  23.935  0.00  0.00    +0.010 A 
ATOM     18  C   UNL     1       8.021  -0.718  23.983  0.00  0.00    +0.020 A 
ATOM     19  C   UNL     1       8.247   0.501  23.199  0.00  0.00    +0.055 A 
ATOM     20  N   UNL     1       7.418   0.982  22.213  0.00  0.00    -0.341 N 
ATOM     21  H   UNL     1       7.808   0.931  21.270  0.00  0.00    +0.146 HD
ATOM     22  C   UNL     1       6.851   2.348  22.408  0.00  0.00    +0.123 C 
ENDROOT
BRANCH  14  23
ATOM     23  C   UNL     1       4.481  -5.182  24.102  0.00  0.00    +0.018 A 
ATOM     24  C   UNL     1       3.177  -4.955  23.631  0.00  0.00    +0.013 A 
ATOM     25  C   UNL     1       2.247  -5.998  23.545  0.00  0.00    +0.024 A 
ATOM     26  C   UNL     1       2.628  -7.270  23.947  0.00  0.00    +0.038 A 
ATOM     27  C   UNL     1       1.728  -8.449  23.728  0.00  0.00    +0.065 C 
ATOM     28  N   UNL     1       3.841  -7.517  24.485  0.00  0.00    -0.260 NA
ATOM     29  C   UNL     1       4.718  -6.481  24.554  0.00  0.00    +0.121 A 
ENDBRANCH  14  23
TORSDOF 1
ENDMDL
MODEL 2
REMARK VINA RESULT:      -7.8      3.192      8.806
REMARK  Name = 
REMARK  3 active torsions:
REMARK  status: ('A' for Active; 'I' for Inactive)
REMARK    1  A    between atoms: C_2  and  C_3
REMARK    2  A    between atoms: C_16  and  C_19
REMARK    3  A    between atoms: C_22  and  C_23
REMARK                            x       y       z     vdW  Elec       q    Type
REMARK                         _______ _______ _______ _____ _____    ______ ____
ROOT
ATOM      1  C   UNL     1       3.172  -5.009  24.913  0.00  0.00    +0.087 C 
ATOM      2  C   UNL     1       2.113  -5.473  23.901  0.00  0.00    +0.029 C 
ATOM      3  N   UNL     1       4.109  -6.112  25.076  0.00  0.00    -0.307 N 
ATOM      4  H   UNL     1       3.675  -7.024  25.155  0.00  0.00    +0.149 HD
ATOM      5  C   UNL     1       5.171  -6.096  25.940  0.00  0.00    +0.253 C 
ATOM      6  O   UNL     1       5.318  -7.094  26.647  0.00  0.00    -0.270 OA
ATOM      7  C   UNL     1       6.122  -5.026  25.813  0.00  0.00    +0.096 A 
ATOM      8  S   UNL     1       7.758  -5.493  25.881  0.00  0.00    -0.082 S 
ATOM      9  C   UNL     1       8.266  -4.013  25.193  0.00  0.00    +0.023 A 
ATOM     10  C   UNL     1       9.521  -3.788  24.610  0.00  0.00    +0.018 A 
ATOM     11  C   UNL     1       9.798  -2.523  24.112  0.00  0.00    +0.029 A 
ATOM     12  C   UNL     1       8.985  -1.459  24.404  0.00  0.00    +0.072 A 
ATOM     13  N   UNL     1       9.454  -0.240  24.099  0.00  0.00    -0.247 NA
ATOM     14  C   UNL     1       8.927   0.830  24.731  0.00  0.00    +0.073 A 
ATOM     15  C   UNL     1       7.930   0.656  25.686  0.00  0.00    +0.029 A 
ATOM     16  C   UNL     1       7.251  -0.574  25.775  0.00  0.00    +0.013 A 
ATOM     17  C   UNL     1       7.783  -1.689  25.114  0.00  0.00    +0.010 A 
ATOM     18  C   UNL     1       7.280  -3.031  25.304  0.00  0.00    +0.020 A 
ATOM     19  C   UNL     1       5.987  -3.675  25.558  0.00  0.00    +0.055 A 
ATOM     20  N   UNL     1       4.758  -3.066  25.458  0.00  0.00    -0.341 N 
ATOM     21  H   UNL     1       4.276  -2.935  26.349  0.00  0.00    +0.146 HD
ATOM     22  C   UNL     1       3.787  -3.648  24.485  0.00  0.00    +0.123 C 
ENDROOT
BRANCH  14  23
ATOM     23  C   UNL     1       9.392   2.160  24.267  0.00  0.00    +0.018 A 
ATOM     24  C   UNL     1       8.688   3.340  24.559  0.00  0.00    +0.013 A 
ATOM     25  C   UNL     1       9.247   4.598  24.301  0.00  0.00    +0.024 A 
ATOM     26  C   UNL     1      10.512   4.665  23.735  0.00  0.00    +0.038 A 
ATOM     27  C   UNL     1      11.219   5.979  23.585  0.00  0.00    +0.065 C 
ATOM     28  N   UNL     1      11.188   3.559  23.360  0.00  0.00    -0.260 NA
ATOM     29  C   UNL     1      10.616   2.355  23.626  0.00  0.00    +0.121 A 
ENDBRANCH  14  23
TORSDOF 1
ENDMDL
MODEL 3
REMARK VINA RESULT:      -7.8      1.686      2.052
REMARK  Name = 
REMARK  3 active torsions:
REMARK  status: ('A' for Active; 'I' for Inactive)
REMARK    1  A    between atoms: C_2  and  C_3
REMARK    2  A    between atoms: C_16  and  C_19
REMARK    3  A    between atoms: C_22  and  C_23
REMARK                            x       y       z     vdW  Elec       q    Type
REMARK                         _______ _______ _______ _____ _____    ______ ____
ROOT
ATOM      1  C   UNL     1       7.496   2.121  23.652  0.00  0.00    +0.087 C 
ATOM      2  C   UNL     1       7.284   3.322  24.586  0.00  0.00    +0.029 C 
ATOM      3  N   UNL     1       8.892   1.728  23.780  0.00  0.00    -0.307 N 
ATOM      4  H   UNL     1       9.547   2.502  23.792  0.00  0.00    +0.149 HD
ATOM      5  C   UNL     1       9.476   0.719  23.063  0.00  0.00    +0.253 C 
ATOM      6  O   UNL     1      10.564   0.973  22.545  0.00  0.00    -0.270 OA
ATOM      7  C   UNL     1       8.881  -0.587  23.137  0.00  0.00    +0.096 A 
ATOM      8  S   UNL     1       9.975  -1.875  23.346  0.00  0.00    -0.082 S 
ATOM      9  C   UNL     1       8.724  -2.927  23.852  0.00  0.00    +0.023 A 
ATOM     10  C   UNL     1       8.919  -4.131  24.542  0.00  0.00    +0.018 A 
ATOM     11  C   UNL     1       7.806  -4.891  24.867  0.00  0.00    +0.029 A 
ATOM     12  C   UNL     1       6.582  -4.616  24.313  0.00  0.00    +0.072 A 
ATOM     13  N   UNL     1       5.623  -5.540  24.479  0.00  0.00    -0.247 NA
ATOM     14  C   UNL     1       4.576  -5.543  23.627  0.00  0.00    +0.073 A 
ATOM     15  C   UNL     1       4.513  -4.611  22.596  0.00  0.00    +0.029 A 
ATOM     16  C   UNL     1       5.354  -3.483  22.617  0.00  0.00    +0.013 A 
ATOM     17  C   UNL     1       6.438  -3.464  23.505  0.00  0.00    +0.010 A 
ATOM     18  C   UNL     1       7.469  -2.453  23.467  0.00  0.00    +0.020 A 
ATOM     19  C   UNL     1       7.569  -1.022  23.159  0.00  0.00    +0.055 A 
ATOM     20  N   UNL     1       6.508  -0.161  23.010  0.00  0.00    -0.341 N 
ATOM     21  H   UNL     1       6.369   0.179  22.057  0.00  0.00    +0.146 HD
ATOM     22  C   UNL     1       6.447   1.010  23.934  0.00  0.00    +0.123 C 
ENDROOT
BRANCH  14  23
ATOM     23  C   UNL     1       3.487  -6.503  23.932  0.00  0.00    +0.018 A 
ATOM     24  C   UNL     1       2.327  -6.589  23.144  0.00  0.00    +0.013 A 
ATOM     25  C   UNL     1       1.413  -7.636  23.314  0.00  0.00    +0.024 A 
ATOM     26  C   UNL     1       1.663  -8.591  24.289  0.00  0.00    +0.038 A 
ATOM     27  C   UNL     1       0.804  -9.814  24.406  0.00  0.00    +0.065 C 
ATOM     28  N   UNL     1       2.719  -8.501  25.125  0.00  0.00    -0.260 NA
ATOM     29  C   UNL     1       3.585  -7.471  24.931  0.00  0.00    +0.121 A 
ENDBRANCH  14  23
TORSDOF 1
ENDMDL
MODEL 4
REMARK VINA RESULT:      -7.5      2.157      3.259
REMARK  Name = 
REMARK  3 active torsions:
REMARK  status: ('A' for Active; 'I' for Inactive)
REMARK    1  A    between atoms: C_2  and  C_3
REMARK    2  A    between atoms: C_16  and  C_19
REMARK    3  A    between atoms: C_22  and  C_23
REMARK                            x       y       z     vdW  Elec       q    Type
REMARK                         _______ _______ _______ _____ _____    ______ ____
ROOT
ATOM      1  C   UNL     1       7.066   5.946  24.993  0.00  0.00    +0.087 C 
ATOM      2  C   UNL     1       6.600   6.821  26.167  0.00  0.00    +0.029 C 
ATOM      3  N   UNL     1       8.504   6.140  24.869  0.00  0.00    -0.307 N 
ATOM      4  H   UNL     1       8.807   7.103  24.956  0.00  0.00    +0.149 HD
ATOM      5  C   UNL     1       9.276   5.560  23.899  0.00  0.00    +0.253 C 
ATOM      6  O   UNL     1      10.067   6.301  23.313  0.00  0.00    -0.270 OA
ATOM      7  C   UNL     1       9.244   4.129  23.783  0.00  0.00    +0.096 A 
ATOM      8  S   UNL     1      10.761   3.379  23.595  0.00  0.00    -0.082 S 
ATOM      9  C   UNL     1      10.122   1.853  24.028  0.00  0.00    +0.023 A 
ATOM     10  C   UNL     1      10.885   0.750  24.435  0.00  0.00    +0.018 A 
ATOM     11  C   UNL     1      10.225  -0.432  24.735  0.00  0.00    +0.029 A 
ATOM     12  C   UNL     1       8.906  -0.605  24.401  0.00  0.00    +0.072 A 
ATOM     13  N   UNL     1       8.418  -1.851  24.495  0.00  0.00    -0.247 NA
ATOM     14  C   UNL     1       7.308  -2.163  23.794  0.00  0.00    +0.073 A 
ATOM     15  C   UNL     1       6.701  -1.207  22.985  0.00  0.00    +0.029 A 
ATOM     16  C   UNL     1       7.042   0.151  23.129  0.00  0.00    +0.013 A 
ATOM     17  C   UNL     1       8.186   0.487  23.863  0.00  0.00    +0.010 A 
ATOM     18  C   UNL     1       8.732   1.825  23.902  0.00  0.00    +0.020 A 
ATOM     19  C   UNL     1       8.224   3.201  23.877  0.00  0.00    +0.055 A 
ATOM     20  N   UNL     1       6.909   3.570  24.034  0.00  0.00    -0.341 N 
ATOM     21  H   UNL     1       6.472   3.949  23.192  0.00  0.00    +0.146 HD
ATOM     22  C   UNL     1       6.588   4.478  25.174  0.00  0.00    +0.123 C 
ENDROOT
BRANCH  14  23
ATOM     23  C   UNL     1       6.741  -3.513  24.031  0.00  0.00    +0.018 A 
ATOM     24  C   UNL     1       6.949  -4.208  25.235  0.00  0.00    +0.013 A 
ATOM     25  C   UNL     1       6.237  -5.378  25.526  0.00  0.00    +0.024 A 
ATOM     26  C   UNL     1       5.324  -5.856  24.597  0.00  0.00    +0.038 A 
ATOM     27  C   UNL     1       4.426  -7.010  24.924  0.00  0.00    +0.065 C 
ATOM     28  N   UNL     1       5.155  -5.269  23.393  0.00  0.00    -0.260 NA
ATOM     29  C   UNL     1       5.863  -4.136  23.144  0.00  0.00    +0.121 A 
ENDBRANCH  14  23
TORSDOF 1
ENDMDL
MODEL 5
REMARK VINA RESULT:      -7.0      3.801      8.890
REMARK  Name = 
REMARK  3 active torsions:
REMARK  status: ('A' for Active; 'I' for Inactive)
REMARK    1  A    between atoms: C_2  and  C_3
REMARK    2  A    between atoms: C_16  and  C_19
REMARK    3  A    between atoms: C_22  and  C_23
REMARK                            x       y       z     vdW  Elec       q    Type
REMARK                         _______ _______ _______ _____ _____    ______ ____
ROOT
ATOM      1  C   UNL     1       1.592  -6.784  23.391  0.00  0.00    +0.087 C 
ATOM      2  C   UNL     1       1.197  -7.642  22.179  0.00  0.00    +0.029 C 
ATOM      3  N   UNL     1       2.011  -7.704  24.439  0.00  0.00    -0.307 N 
ATOM      4  H   UNL     1       1.417  -8.517  24.547  0.00  0.00    +0.149 HD
ATOM      5  C   UNL     1       2.392  -7.315  25.695  0.00  0.00    +0.253 C 
ATOM      6  O   UNL     1       1.899  -7.939  26.635  0.00  0.00    -0.270 OA
ATOM      7  C   UNL     1       3.464  -6.364  25.806  0.00  0.00    +0.096 A 
ATOM      8  S   UNL     1       4.638  -6.724  26.986  0.00  0.00    -0.082 S 
ATOM      9  C   UNL     1       5.755  -5.634  26.286  0.00  0.00    +0.023 A 
ATOM     10  C   UNL     1       7.134  -5.632  26.530  0.00  0.00    +0.018 A 
ATOM     11  C   UNL     1       7.912  -4.670  25.904  0.00  0.00    +0.029 A 
ATOM     12  C   UNL     1       7.333  -3.598  25.275  0.00  0.00    +0.072 A 
ATOM     13  N   UNL     1       8.149  -2.594  24.920  0.00  0.00    -0.247 NA
ATOM     14  C   UNL     1       7.613  -1.373  24.706  0.00  0.00    +0.073 A 
ATOM     15  C   UNL     1       6.246  -1.173  24.870  0.00  0.00    +0.029 A 
ATOM     16  C   UNL     1       5.379  -2.278  24.947  0.00  0.00    +0.013 A 
ATOM     17  C   UNL     1       5.924  -3.552  25.157  0.00  0.00    +0.010 A 
ATOM     18  C   UNL     1       5.118  -4.715  25.450  0.00  0.00    +0.020 A 
ATOM     19  C   UNL     1       3.795  -5.234  25.083  0.00  0.00    +0.055 A 
ATOM     20  N   UNL     1       2.998  -4.747  24.075  0.00  0.00    -0.341 N 
ATOM     21  H   UNL     1       2.148  -4.280  24.395  0.00  0.00    +0.146 HD
ATOM     22  C   UNL     1       2.625  -5.696  22.985  0.00  0.00    +0.123 C 
ENDROOT
BRANCH  14  23
ATOM     23  C   UNL     1       8.538  -0.333  24.195  0.00  0.00    +0.018 A 
ATOM     24  C   UNL     1       8.168   0.558  23.173  0.00  0.00    +0.013 A 
ATOM     25  C   UNL     1       8.966   1.662  22.852  0.00  0.00    +0.024 A 
ATOM     26  C   UNL     1      10.146   1.862  23.554  0.00  0.00    +0.038 A 
ATOM     27  C   UNL     1      10.955   3.110  23.360  0.00  0.00    +0.065 C 
ATOM     28  N   UNL     1      10.583   0.987  24.484  0.00  0.00    -0.260 NA
ATOM     29  C   UNL     1       9.783  -0.074  24.769  0.00  0.00    +0.121 A 
ENDBRANCH  14  23
TORSDOF 1
ENDMDL
MODEL 6
REMARK VINA RESULT:      -7.0      3.407      8.936
REMARK  Name = 
REMARK  3 active torsions:
REMARK  status: ('A' for Active; 'I' for Inactive)
REMARK    1  A    between atoms: C_2  and  C_3
REMARK    2  A    between atoms: C_16  and  C_19
REMARK    3  A    between atoms: C_22  and  C_23
REMARK                            x       y       z     vdW  Elec       q    Type
REMARK                         _______ _______ _______ _____ _____    ______ ____
ROOT
ATOM      1  C   UNL     1       2.702  -5.472  27.114  0.00  0.00    +0.087 C 
ATOM      2  C   UNL     1       1.239  -5.301  27.552  0.00  0.00    +0.029 C 
ATOM      3  N   UNL     1       2.688  -6.291  25.910  0.00  0.00    -0.307 N 
ATOM      4  H   UNL     1       2.058  -7.083  25.948  0.00  0.00    +0.149 HD
ATOM      5  C   UNL     1       3.813  -6.702  25.248  0.00  0.00    +0.253 C 
ATOM      6  O   UNL     1       3.859  -7.892  24.932  0.00  0.00    -0.270 OA
ATOM      7  C   UNL     1       4.739  -5.695  24.808  0.00  0.00    +0.096 A 
ATOM      8  S   UNL     1       5.324  -5.886  23.221  0.00  0.00    -0.082 S 
ATOM      9  C   UNL     1       5.858  -4.262  23.164  0.00  0.00    +0.023 A 
ATOM     10  C   UNL     1       6.166  -3.560  21.991  0.00  0.00    +0.018 A 
ATOM     11  C   UNL     1       6.609  -2.251  22.105  0.00  0.00    +0.029 A 
ATOM     12  C   UNL     1       6.984  -1.739  23.320  0.00  0.00    +0.072 A 
ATOM     13  N   UNL     1       7.632  -0.564  23.307  0.00  0.00    -0.247 NA
ATOM     14  C   UNL     1       8.386  -0.232  24.376  0.00  0.00    +0.073 A 
ATOM     15  C   UNL     1       8.490  -1.104  25.455  0.00  0.00    +0.029 A 
ATOM     16  C   UNL     1       7.584  -2.173  25.583  0.00  0.00    +0.013 A 
ATOM     17  C   UNL     1       6.789  -2.521  24.483  0.00  0.00    +0.010 A 
ATOM     18  C   UNL     1       5.980  -3.718  24.444  0.00  0.00    +0.020 A 
ATOM     19  C   UNL     1       5.202  -4.529  25.387  0.00  0.00    +0.055 A 
ATOM     20  N   UNL     1       4.863  -4.159  26.667  0.00  0.00    -0.341 N 
ATOM     21  H   UNL     1       5.329  -4.696  27.400  0.00  0.00    +0.146 HD
ATOM     22  C   UNL     1       3.408  -4.093  26.993  0.00  0.00    +0.123 C 
ENDROOT
BRANCH  14  23
ATOM     23  C   UNL     1       8.977   1.128  24.362  0.00  0.00    +0.018 A 
ATOM     24  C   UNL     1      10.145   1.426  23.639  0.00  0.00    +0.013 A 
ATOM     25  C   UNL     1      10.568   2.749  23.462  0.00  0.00    +0.024 A 
ATOM     26  C   UNL     1       9.819   3.773  24.026  0.00  0.00    +0.038 A 
ATOM     27  C   UNL     1      10.138   5.208  23.735  0.00  0.00    +0.065 C 
ATOM     28  N   UNL     1       8.740   3.528  24.799  0.00  0.00    -0.260 NA
ATOM     29  C   UNL     1       8.359   2.232  24.949  0.00  0.00    +0.121 A 
ENDBRANCH  14  23
TORSDOF 1
ENDMDL
MODEL 7
REMARK VINA RESULT:      -6.9      3.016      8.648
REMARK  Name = 
REMARK  3 active torsions:
REMARK  status: ('A' for Active; 'I' for Inactive)
REMARK    1  A    between atoms: C_2  and  C_3
REMARK    2  A    between atoms: C_16  and  C_19
REMARK    3  A    between atoms: C_22  and  C_23
REMARK                            x       y       z     vdW  Elec       q    Type
REMARK                         _______ _______ _______ _____ _____    ______ ____
ROOT
ATOM      1  C   UNL     1       3.132  -5.819  24.575  0.00  0.00    +0.087 C 
ATOM      2  C   UNL     1       2.410  -6.633  23.490  0.00  0.00    +0.029 C 
ATOM      3  N   UNL     1       4.218  -6.651  25.072  0.00  0.00    -0.307 N 
ATOM      4  H   UNL     1       3.968  -7.621  25.226  0.00  0.00    +0.149 HD
ATOM      5  C   UNL     1       5.062  -6.287  26.087  0.00  0.00    +0.253 C 
ATOM      6  O   UNL     1       5.262  -7.130  26.963  0.00  0.00    -0.270 OA
ATOM      7  C   UNL     1       5.787  -5.054  25.946  0.00  0.00    +0.096 A 
ATOM      8  S   UNL     1       7.436  -5.127  26.363  0.00  0.00    -0.082 S 
ATOM      9  C   UNL     1       7.766  -3.667  25.535  0.00  0.00    +0.023 A 
ATOM     10  C   UNL     1       9.041  -3.238  25.142  0.00  0.00    +0.018 A 
ATOM     11  C   UNL     1       9.154  -2.016  24.496  0.00  0.00    +0.029 A 
ATOM     12  C   UNL     1       8.104  -1.136  24.469  0.00  0.00    +0.072 A 
ATOM     13  N   UNL     1       8.371   0.110  24.050  0.00  0.00    -0.247 NA
ATOM     14  C   UNL     1       7.526   1.103  24.400  0.00  0.00    +0.073 A 
ATOM     15  C   UNL     1       6.414   0.828  25.190  0.00  0.00    +0.029 A 
ATOM     16  C   UNL     1       5.991  -0.502  25.365  0.00  0.00    +0.013 A 
ATOM     17  C   UNL     1       6.855  -1.541  24.996  0.00  0.00    +0.010 A 
ATOM     18  C   UNL     1       6.602  -2.928  25.317  0.00  0.00    +0.020 A 
ATOM     19  C   UNL     1       5.439  -3.811  25.453  0.00  0.00    +0.055 A 
ATOM     20  N   UNL     1       4.159  -3.514  25.050  0.00  0.00    -0.341 N 
ATOM     21  H   UNL     1       3.493  -3.386  25.814  0.00  0.00    +0.146 HD
ATOM     22  C   UNL     1       3.537  -4.418  24.038  0.00  0.00    +0.123 C 
ENDROOT
BRANCH  14  23
ATOM     23  C   UNL     1       7.800   2.435  23.807  0.00  0.00    +0.018 A 
ATOM     24  C   UNL     1       7.148   2.883  22.646  0.00  0.00    +0.013 A 
ATOM     25  C   UNL     1       7.257   4.214  22.223  0.00  0.00    +0.024 A 
ATOM     26  C   UNL     1       8.034   5.091  22.966  0.00  0.00    +0.038 A 
ATOM     27  C   UNL     1       8.057   6.556  22.649  0.00  0.00    +0.065 C 
ATOM     28  N   UNL     1       8.746   4.684  24.039  0.00  0.00    -0.260 NA
ATOM     29  C   UNL     1       8.617   3.386  24.419  0.00  0.00    +0.121 A 
ENDBRANCH  14  23
TORSDOF 1
ENDMDL
MODEL 8
REMARK VINA RESULT:      -6.9      1.954      2.494
REMARK  Name = 
REMARK  3 active torsions:
REMARK  status: ('A' for Active; 'I' for Inactive)
REMARK    1  A    between atoms: C_2  and  C_3
REMARK    2  A    between atoms: C_16  and  C_19
REMARK    3  A    between atoms: C_22  and  C_23
REMARK                            x       y       z     vdW  Elec       q    Type
REMARK                         _______ _______ _______ _____ _____    ______ ____
ROOT
ATOM      1  C   UNL     1       9.688   0.427  22.325  0.00  0.00    +0.087 C 
ATOM      2  C   UNL     1       9.569   1.655  21.408  0.00  0.00    +0.029 C 
ATOM      3  N   UNL     1       9.891   0.930  23.677  0.00  0.00    -0.307 N 
ATOM      4  H   UNL     1      10.546   1.699  23.746  0.00  0.00    +0.149 HD
ATOM      5  C   UNL     1      10.091   0.132  24.771  0.00  0.00    +0.253 C 
ATOM      6  O   UNL     1      11.019   0.446  25.516  0.00  0.00    -0.270 OA
ATOM      7  C   UNL     1       9.100  -0.867  25.062  0.00  0.00    +0.096 A 
ATOM      8  S   UNL     1       8.639  -0.982  26.697  0.00  0.00    -0.082 S 
ATOM      9  C   UNL     1       7.223  -1.852  26.294  0.00  0.00    +0.023 A 
ATOM     10  C   UNL     1       6.116  -2.017  27.137  0.00  0.00    +0.018 A 
ATOM     11  C   UNL     1       5.045  -2.770  26.678  0.00  0.00    +0.029 A 
ATOM     12  C   UNL     1       5.161  -3.542  25.551  0.00  0.00    +0.072 A 
ATOM     13  N   UNL     1       4.177  -4.424  25.320  0.00  0.00    -0.247 NA
ATOM     14  C   UNL     1       4.430  -5.475  24.510  0.00  0.00    +0.073 A 
ATOM     15  C   UNL     1       5.692  -5.634  23.947  0.00  0.00    +0.029 A 
ATOM     16  C   UNL     1       6.604  -4.562  23.955  0.00  0.00    +0.013 A 
ATOM     17  C   UNL     1       6.347  -3.462  24.783  0.00  0.00    +0.010 A 
ATOM     18  C   UNL     1       7.310  -2.409  25.017  0.00  0.00    +0.020 A 
ATOM     19  C   UNL     1       8.362  -1.720  24.262  0.00  0.00    +0.055 A 
ATOM     20  N   UNL     1       8.556  -1.803  22.904  0.00  0.00    -0.341 N 
ATOM     21  H   UNL     1       9.407  -2.296  22.627  0.00  0.00    +0.146 HD
ATOM     22  C   UNL     1       8.481  -0.531  22.127  0.00  0.00    +0.123 C 
ENDROOT
BRANCH  14  23
ATOM     23  C   UNL     1       3.275  -6.347  24.190  0.00  0.00    +0.018 A 
ATOM     24  C   UNL     1       2.350  -6.021  23.183  0.00  0.00    +0.013 A 
ATOM     25  C   UNL     1       1.395  -6.949  22.749  0.00  0.00    +0.024 A 
ATOM     26  C   UNL     1       1.365  -8.204  23.341  0.00  0.00    +0.038 A 
ATOM     27  C   UNL     1       0.472  -9.283  22.808  0.00  0.00    +0.065 C 
ATOM     28  N   UNL     1       2.176  -8.531  24.368  0.00  0.00    -0.260 NA
ATOM     29  C   UNL     1       3.090  -7.605  24.763  0.00  0.00    +0.121 A 
ENDBRANCH  14  23
TORSDOF 1
ENDMDL
MODEL 9
REMARK VINA RESULT:      -6.8      3.080      8.121
REMARK  Name = 
REMARK  3 active torsions:
REMARK  status: ('A' for Active; 'I' for Inactive)
REMARK    1  A    between atoms: C_2  and  C_3
REMARK    2  A    between atoms: C_16  and  C_19
REMARK    3  A    between atoms: C_22  and  C_23
REMARK                            x       y       z     vdW  Elec       q    Type
REMARK                         _______ _______ _______ _____ _____    ______ ____
ROOT
ATOM      1  C   UNL     1       6.490  -5.299  23.625  0.00  0.00    +0.087 C 
ATOM      2  C   UNL     1       5.974  -6.452  22.749  0.00  0.00    +0.029 C 
ATOM      3  N   UNL     1       7.935  -5.253  23.450  0.00  0.00    -0.307 N 
ATOM      4  H   UNL     1       8.389  -6.159  23.458  0.00  0.00    +0.149 HD
ATOM      5  C   UNL     1       8.761  -4.384  24.110  0.00  0.00    +0.253 C 
ATOM      6  O   UNL     1       9.774  -4.867  24.616  0.00  0.00    -0.270 OA
ATOM      7  C   UNL     1       8.488  -2.978  23.990  0.00  0.00    +0.096 A 
ATOM      8  S   UNL     1       9.847  -1.994  23.702  0.00  0.00    -0.082 S 
ATOM      9  C   UNL     1       8.864  -0.696  23.177  0.00  0.00    +0.023 A 
ATOM     10  C   UNL     1       9.315   0.401  22.430  0.00  0.00    +0.018 A 
ATOM     11  C   UNL     1       8.401   1.389  22.095  0.00  0.00    +0.029 A 
ATOM     12  C   UNL     1       7.165   1.433  22.685  0.00  0.00    +0.072 A 
ATOM     13  N   UNL     1       6.446   2.550  22.499  0.00  0.00    -0.247 NA
ATOM     14  C   UNL     1       5.455   2.832  23.372  0.00  0.00    +0.073 A 
ATOM     15  C   UNL     1       5.206   1.982  24.444  0.00  0.00    +0.029 A 
ATOM     16  C   UNL     1       5.757   0.687  24.455  0.00  0.00    +0.013 A 
ATOM     17  C   UNL     1       6.779   0.379  23.547  0.00  0.00    +0.010 A 
ATOM     18  C   UNL     1       7.545  -0.846  23.608  0.00  0.00    +0.020 A 
ATOM     19  C   UNL     1       7.315  -2.247  23.976  0.00  0.00    +0.055 A 
ATOM     20  N   UNL     1       6.086  -2.827  24.185  0.00  0.00    -0.341 N 
ATOM     21  H   UNL     1       5.900  -3.087  25.155  0.00  0.00    +0.146 HD
ATOM     22  C   UNL     1       5.723  -3.984  23.315  0.00  0.00    +0.123 C 
ENDROOT
BRANCH  14  23
ATOM     23  C   UNL     1       4.614   4.009  23.048  0.00  0.00    +0.018 A 
ATOM     24  C   UNL     1       5.170   5.270  22.770  0.00  0.00    +0.013 A 
ATOM     25  C   UNL     1       4.384   6.311  22.260  0.00  0.00    +0.024 A 
ATOM     26  C   UNL     1       3.032   6.084  22.042  0.00  0.00    +0.038 A 
ATOM     27  C   UNL     1       2.182   7.108  21.352  0.00  0.00    +0.065 C 
ATOM     28  N   UNL     1       2.440   4.917  22.373  0.00  0.00    -0.260 NA
ATOM     29  C   UNL     1       3.233   3.930  22.866  0.00  0.00    +0.121 A 
ENDBRANCH  14  23
TORSDOF 1
ENDMDL
