MODEL 1
REMARK VINA RESULT:      -6.5      0.000      0.000
REMARK  Name = 
REMARK  8 active torsions:
REMARK  status: ('A' for Active; 'I' for Inactive)
REMARK    1  A    between atoms: C_3  and  C_4
REMARK    2  A    between atoms: N_6  and  C_12
REMARK    3  A    between atoms: C_15  and  O_17
REMARK    4  A    between atoms: C_18  and  C_20
REMARK    5  A    between atoms: C_20  and  O_21
REMARK    6  A    between atoms: O_21  and  P_22
REMARK    7  A    between atoms: P_22  and  O_23
REMARK    8  A    between atoms: P_22  and  O_24
REMARK                            x       y       z     vdW  Elec       q    Type
REMARK                         _______ _______ _______ _____ _____    ______ ____
ROOT
ATOM      1  C   UNL     1       9.319  -3.018  24.440  0.00  0.00    +0.226 C 
ATOM      2  O   UNL     1       9.188  -1.688  24.982  0.00  0.00    -0.348 OA
ATOM      3  C   UNL     1       9.353  -0.747  23.904  0.00  0.00    +0.175 C 
ATOM      4  C   UNL     1       9.762  -1.550  22.668  0.00  0.00    +0.150 C 
ATOM      5  C   UNL     1       9.117  -2.888  22.940  0.00  0.00    +0.088 C 
ENDROOT
BRANCH   1  13
ATOM      6  C   UNL     1       6.099  -4.684  25.269  0.00  0.00    +0.056 A 
ATOM      7  C   UNL     1       6.585  -5.701  26.253  0.00  0.00    +0.261 A 
ATOM      8  O   UNL     1       5.839  -6.543  26.742  0.00  0.00    -0.267 OA
ATOM      9  N   UNL     1       7.916  -5.651  26.563  0.00  0.00    -0.274 N 
ATOM     10  H   UNL     1       8.258  -6.336  27.221  0.00  0.00    +0.173 HD
ATOM     11  C   UNL     1       8.850  -4.825  26.001  0.00  0.00    +0.331 A 
ATOM     12  O   UNL     1      10.034  -4.925  26.307  0.00  0.00    -0.246 OA
ATOM     13  N   UNL     1       8.360  -3.911  25.077  0.00  0.00    -0.273 N 
ATOM     14  C   UNL     1       7.026  -3.883  24.724  0.00  0.00    +0.106 A 
BRANCH   6  17
ATOM     15 BR   UNL     1       2.350  -5.308  23.447  0.00  0.00    -0.059 Br
ATOM     16  C   UNL     1       4.148  -5.360  23.899  0.00  0.00    +0.052 C 
ATOM     17  C   UNL     1       4.695  -4.656  24.899  0.00  0.00    +0.022 C 
ENDBRANCH   6  17
ENDBRANCH   1  13
BRANCH   4  18
ATOM     18  O   UNL     1       9.312  -0.995  21.444  0.00  0.00    -0.389 OA
ATOM     19  H   UNL     1       8.890  -1.690  20.910  0.00  0.00    +0.210 HD
ENDBRANCH   4  18
BRANCH   3  20
ATOM     20  C   UNL     1      10.373   0.303  24.322  0.00  0.00    +0.206 C 
BRANCH  20  21
ATOM     21  O   UNL     1      10.696   1.168  23.244  0.00  0.00    -0.284 OA
BRANCH  21  22
ATOM     22  P   UNL     1       9.491   2.391  23.033  0.00  0.00    +0.472 P 
ATOM     23  O   UNL     1       8.412   3.486  22.845  0.00  0.00    -0.228 OA
BRANCH  22  24
ATOM     24  O   UNL     1       9.607   2.008  21.445  0.00  0.00    -0.303 OA
ATOM     25  H   UNL     1      10.283   2.546  20.998  0.00  0.00    +0.222 HD
ENDBRANCH  22  24
BRANCH  22  26
ATOM     26  O   UNL     1      10.765   3.418  22.983  0.00  0.00    -0.303 OA
ATOM     27  H   UNL     1      11.513   2.924  23.368  0.00  0.00    +0.222 HD
ENDBRANCH  22  26
ENDBRANCH  21  22
ENDBRANCH  20  21
ENDBRANCH   3  20
TORSDOF 8
ENDMDL
MODEL 2
REMARK VINA RESULT:      -6.3      2.002      2.100
REMARK  Name = 
REMARK  8 active torsions:
REMARK  status: ('A' for Active; 'I' for Inactive)
REMARK    1  A    between atoms: C_3  and  C_4
REMARK    2  A    between atoms: N_6  and  C_12
REMARK    3  A    between atoms: C_15  and  O_17
REMARK    4  A    between atoms: C_18  and  C_20
REMARK    5  A    between atoms: C_20  and  O_21
REMARK    6  A    between atoms: O_21  and  P_22
REMARK    7  A    between atoms: P_22  and  O_23
REMARK    8  A    between atoms: P_22  and  O_24
REMARK                            x       y       z     vdW  Elec       q    Type
REMARK                         _______ _______ _______ _____ _____    ______ ____
ROOT
ATOM      1  C   UNL     1       8.738  -2.603  24.110  0.00  0.00    +0.226 C 
ATOM      2  O   UNL     1       9.587  -1.556  24.622  0.00  0.00    -0.348 OA
ATOM      3  C   UNL     1       9.242  -0.331  23.948  0.00  0.00    +0.175 C 
ATOM      4  C   UNL     1       8.234  -0.689  22.856  0.00  0.00    +0.150 C 
ATOM      5  C   UNL     1       7.565  -1.910  23.441  0.00  0.00    +0.088 C 
ENDROOT
BRANCH   1  13
ATOM      6  C   UNL     1       6.741  -4.083  26.876  0.00  0.00    +0.056 A 
ATOM      7  C   UNL     1       7.584  -5.281  27.185  0.00  0.00    +0.261 A 
ATOM      8  O   UNL     1       7.246  -6.119  28.015  0.00  0.00    -0.267 OA
ATOM      9  N   UNL     1       8.746  -5.399  26.475  0.00  0.00    -0.274 N 
ATOM     10  H   UNL     1       9.320  -6.206  26.669  0.00  0.00    +0.173 HD
ATOM     11  C   UNL     1       9.164  -4.583  25.460  0.00  0.00    +0.331 A 
ATOM     12  O   UNL     1      10.195  -4.834  24.843  0.00  0.00    -0.246 OA
ATOM     13  N   UNL     1       8.343  -3.496  25.191  0.00  0.00    -0.273 N 
ATOM     14  C   UNL     1       7.162  -3.293  25.877  0.00  0.00    +0.106 A 
BRANCH   6  17
ATOM     15 BR   UNL     1       3.200  -2.496  28.519  0.00  0.00    -0.059 Br
ATOM     16  C   UNL     1       4.785  -2.739  27.587  0.00  0.00    +0.052 C 
ATOM     17  C   UNL     1       5.499  -3.872  27.599  0.00  0.00    +0.022 C 
ENDBRANCH   6  17
ENDBRANCH   1  13
BRANCH   4  18
ATOM     18  O   UNL     1       7.295   0.335  22.578  0.00  0.00    -0.389 OA
ATOM     19  H   UNL     1       7.242   0.940  23.337  0.00  0.00    +0.210 HD
ENDBRANCH   4  18
BRANCH   3  20
ATOM     20  C   UNL     1      10.517   0.315  23.423  0.00  0.00    +0.206 C 
BRANCH  20  21
ATOM     21  O   UNL     1      10.227   1.418  22.577  0.00  0.00    -0.284 OA
BRANCH  21  22
ATOM     22  P   UNL     1       9.784   2.817  23.493  0.00  0.00    +0.472 P 
ATOM     23  O   UNL     1       9.388   4.069  24.314  0.00  0.00    -0.228 OA
BRANCH  22  24
ATOM     24  O   UNL     1       8.722   3.083  22.274  0.00  0.00    -0.303 OA
ATOM     25  H   UNL     1       8.787   3.993  21.939  0.00  0.00    +0.222 HD
ENDBRANCH  22  24
BRANCH  22  26
ATOM     26  O   UNL     1      11.026   3.535  22.704  0.00  0.00    -0.303 OA
ATOM     27  H   UNL     1      10.618   4.231  22.155  0.00  0.00    +0.222 HD
ENDBRANCH  22  26
ENDBRANCH  21  22
ENDBRANCH  20  21
ENDBRANCH   3  20
TORSDOF 8
ENDMDL
MODEL 3
REMARK VINA RESULT:      -6.2      3.909      7.796
REMARK  Name = 
REMARK  8 active torsions:
REMARK  status: ('A' for Active; 'I' for Inactive)
REMARK    1  A    between atoms: C_3  and  C_4
REMARK    2  A    between atoms: N_6  and  C_12
REMARK    3  A    between atoms: C_15  and  O_17
REMARK    4  A    between atoms: C_18  and  C_20
REMARK    5  A    between atoms: C_20  and  O_21
REMARK    6  A    between atoms: O_21  and  P_22
REMARK    7  A    between atoms: P_22  and  O_23
REMARK    8  A    between atoms: P_22  and  O_24
REMARK                            x       y       z     vdW  Elec       q    Type
REMARK                         _______ _______ _______ _____ _____    ______ ____
ROOT
ATOM      1  C   UNL     1       8.322  -2.563  24.082  0.00  0.00    +0.226 C 
ATOM      2  O   UNL     1       7.453  -2.339  25.210  0.00  0.00    -0.348 OA
ATOM      3  C   UNL     1       7.734  -3.347  26.199  0.00  0.00    +0.175 C 
ATOM      4  C   UNL     1       8.721  -4.330  25.568  0.00  0.00    +0.150 C 
ATOM      5  C   UNL     1       9.450  -3.447  24.583  0.00  0.00    +0.088 C 
ENDROOT
BRANCH   1  13
ATOM      6  C   UNL     1       9.146   1.058  23.879  0.00  0.00    +0.056 A 
ATOM      7  C   UNL     1       9.757   1.104  22.513  0.00  0.00    +0.261 A 
ATOM      8  O   UNL     1      10.251   2.128  22.054  0.00  0.00    -0.267 OA
ATOM      9  N   UNL     1       9.750  -0.069  21.811  0.00  0.00    -0.274 N 
ATOM     10  H   UNL     1      10.165  -0.054  20.891  0.00  0.00    +0.173 HD
ATOM     11  C   UNL     1       9.321  -1.286  22.267  0.00  0.00    +0.331 A 
ATOM     12  O   UNL     1       9.435  -2.288  21.567  0.00  0.00    -0.246 OA
ATOM     13  N   UNL     1       8.782  -1.288  23.546  0.00  0.00    -0.273 N 
ATOM     14  C   UNL     1       8.732  -0.142  24.313  0.00  0.00    +0.106 A 
BRANCH   6  17
ATOM     15 BR   UNL     1       8.077   4.716  25.679  0.00  0.00    -0.059 Br
ATOM     16  C   UNL     1       8.119   3.181  24.638  0.00  0.00    +0.052 C 
ATOM     17  C   UNL     1       9.095   2.266  24.684  0.00  0.00    +0.022 C 
ENDBRANCH   6  17
ENDBRANCH   1  13
BRANCH   4  18
ATOM     18  O   UNL     1       9.615  -4.925  26.493  0.00  0.00    -0.389 OA
ATOM     19  H   UNL     1      10.361  -4.322  26.655  0.00  0.00    +0.210 HD
ENDBRANCH   4  18
BRANCH   3  20
ATOM     20  C   UNL     1       6.423  -3.985  26.636  0.00  0.00    +0.206 C 
BRANCH  20  21
ATOM     21  O   UNL     1       6.446  -4.323  28.014  0.00  0.00    -0.284 OA
BRANCH  21  22
ATOM     22  P   UNL     1       5.947  -5.959  28.271  0.00  0.00    +0.472 P 
ATOM     23  O   UNL     1       5.499  -7.424  28.500  0.00  0.00    -0.228 OA
BRANCH  22  24
ATOM     24  O   UNL     1       6.146  -5.604  29.857  0.00  0.00    -0.303 OA
ATOM     25  H   UNL     1       5.847  -6.334  30.425  0.00  0.00    +0.222 HD
ENDBRANCH  22  24
BRANCH  22  26
ATOM     26  O   UNL     1       7.529  -6.314  28.047  0.00  0.00    -0.303 OA
ATOM     27  H   UNL     1       7.542  -7.193  27.623  0.00  0.00    +0.222 HD
ENDBRANCH  22  26
ENDBRANCH  21  22
ENDBRANCH  20  21
ENDBRANCH   3  20
TORSDOF 8
ENDMDL
MODEL 4
REMARK VINA RESULT:      -6.2      2.480      3.290
REMARK  Name = 
REMARK  8 active torsions:
REMARK  status: ('A' for Active; 'I' for Inactive)
REMARK    1  A    between atoms: C_3  and  C_4
REMARK    2  A    between atoms: N_6  and  C_12
REMARK    3  A    between atoms: C_15  and  O_17
REMARK    4  A    between atoms: C_18  and  C_20
REMARK    5  A    between atoms: C_20  and  O_21
REMARK    6  A    between atoms: O_21  and  P_22
REMARK    7  A    between atoms: P_22  and  O_23
REMARK    8  A    between atoms: P_22  and  O_24
REMARK                            x       y       z     vdW  Elec       q    Type
REMARK                         _______ _______ _______ _____ _____    ______ ____
ROOT
ATOM      1  C   UNL     1       7.219  -4.530  24.345  0.00  0.00    +0.226 C 
ATOM      2  O   UNL     1       6.854  -3.136  24.411  0.00  0.00    -0.348 OA
ATOM      3  C   UNL     1       6.400  -2.729  23.107  0.00  0.00    +0.175 C 
ATOM      4  C   UNL     1       6.652  -3.903  22.159  0.00  0.00    +0.150 C 
ATOM      5  C   UNL     1       6.555  -5.084  23.096  0.00  0.00    +0.088 C 
ENDROOT
BRANCH   1  13
ATOM      6  C   UNL     1       5.112  -6.387  26.782  0.00  0.00    +0.056 A 
ATOM      7  C   UNL     1       6.108  -6.581  27.883  0.00  0.00    +0.261 A 
ATOM      8  O   UNL     1       5.848  -7.234  28.889  0.00  0.00    -0.267 OA
ATOM      9  N   UNL     1       7.332  -6.004  27.695  0.00  0.00    -0.274 N 
ATOM     10  H   UNL     1       8.015  -6.133  28.427  0.00  0.00    +0.173 HD
ATOM     11  C   UNL     1       7.758  -5.348  26.572  0.00  0.00    +0.331 A 
ATOM     12  O   UNL     1       8.911  -4.937  26.491  0.00  0.00    -0.246 OA
ATOM     13  N   UNL     1       6.810  -5.210  25.566  0.00  0.00    -0.273 N 
ATOM     14  C   UNL     1       5.544  -5.746  25.687  0.00  0.00    +0.106 A 
BRANCH   6  17
ATOM     15 BR   UNL     1       1.227  -7.867  26.088  0.00  0.00    -0.059 Br
ATOM     16  C   UNL     1       2.924  -7.142  25.898  0.00  0.00    +0.052 C 
ATOM     17  C   UNL     1       3.780  -6.952  26.910  0.00  0.00    +0.022 C 
ENDBRANCH   6  17
ENDBRANCH   1  13
BRANCH   4  18
ATOM     18  O   UNL     1       5.715  -4.002  21.101  0.00  0.00    -0.389 OA
ATOM     19  H   UNL     1       5.904  -3.318  20.436  0.00  0.00    +0.210 HD
ENDBRANCH   4  18
BRANCH   3  20
ATOM     20  C   UNL     1       7.127  -1.452  22.711  0.00  0.00    +0.206 C 
BRANCH  20  21
ATOM     21  O   UNL     1       8.371  -1.736  22.089  0.00  0.00    -0.284 OA
BRANCH  21  22
ATOM     22  P   UNL     1       9.666  -0.871  22.842  0.00  0.00    +0.472 P 
ATOM     23  O   UNL     1      10.825  -0.096  23.516  0.00  0.00    -0.228 OA
BRANCH  22  24
ATOM     24  O   UNL     1      10.587  -1.545  21.667  0.00  0.00    -0.303 OA
ATOM     25  H   UNL     1      11.300  -0.947  21.388  0.00  0.00    +0.222 HD
ENDBRANCH  22  24
BRANCH  22  26
ATOM     26  O   UNL     1       9.768  -2.182  23.816  0.00  0.00    -0.303 OA
ATOM     27  H   UNL     1       9.690  -1.838  24.726  0.00  0.00    +0.222 HD
ENDBRANCH  22  26
ENDBRANCH  21  22
ENDBRANCH  20  21
ENDBRANCH   3  20
TORSDOF 8
ENDMDL
MODEL 5
REMARK VINA RESULT:      -6.1      2.652      3.625
REMARK  Name = 
REMARK  8 active torsions:
REMARK  status: ('A' for Active; 'I' for Inactive)
REMARK    1  A    between atoms: C_3  and  C_4
REMARK    2  A    between atoms: N_6  and  C_12
REMARK    3  A    between atoms: C_15  and  O_17
REMARK    4  A    between atoms: C_18  and  C_20
REMARK    5  A    between atoms: C_20  and  O_21
REMARK    6  A    between atoms: O_21  and  P_22
REMARK    7  A    between atoms: P_22  and  O_23
REMARK    8  A    between atoms: P_22  and  O_24
REMARK                            x       y       z     vdW  Elec       q    Type
REMARK                         _______ _______ _______ _____ _____    ______ ____
ROOT
ATOM      1  C   UNL     1       8.416   0.298  24.282  0.00  0.00    +0.226 C 
ATOM      2  O   UNL     1       7.293   0.639  23.444  0.00  0.00    -0.348 OA
ATOM      3  C   UNL     1       7.764   1.505  22.395  0.00  0.00    +0.175 C 
ATOM      4  C   UNL     1       9.225   1.832  22.706  0.00  0.00    +0.150 C 
ATOM      5  C   UNL     1       9.662   0.603  23.469  0.00  0.00    +0.088 C 
ENDROOT
BRANCH   1  13
ATOM      6  C   UNL     1       7.951  -3.387  24.098  0.00  0.00    +0.056 A 
ATOM      7  C   UNL     1       8.251  -3.752  25.518  0.00  0.00    +0.261 A 
ATOM      8  O   UNL     1       8.287  -4.918  25.897  0.00  0.00    -0.267 OA
ATOM      9  N   UNL     1       8.500  -2.711  26.368  0.00  0.00    -0.274 N 
ATOM     10  H   UNL     1       8.710  -2.944  27.328  0.00  0.00    +0.173 HD
ATOM     11  C   UNL     1       8.587  -1.388  26.028  0.00  0.00    +0.331 A 
ATOM     12  O   UNL     1       8.893  -0.548  26.869  0.00  0.00    -0.246 OA
ATOM     13  N   UNL     1       8.324  -1.095  24.697  0.00  0.00    -0.273 N 
ATOM     14  C   UNL     1       8.043  -2.087  23.779  0.00  0.00    +0.106 A 
BRANCH   6  17
ATOM     15 BR   UNL     1       6.244  -5.793  21.089  0.00  0.00    -0.059 Br
ATOM     16  C   UNL     1       6.598  -4.446  22.313  0.00  0.00    +0.052 C 
ATOM     17  C   UNL     1       7.656  -4.432  23.134  0.00  0.00    +0.022 C 
ENDBRANCH   6  17
ENDBRANCH   1  13
BRANCH   4  18
ATOM     18  O   UNL     1      10.027   2.042  21.557  0.00  0.00    -0.389 OA
ATOM     19  H   UNL     1      10.855   2.482  21.817  0.00  0.00    +0.210 HD
ENDBRANCH   4  18
BRANCH   3  20
ATOM     20  C   UNL     1       6.860   2.727  22.325  0.00  0.00    +0.206 C 
BRANCH  20  21
ATOM     21  O   UNL     1       7.582   3.882  21.927  0.00  0.00    -0.284 OA
BRANCH  21  22
ATOM     22  P   UNL     1       7.001   5.299  22.732  0.00  0.00    +0.472 P 
ATOM     23  O   UNL     1       6.481   6.567  23.454  0.00  0.00    -0.228 OA
BRANCH  22  24
ATOM     24  O   UNL     1       5.554   4.876  22.092  0.00  0.00    -0.303 OA
ATOM     25  H   UNL     1       4.820   5.318  22.550  0.00  0.00    +0.222 HD
ENDBRANCH  22  24
BRANCH  22  26
ATOM     26  O   UNL     1       7.487   6.079  21.378  0.00  0.00    -0.303 OA
ATOM     27  H   UNL     1       8.105   5.468  20.933  0.00  0.00    +0.222 HD
ENDBRANCH  22  26
ENDBRANCH  21  22
ENDBRANCH  20  21
ENDBRANCH   3  20
TORSDOF 8
ENDMDL
MODEL 6
REMARK VINA RESULT:      -6.1      4.850      8.161
REMARK  Name = 
REMARK  8 active torsions:
REMARK  status: ('A' for Active; 'I' for Inactive)
REMARK    1  A    between atoms: C_3  and  C_4
REMARK    2  A    between atoms: N_6  and  C_12
REMARK    3  A    between atoms: C_15  and  O_17
REMARK    4  A    between atoms: C_18  and  C_20
REMARK    5  A    between atoms: C_20  and  O_21
REMARK    6  A    between atoms: O_21  and  P_22
REMARK    7  A    between atoms: P_22  and  O_23
REMARK    8  A    between atoms: P_22  and  O_24
REMARK                            x       y       z     vdW  Elec       q    Type
REMARK                         _______ _______ _______ _____ _____    ______ ____
ROOT
ATOM      1  C   UNL     1       8.110   0.479  23.469  0.00  0.00    +0.226 C 
ATOM      2  O   UNL     1       8.517  -0.540  24.404  0.00  0.00    -0.348 OA
ATOM      3  C   UNL     1       9.198  -1.575  23.669  0.00  0.00    +0.175 C 
ATOM      4  C   UNL     1       9.057  -1.236  22.184  0.00  0.00    +0.150 C 
ATOM      5  C   UNL     1       8.947   0.270  22.220  0.00  0.00    +0.088 C 
ENDROOT
BRANCH   1  13
ATOM      6  C   UNL     1       9.508   3.856  24.159  0.00  0.00    +0.056 A 
ATOM      7  C   UNL     1       8.511   4.343  25.165  0.00  0.00    +0.261 A 
ATOM      8  O   UNL     1       8.549   5.480  25.622  0.00  0.00    -0.267 OA
ATOM      9  N   UNL     1       7.542   3.451  25.532  0.00  0.00    -0.274 N 
ATOM     10  H   UNL     1       6.860   3.769  26.206  0.00  0.00    +0.173 HD
ATOM     11  C   UNL     1       7.348   2.202  25.010  0.00  0.00    +0.331 A 
ATOM     12  O   UNL     1       6.393   1.519  25.368  0.00  0.00    -0.246 OA
ATOM     13  N   UNL     1       8.281   1.798  24.065  0.00  0.00    -0.273 N 
ATOM     14  C   UNL     1       9.303   2.631  23.654  0.00  0.00    +0.106 A 
BRANCH   6  17
ATOM     15 BR   UNL     1      13.135   5.469  22.746  0.00  0.00    -0.059 Br
ATOM     16  C   UNL     1      11.780   4.326  23.292  0.00  0.00    +0.052 C 
ATOM     17  C   UNL     1      10.581   4.734  23.729  0.00  0.00    +0.022 C 
ENDBRANCH   6  17
ENDBRANCH   1  13
BRANCH   4  18
ATOM     18  O   UNL     1      10.151  -1.659  21.389  0.00  0.00    -0.389 OA
ATOM     19  H   UNL     1      10.128  -1.194  20.535  0.00  0.00    +0.210 HD
ENDBRANCH   4  18
BRANCH   3  20
ATOM     20  C   UNL     1       8.602  -2.922  24.053  0.00  0.00    +0.206 C 
BRANCH  20  21
ATOM     21  O   UNL     1       9.390  -3.575  25.036  0.00  0.00    -0.284 OA
BRANCH  21  22
ATOM     22  P   UNL     1       8.522  -4.872  25.783  0.00  0.00    +0.472 P 
ATOM     23  O   UNL     1       7.744  -6.032  26.451  0.00  0.00    -0.228 OA
BRANCH  22  24
ATOM     24  O   UNL     1       9.588  -4.667  27.010  0.00  0.00    -0.303 OA
ATOM     25  H   UNL     1      10.453  -5.056  26.798  0.00  0.00    +0.222 HD
ENDBRANCH  22  24
BRANCH  22  26
ATOM     26  O   UNL     1       9.534  -5.834  24.930  0.00  0.00    -0.303 OA
ATOM     27  H   UNL     1      10.380  -5.819  25.417  0.00  0.00    +0.222 HD
ENDBRANCH  22  26
ENDBRANCH  21  22
ENDBRANCH  20  21
ENDBRANCH   3  20
TORSDOF 8
ENDMDL
MODEL 7
REMARK VINA RESULT:      -6.0      2.783      3.365
REMARK  Name = 
REMARK  8 active torsions:
REMARK  status: ('A' for Active; 'I' for Inactive)
REMARK    1  A    between atoms: C_3  and  C_4
REMARK    2  A    between atoms: N_6  and  C_12
REMARK    3  A    between atoms: C_15  and  O_17
REMARK    4  A    between atoms: C_18  and  C_20
REMARK    5  A    between atoms: C_20  and  O_21
REMARK    6  A    between atoms: O_21  and  P_22
REMARK    7  A    between atoms: P_22  and  O_23
REMARK    8  A    between atoms: P_22  and  O_24
REMARK                            x       y       z     vdW  Elec       q    Type
REMARK                         _______ _______ _______ _____ _____    ______ ____
ROOT
ATOM      1  C   UNL     1       6.849  -3.262  22.779  0.00  0.00    +0.226 C 
ATOM      2  O   UNL     1       7.944  -2.901  23.646  0.00  0.00    -0.348 OA
ATOM      3  C   UNL     1       7.973  -1.466  23.755  0.00  0.00    +0.175 C 
ATOM      4  C   UNL     1       6.933  -0.920  22.775  0.00  0.00    +0.150 C 
ATOM      5  C   UNL     1       5.934  -2.052  22.723  0.00  0.00    +0.088 C 
ENDROOT
BRANCH   1  13
ATOM      6  C   UNL     1       5.353  -5.702  25.153  0.00  0.00    +0.056 A 
ATOM      7  C   UNL     1       4.849  -6.724  24.183  0.00  0.00    +0.261 A 
ATOM      8  O   UNL     1       4.200  -7.701  24.544  0.00  0.00    -0.267 OA
ATOM      9  N   UNL     1       5.137  -6.498  22.866  0.00  0.00    -0.274 N 
ATOM     10  H   UNL     1       4.797  -7.177  22.201  0.00  0.00    +0.173 HD
ATOM     11  C   UNL     1       5.759  -5.395  22.349  0.00  0.00    +0.331 A 
ATOM     12  O   UNL     1       5.895  -5.269  21.136  0.00  0.00    -0.246 OA
ATOM     13  N   UNL     1       6.192  -4.461  23.281  0.00  0.00    -0.273 N 
ATOM     14  C   UNL     1       5.959  -4.625  24.632  0.00  0.00    +0.106 A 
BRANCH   6  17
ATOM     15 BR   UNL     1       5.712  -6.304  29.309  0.00  0.00    -0.059 Br
ATOM     16  C   UNL     1       6.053  -6.086  27.499  0.00  0.00    +0.052 C 
ATOM     17  C   UNL     1       5.107  -5.877  26.574  0.00  0.00    +0.022 C 
ENDBRANCH   6  17
ENDBRANCH   1  13
BRANCH   4  18
ATOM     18  O   UNL     1       6.326   0.290  23.191  0.00  0.00    -0.389 OA
ATOM     19  H   UNL     1       6.995   0.862  23.605  0.00  0.00    +0.210 HD
ENDBRANCH   4  18
BRANCH   3  20
ATOM     20  C   UNL     1       9.390  -0.982  23.482  0.00  0.00    +0.206 C 
BRANCH  20  21
ATOM     21  O   UNL     1       9.405   0.053  22.510  0.00  0.00    -0.284 OA
BRANCH  21  22
ATOM     22  P   UNL     1      10.199   1.469  23.109  0.00  0.00    +0.472 P 
ATOM     23  O   UNL     1      10.909   2.736  23.644  0.00  0.00    -0.228 OA
BRANCH  22  24
ATOM     24  O   UNL     1       8.683   1.963  23.489  0.00  0.00    -0.303 OA
ATOM     25  H   UNL     1       8.496   1.837  24.434  0.00  0.00    +0.222 HD
ENDBRANCH  22  24
BRANCH  22  26
ATOM     26  O   UNL     1      10.091   1.994  21.562  0.00  0.00    -0.303 OA
ATOM     27  H   UNL     1      10.791   1.518  21.076  0.00  0.00    +0.222 HD
ENDBRANCH  22  26
ENDBRANCH  21  22
ENDBRANCH  20  21
ENDBRANCH   3  20
TORSDOF 8
ENDMDL
MODEL 8
REMARK VINA RESULT:      -5.9      3.871      7.237
REMARK  Name = 
REMARK  8 active torsions:
REMARK  status: ('A' for Active; 'I' for Inactive)
REMARK    1  A    between atoms: C_3  and  C_4
REMARK    2  A    between atoms: N_6  and  C_12
REMARK    3  A    between atoms: C_15  and  O_17
REMARK    4  A    between atoms: C_18  and  C_20
REMARK    5  A    between atoms: C_20  and  O_21
REMARK    6  A    between atoms: O_21  and  P_22
REMARK    7  A    between atoms: P_22  and  O_23
REMARK    8  A    between atoms: P_22  and  O_24
REMARK                            x       y       z     vdW  Elec       q    Type
REMARK                         _______ _______ _______ _____ _____    ______ ____
ROOT
ATOM      1  C   UNL     1       8.786  -3.140  23.775  0.00  0.00    +0.226 C 
ATOM      2  O   UNL     1       7.365  -3.391  23.790  0.00  0.00    -0.348 OA
ATOM      3  C   UNL     1       7.131  -4.588  24.555  0.00  0.00    +0.175 C 
ATOM      4  C   UNL     1       8.500  -5.181  24.890  0.00  0.00    +0.150 C 
ATOM      5  C   UNL     1       9.372  -3.948  24.918  0.00  0.00    +0.088 C 
ENDROOT
BRANCH   1  13
ATOM      6  C   UNL     1       8.521   0.382  24.938  0.00  0.00    +0.056 A 
ATOM      7  C   UNL     1       9.625   0.999  24.136  0.00  0.00    +0.261 A 
ATOM      8  O   UNL     1       9.948   2.175  24.267  0.00  0.00    -0.267 OA
ATOM      9  N   UNL     1      10.267   0.169  23.259  0.00  0.00    -0.274 N 
ATOM     10  H   UNL     1      11.017   0.571  22.716  0.00  0.00    +0.173 HD
ATOM     11  C   UNL     1      10.057  -1.174  23.110  0.00  0.00    +0.331 A 
ATOM     12  O   UNL     1      10.751  -1.831  22.340  0.00  0.00    -0.246 OA
ATOM     13  N   UNL     1       9.039  -1.710  23.888  0.00  0.00    -0.273 N 
ATOM     14  C   UNL     1       8.329  -0.936  24.783  0.00  0.00    +0.106 A 
BRANCH   6  17
ATOM     15 BR   UNL     1       5.928   1.800  27.942  0.00  0.00    -0.059 Br
ATOM     16  C   UNL     1       6.867   0.736  26.748  0.00  0.00    +0.052 C 
ATOM     17  C   UNL     1       7.775   1.199  25.879  0.00  0.00    +0.022 C 
ENDBRANCH   6  17
ENDBRANCH   1  13
BRANCH   4  18
ATOM     18  O   UNL     1       8.543  -5.876  26.124  0.00  0.00    -0.389 OA
ATOM     19  H   UNL     1       9.462  -5.922  26.438  0.00  0.00    +0.210 HD
ENDBRANCH   4  18
BRANCH   3  20
ATOM     20  C   UNL     1       6.238  -5.519  23.747  0.00  0.00    +0.206 C 
BRANCH  20  21
ATOM     21  O   UNL     1       5.111  -5.939  24.501  0.00  0.00    -0.284 OA
BRANCH  21  22
ATOM     22  P   UNL     1       3.667  -5.910  23.549  0.00  0.00    +0.472 P 
ATOM     23  O   UNL     1       2.374  -5.884  22.697  0.00  0.00    -0.228 OA
BRANCH  22  24
ATOM     24  O   UNL     1       3.692  -7.536  23.751  0.00  0.00    -0.303 OA
ATOM     25  H   UNL     1       4.257  -7.792  24.499  0.00  0.00    +0.222 HD
ENDBRANCH  22  24
BRANCH  22  26
ATOM     26  O   UNL     1       4.693  -5.951  22.274  0.00  0.00    -0.303 OA
ATOM     27  H   UNL     1       5.570  -5.726  22.638  0.00  0.00    +0.222 HD
ENDBRANCH  22  26
ENDBRANCH  21  22
ENDBRANCH  20  21
ENDBRANCH   3  20
TORSDOF 8
ENDMDL
MODEL 9
REMARK VINA RESULT:      -5.9      2.169      2.825
REMARK  Name = 
REMARK  8 active torsions:
REMARK  status: ('A' for Active; 'I' for Inactive)
REMARK    1  A    between atoms: C_3  and  C_4
REMARK    2  A    between atoms: N_6  and  C_12
REMARK    3  A    between atoms: C_15  and  O_17
REMARK    4  A    between atoms: C_18  and  C_20
REMARK    5  A    between atoms: C_20  and  O_21
REMARK    6  A    between atoms: O_21  and  P_22
REMARK    7  A    between atoms: P_22  and  O_23
REMARK    8  A    between atoms: P_22  and  O_24
REMARK                            x       y       z     vdW  Elec       q    Type
REMARK                         _______ _______ _______ _____ _____    ______ ____
ROOT
ATOM      1  C   UNL     1       9.114  -0.477  23.796  0.00  0.00    +0.226 C 
ATOM      2  O   UNL     1       8.420   0.567  24.509  0.00  0.00    -0.348 OA
ATOM      3  C   UNL     1       8.464   1.762  23.708  0.00  0.00    +0.175 C 
ATOM      4  C   UNL     1       9.371   1.466  22.512  0.00  0.00    +0.150 C 
ATOM      5  C   UNL     1       9.191  -0.024  22.349  0.00  0.00    +0.088 C 
ENDROOT
BRANCH   1  13
ATOM      6  C   UNL     1       6.351  -2.918  24.282  0.00  0.00    +0.056 A 
ATOM      7  C   UNL     1       7.125  -4.197  24.201  0.00  0.00    +0.261 A 
ATOM      8  O   UNL     1       6.576  -5.294  24.238  0.00  0.00    -0.267 OA
ATOM      9  N   UNL     1       8.479  -4.073  24.065  0.00  0.00    -0.274 N 
ATOM     10  H   UNL     1       9.012  -4.929  24.003  0.00  0.00    +0.173 HD
ATOM     11  C   UNL     1       9.177  -2.907  23.910  0.00  0.00    +0.331 A 
ATOM     12  O   UNL     1      10.389  -2.927  23.719  0.00  0.00    -0.246 OA
ATOM     13  N   UNL     1       8.419  -1.746  23.969  0.00  0.00    -0.273 N 
ATOM     14  C   UNL     1       7.048  -1.783  24.125  0.00  0.00    +0.106 A 
BRANCH   6  17
ATOM     15 BR   UNL     1       2.426  -3.155  25.799  0.00  0.00    -0.059 Br
ATOM     16  C   UNL     1       4.271  -3.106  25.615  0.00  0.00    +0.052 C 
ATOM     17  C   UNL     1       4.909  -2.960  24.446  0.00  0.00    +0.022 C 
ENDBRANCH   6  17
ENDBRANCH   1  13
BRANCH   4  18
ATOM     18  O   UNL     1       9.016   2.165  21.332  0.00  0.00    -0.389 OA
ATOM     19  H   UNL     1       8.984   3.119  21.517  0.00  0.00    +0.210 HD
ENDBRANCH   4  18
BRANCH   3  20
ATOM     20  C   UNL     1       8.945   2.916  24.575  0.00  0.00    +0.206 C 
BRANCH  20  21
ATOM     21  O   UNL     1       9.765   3.811  23.838  0.00  0.00    -0.284 OA
BRANCH  21  22
ATOM     22  P   UNL     1       9.112   5.413  23.842  0.00  0.00    +0.472 P 
ATOM     23  O   UNL     1       8.528   6.847  23.845  0.00  0.00    -0.228 OA
BRANCH  22  24
ATOM     24  O   UNL     1       8.326   4.924  22.490  0.00  0.00    -0.303 OA
ATOM     25  H   UNL     1       8.582   5.457  21.718  0.00  0.00    +0.222 HD
ENDBRANCH  22  24
BRANCH  22  26
ATOM     26  O   UNL     1      10.478   5.803  23.028  0.00  0.00    -0.303 OA
ATOM     27  H   UNL     1      10.229   5.803  22.085  0.00  0.00    +0.222 HD
ENDBRANCH  22  26
ENDBRANCH  21  22
ENDBRANCH  20  21
ENDBRANCH   3  20
TORSDOF 8
ENDMDL
