MODEL 1
REMARK VINA RESULT:      -7.7      0.000      0.000
REMARK  Name = 
REMARK  8 active torsions:
REMARK  status: ('A' for Active; 'I' for Inactive)
REMARK    1  A    between atoms: C_2  and  C_3
REMARK    2  A    between atoms: C_2  and  C_4
REMARK    3  A    between atoms: C_2  and  C_15
REMARK    4  A    between atoms: C_5  and  C_6
REMARK    5  A    between atoms: C_7  and  C_8
REMARK    6  A    between atoms: C_17  and  O_18
REMARK    7  A    between atoms: O_18  and  C_19
REMARK    8  A    between atoms: C_21  and  C_23
REMARK                            x       y       z     vdW  Elec       q    Type
REMARK                         _______ _______ _______ _____ _____    ______ ____
ROOT
ATOM      1  C   UNL     1       8.725  -1.609  22.881  0.00  0.00    +0.091 C 
ATOM      2  C   UNL     1      10.255  -1.654  22.941  0.00  0.00    +0.026 C 
ENDROOT
BRANCH   1   3
ATOM      3  C   UNL     1       8.210  -0.230  23.264  0.00  0.00    -0.029 A 
ATOM      4  C   UNL     1       9.076   0.879  23.232  0.00  0.00    +0.013 A 
ATOM      5  C   UNL     1       8.664   2.162  23.644  0.00  0.00    -0.014 A 
ATOM      6  C   UNL     1       7.332   2.304  24.081  0.00  0.00    +0.054 A 
ATOM      7  C   UNL     1       6.442   1.227  24.089  0.00  0.00    +0.121 A 
ATOM      8  C   UNL     1       6.887  -0.031  23.685  0.00  0.00    +0.050 A 
BRANCH   5   9
ATOM      9  C   UNL     1       9.597   3.319  23.636  0.00  0.00    -0.018 A 
ATOM     10  C   UNL     1       9.159   4.618  23.958  0.00  0.00    +0.008 A 
ATOM     11  C   UNL     1      10.040   5.706  23.980  0.00  0.00    +0.001 A 
ATOM     12  C   UNL     1      11.380   5.523  23.659  0.00  0.00    +0.000 A 
ATOM     13  C   UNL     1      11.840   4.255  23.323  0.00  0.00    +0.001 A 
ATOM     14  C   UNL     1      10.960   3.167  23.320  0.00  0.00    +0.008 A 
ENDBRANCH   5   9
BRANCH   7  15
ATOM     15  O   UNL     1       5.129   1.273  24.477  0.00  0.00    -0.495 OA
ATOM     16  C   UNL     1       4.577   2.559  24.728  0.00  0.00    +0.277 C 
ENDBRANCH   7  15
ENDBRANCH   1   3
BRANCH   1  17
ATOM     17  C   UNL     1       8.150  -2.671  23.728  0.00  0.00    -0.089 C 
ATOM     18  C   UNL     1       7.652  -3.499  24.446  0.00  0.00    -0.060 C 
BRANCH  18  19
ATOM     19  C   UNL     1       6.989  -4.433  25.308  0.00  0.00    +0.085 A 
ATOM     20  C   UNL     1       7.669  -5.165  26.274  0.00  0.00    +0.137 A 
ATOM     21  N   UNL     1       9.033  -4.975  26.529  0.00  0.00    -0.342 N 
ATOM     22  H   UNL     1       9.582  -5.016  25.678  0.00  0.00    +0.144 HD
ATOM     23  H   UNL     1       9.317  -5.672  27.212  0.00  0.00    +0.144 HD
ATOM     24  N   UNL     1       7.066  -6.066  27.069  0.00  0.00    -0.199 NA
ATOM     25  C   UNL     1       5.760  -6.258  26.879  0.00  0.00    +0.215 A 
ATOM     26  N   UNL     1       5.125  -7.190  27.673  0.00  0.00    -0.327 N 
ATOM     27  H   UNL     1       5.636  -7.314  28.535  0.00  0.00    +0.145 HD
ATOM     28  H   UNL     1       4.143  -6.961  27.742  0.00  0.00    +0.145 HD
ATOM     29  N   UNL     1       5.008  -5.592  26.002  0.00  0.00    -0.219 NA
ATOM     30  C   UNL     1       5.629  -4.685  25.211  0.00  0.00    +0.060 A 
ATOM     31  C   UNL     1       4.727  -3.977  24.241  0.00  0.00    +0.067 C 
ENDBRANCH  18  19
ENDBRANCH   1  17
TORSDOF 5
ENDMDL
MODEL 2
REMARK VINA RESULT:      -7.7      2.908      4.514
REMARK  Name = 
REMARK  8 active torsions:
REMARK  status: ('A' for Active; 'I' for Inactive)
REMARK    1  A    between atoms: C_2  and  C_3
REMARK    2  A    between atoms: C_2  and  C_4
REMARK    3  A    between atoms: C_2  and  C_15
REMARK    4  A    between atoms: C_5  and  C_6
REMARK    5  A    between atoms: C_7  and  C_8
REMARK    6  A    between atoms: C_17  and  O_18
REMARK    7  A    between atoms: O_18  and  C_19
REMARK    8  A    between atoms: C_21  and  C_23
REMARK                            x       y       z     vdW  Elec       q    Type
REMARK                         _______ _______ _______ _____ _____    ______ ____
ROOT
ATOM      1  C   UNL     1       8.391  -5.211  25.440  0.00  0.00    +0.091 C 
ATOM      2  C   UNL     1       9.445  -4.618  26.380  0.00  0.00    +0.026 C 
ENDROOT
BRANCH   1   3
ATOM      3  C   UNL     1       8.146  -4.289  24.255  0.00  0.00    -0.029 A 
ATOM      4  C   UNL     1       8.790  -3.040  24.189  0.00  0.00    +0.013 A 
ATOM      5  C   UNL     1       8.541  -2.124  23.148  0.00  0.00    -0.014 A 
ATOM      6  C   UNL     1       7.624  -2.511  22.151  0.00  0.00    +0.054 A 
ATOM      7  C   UNL     1       6.997  -3.759  22.174  0.00  0.00    +0.121 A 
ATOM      8  C   UNL     1       7.258  -4.636  23.226  0.00  0.00    +0.050 A 
BRANCH   5   9
ATOM      9  C   UNL     1       9.204  -0.794  23.106  0.00  0.00    -0.018 A 
ATOM     10  C   UNL     1       9.182   0.002  21.945  0.00  0.00    +0.008 A 
ATOM     11  C   UNL     1       9.780   1.267  21.909  0.00  0.00    +0.001 A 
ATOM     12  C   UNL     1      10.435   1.759  23.032  0.00  0.00    +0.000 A 
ATOM     13  C   UNL     1      10.486   0.991  24.190  0.00  0.00    +0.001 A 
ATOM     14  C   UNL     1       9.871  -0.266  24.227  0.00  0.00    +0.008 A 
ENDBRANCH   5   9
BRANCH   7  15
ATOM     15  O   UNL     1       6.109  -4.229  21.244  0.00  0.00    -0.495 OA
ATOM     16  C   UNL     1       6.141  -5.624  20.970  0.00  0.00    +0.277 C 
ENDBRANCH   7  15
ENDBRANCH   1   3
BRANCH   1  17
ATOM     17  C   UNL     1       7.151  -5.502  26.182  0.00  0.00    -0.089 C 
ATOM     18  C   UNL     1       6.154  -5.792  26.792  0.00  0.00    -0.060 C 
BRANCH  18  19
ATOM     19  C   UNL     1       5.012  -6.203  27.556  0.00  0.00    +0.085 A 
ATOM     20  C   UNL     1       5.131  -6.893  28.757  0.00  0.00    +0.137 A 
ATOM     21  N   UNL     1       6.374  -7.155  29.345  0.00  0.00    -0.342 N 
ATOM     22  H   UNL     1       7.017  -7.582  28.688  0.00  0.00    +0.144 HD
ATOM     23  H   UNL     1       6.210  -7.734  30.164  0.00  0.00    +0.144 HD
ATOM     24  N   UNL     1       4.070  -7.310  29.469  0.00  0.00    -0.199 NA
ATOM     25  C   UNL     1       2.864  -7.056  28.959  0.00  0.00    +0.215 A 
ATOM     26  N   UNL     1       1.763  -7.491  29.665  0.00  0.00    -0.327 N 
ATOM     27  H   UNL     1       1.998  -7.592  30.642  0.00  0.00    +0.145 HD
ATOM     28  H   UNL     1       0.965  -6.914  29.435  0.00  0.00    +0.145 HD
ATOM     29  N   UNL     1       2.637  -6.380  27.832  0.00  0.00    -0.219 NA
ATOM     30  C   UNL     1       3.716  -5.962  27.127  0.00  0.00    +0.060 A 
ATOM     31  C   UNL     1       3.390  -5.215  25.866  0.00  0.00    +0.067 C 
ENDBRANCH  18  19
ENDBRANCH   1  17
TORSDOF 5
ENDMDL
MODEL 3
REMARK VINA RESULT:      -7.6      0.731      1.909
REMARK  Name = 
REMARK  8 active torsions:
REMARK  status: ('A' for Active; 'I' for Inactive)
REMARK    1  A    between atoms: C_2  and  C_3
REMARK    2  A    between atoms: C_2  and  C_4
REMARK    3  A    between atoms: C_2  and  C_15
REMARK    4  A    between atoms: C_5  and  C_6
REMARK    5  A    between atoms: C_7  and  C_8
REMARK    6  A    between atoms: C_17  and  O_18
REMARK    7  A    between atoms: O_18  and  C_19
REMARK    8  A    between atoms: C_21  and  C_23
REMARK                            x       y       z     vdW  Elec       q    Type
REMARK                         _______ _______ _______ _____ _____    ______ ____
ROOT
ATOM      1  C   UNL     1       8.652  -1.440  22.501  0.00  0.00    +0.091 C 
ATOM      2  C   UNL     1      10.182  -1.500  22.477  0.00  0.00    +0.026 C 
ENDROOT
BRANCH   1   3
ATOM      3  C   UNL     1       8.172  -0.084  22.995  0.00  0.00    -0.029 A 
ATOM      4  C   UNL     1       9.056   1.011  23.019  0.00  0.00    +0.013 A 
ATOM      5  C   UNL     1       8.678   2.267  23.532  0.00  0.00    -0.014 A 
ATOM      6  C   UNL     1       7.360   2.398  24.014  0.00  0.00    +0.054 A 
ATOM      7  C   UNL     1       6.452   1.338  23.970  0.00  0.00    +0.121 A 
ATOM      8  C   UNL     1       6.864   0.105  23.465  0.00  0.00    +0.050 A 
BRANCH   5   9
ATOM      9  C   UNL     1       9.631   3.407  23.581  0.00  0.00    -0.018 A 
ATOM     10  C   UNL     1      11.003   3.230  23.318  0.00  0.00    +0.008 A 
ATOM     11  C   UNL     1      11.898   4.305  23.336  0.00  0.00    +0.001 A 
ATOM     12  C   UNL     1      11.445   5.585  23.637  0.00  0.00    +0.000 A 
ATOM     13  C   UNL     1      10.098   5.789  23.914  0.00  0.00    +0.001 A 
ATOM     14  C   UNL     1       9.203   4.714  23.879  0.00  0.00    +0.008 A 
ENDBRANCH   5   9
BRANCH   7  15
ATOM     15  O   UNL     1       5.151   1.377  24.396  0.00  0.00    -0.495 OA
ATOM     16  C   UNL     1       4.874   2.164  25.548  0.00  0.00    +0.277 C 
ENDBRANCH   7  15
ENDBRANCH   1   3
BRANCH   1  17
ATOM     17  C   UNL     1       8.111  -2.549  23.309  0.00  0.00    -0.089 C 
ATOM     18  C   UNL     1       7.634  -3.419  23.991  0.00  0.00    -0.060 C 
BRANCH  18  19
ATOM     19  C   UNL     1       6.989  -4.410  24.801  0.00  0.00    +0.085 A 
ATOM     20  C   UNL     1       5.708  -4.876  24.526  0.00  0.00    +0.137 A 
ATOM     21  N   UNL     1       4.996  -4.472  23.390  0.00  0.00    -0.342 N 
ATOM     22  H   UNL     1       4.975  -3.462  23.300  0.00  0.00    +0.144 HD
ATOM     23  H   UNL     1       4.067  -4.878  23.449  0.00  0.00    +0.144 HD
ATOM     24  N   UNL     1       5.079  -5.783  25.293  0.00  0.00    -0.199 NA
ATOM     25  C   UNL     1       5.732  -6.217  26.371  0.00  0.00    +0.215 A 
ATOM     26  N   UNL     1       5.098  -7.135  27.181  0.00  0.00    -0.327 N 
ATOM     27  H   UNL     1       4.403  -7.640  26.651  0.00  0.00    +0.145 HD
ATOM     28  H   UNL     1       5.789  -7.679  27.680  0.00  0.00    +0.145 HD
ATOM     29  N   UNL     1       6.971  -5.858  26.712  0.00  0.00    -0.219 NA
ATOM     30  C   UNL     1       7.593  -4.946  25.928  0.00  0.00    +0.060 A 
ATOM     31  C   UNL     1       8.980  -4.581  26.371  0.00  0.00    +0.067 C 
ENDBRANCH  18  19
ENDBRANCH   1  17
TORSDOF 5
ENDMDL
MODEL 4
REMARK VINA RESULT:      -7.4      1.984      2.798
REMARK  Name = 
REMARK  8 active torsions:
REMARK  status: ('A' for Active; 'I' for Inactive)
REMARK    1  A    between atoms: C_2  and  C_3
REMARK    2  A    between atoms: C_2  and  C_4
REMARK    3  A    between atoms: C_2  and  C_15
REMARK    4  A    between atoms: C_5  and  C_6
REMARK    5  A    between atoms: C_7  and  C_8
REMARK    6  A    between atoms: C_17  and  O_18
REMARK    7  A    between atoms: O_18  and  C_19
REMARK    8  A    between atoms: C_21  and  C_23
REMARK                            x       y       z     vdW  Elec       q    Type
REMARK                         _______ _______ _______ _____ _____    ______ ____
ROOT
ATOM      1  C   UNL     1       8.637  -0.914  26.611  0.00  0.00    +0.091 C 
ATOM      2  C   UNL     1       7.885   0.116  27.460  0.00  0.00    +0.026 C 
ENDROOT
BRANCH   1   3
ATOM      3  C   UNL     1       9.011  -0.329  25.258  0.00  0.00    -0.029 A 
ATOM      4  C   UNL     1       9.433   1.010  25.161  0.00  0.00    +0.013 A 
ATOM      5  C   UNL     1       9.722   1.616  23.923  0.00  0.00    -0.014 A 
ATOM      6  C   UNL     1       9.588   0.821  22.767  0.00  0.00    +0.054 A 
ATOM      7  C   UNL     1       9.205  -0.520  22.838  0.00  0.00    +0.121 A 
ATOM      8  C   UNL     1       8.915  -1.084  24.080  0.00  0.00    +0.050 A 
BRANCH   5   9
ATOM      9  C   UNL     1      10.136   3.040  23.830  0.00  0.00    -0.018 A 
ATOM     10  C   UNL     1      11.425   3.404  23.396  0.00  0.00    +0.008 A 
ATOM     11  C   UNL     1      11.810   4.745  23.281  0.00  0.00    +0.001 A 
ATOM     12  C   UNL     1      10.918   5.757  23.618  0.00  0.00    +0.000 A 
ATOM     13  C   UNL     1       9.642   5.430  24.062  0.00  0.00    +0.001 A 
ATOM     14  C   UNL     1       9.256   4.088  24.160  0.00  0.00    +0.008 A 
ENDBRANCH   5   9
BRANCH   7  15
ATOM     15  O   UNL     1       9.066  -1.373  21.775  0.00  0.00    -0.495 OA
ATOM     16  C   UNL     1       8.177  -2.471  21.942  0.00  0.00    +0.277 C 
ENDBRANCH   7  15
ENDBRANCH   1   3
BRANCH   1  17
ATOM     17  C   UNL     1       7.841  -2.148  26.481  0.00  0.00    -0.089 C 
ATOM     18  C   UNL     1       7.148  -3.129  26.397  0.00  0.00    -0.060 C 
BRANCH  18  19
ATOM     19  C   UNL     1       6.253  -4.244  26.288  0.00  0.00    +0.085 A 
ATOM     20  C   UNL     1       6.611  -5.526  26.687  0.00  0.00    +0.137 A 
ATOM     21  N   UNL     1       7.838  -5.798  27.305  0.00  0.00    -0.342 N 
ATOM     22  H   UNL     1       8.615  -5.420  26.775  0.00  0.00    +0.144 HD
ATOM     23  H   UNL     1       7.903  -6.804  27.428  0.00  0.00    +0.144 HD
ATOM     24  N   UNL     1       5.794  -6.586  26.564  0.00  0.00    -0.199 NA
ATOM     25  C   UNL     1       4.602  -6.367  26.007  0.00  0.00    +0.215 A 
ATOM     26  N   UNL     1       3.755  -7.444  25.856  0.00  0.00    -0.327 N 
ATOM     27  H   UNL     1       3.986  -8.161  26.528  0.00  0.00    +0.145 HD
ATOM     28  H   UNL     1       2.798  -7.119  25.831  0.00  0.00    +0.145 HD
ATOM     29  N   UNL     1       4.149  -5.175  25.615  0.00  0.00    -0.219 NA
ATOM     30  C   UNL     1       4.982  -4.116  25.749  0.00  0.00    +0.060 A 
ATOM     31  C   UNL     1       4.412  -2.808  25.281  0.00  0.00    +0.067 C 
ENDBRANCH  18  19
ENDBRANCH   1  17
TORSDOF 5
ENDMDL
MODEL 5
REMARK VINA RESULT:      -7.2      4.169      9.215
REMARK  Name = 
REMARK  8 active torsions:
REMARK  status: ('A' for Active; 'I' for Inactive)
REMARK    1  A    between atoms: C_2  and  C_3
REMARK    2  A    between atoms: C_2  and  C_4
REMARK    3  A    between atoms: C_2  and  C_15
REMARK    4  A    between atoms: C_5  and  C_6
REMARK    5  A    between atoms: C_7  and  C_8
REMARK    6  A    between atoms: C_17  and  O_18
REMARK    7  A    between atoms: O_18  and  C_19
REMARK    8  A    between atoms: C_21  and  C_23
REMARK                            x       y       z     vdW  Elec       q    Type
REMARK                         _______ _______ _______ _____ _____    ______ ____
ROOT
ATOM      1  C   UNL     1       7.806  -4.846  23.225  0.00  0.00    +0.091 C 
ATOM      2  C   UNL     1       7.117  -5.056  21.874  0.00  0.00    +0.026 C 
ENDROOT
BRANCH   1   3
ATOM      3  C   UNL     1       6.901  -5.286  24.366  0.00  0.00    -0.029 A 
ATOM      4  C   UNL     1       5.552  -5.598  24.116  0.00  0.00    +0.013 A 
ATOM      5  C   UNL     1       4.659  -5.943  25.150  0.00  0.00    -0.014 A 
ATOM      6  C   UNL     1       5.173  -5.981  26.461  0.00  0.00    +0.054 A 
ATOM      7  C   UNL     1       6.516  -5.710  26.733  0.00  0.00    +0.121 A 
ATOM      8  C   UNL     1       7.369  -5.361  25.686  0.00  0.00    +0.050 A 
BRANCH   5   9
ATOM      9  C   UNL     1       3.229  -6.239  24.877  0.00  0.00    -0.018 A 
ATOM     10  C   UNL     1       2.253  -5.224  24.887  0.00  0.00    +0.008 A 
ATOM     11  C   UNL     1       0.909  -5.494  24.603  0.00  0.00    +0.001 A 
ATOM     12  C   UNL     1       0.504  -6.794  24.320  0.00  0.00    +0.000 A 
ATOM     13  C   UNL     1       1.442  -7.820  24.315  0.00  0.00    +0.001 A 
ATOM     14  C   UNL     1       2.788  -7.543  24.583  0.00  0.00    +0.008 A 
ENDBRANCH   5   9
BRANCH   7  15
ATOM     15  O   UNL     1       7.107  -5.740  27.968  0.00  0.00    -0.495 OA
ATOM     16  C   UNL     1       6.353  -6.312  29.029  0.00  0.00    +0.277 C 
ENDBRANCH   7  15
ENDBRANCH   1   3
BRANCH   1  17
ATOM     17  C   UNL     1       8.235  -3.443  23.367  0.00  0.00    -0.089 C 
ATOM     18  C   UNL     1       8.634  -2.311  23.463  0.00  0.00    -0.060 C 
BRANCH  18  19
ATOM     19  C   UNL     1       9.164  -0.980  23.509  0.00  0.00    +0.085 A 
ATOM     20  C   UNL     1       9.617  -0.320  22.372  0.00  0.00    +0.137 A 
ATOM     21  N   UNL     1       9.503  -0.879  21.092  0.00  0.00    -0.342 N 
ATOM     22  H   UNL     1       9.875  -1.822  21.061  0.00  0.00    +0.144 HD
ATOM     23  H   UNL     1       9.971  -0.253  20.442  0.00  0.00    +0.144 HD
ATOM     24  N   UNL     1      10.143   0.916  22.403  0.00  0.00    -0.199 NA
ATOM     25  C   UNL     1      10.243   1.498  23.599  0.00  0.00    +0.215 A 
ATOM     26  N   UNL     1      10.796   2.760  23.656  0.00  0.00    -0.327 N 
ATOM     27  H   UNL     1      10.691   3.222  22.765  0.00  0.00    +0.145 HD
ATOM     28  H   UNL     1      10.452   3.242  24.475  0.00  0.00    +0.145 HD
ATOM     29  N   UNL     1       9.816   0.967  24.746  0.00  0.00    -0.219 NA
ATOM     30  C   UNL     1       9.285  -0.277  24.698  0.00  0.00    +0.060 A 
ATOM     31  C   UNL     1       8.832  -0.817  26.024  0.00  0.00    +0.067 C 
ENDBRANCH  18  19
ENDBRANCH   1  17
TORSDOF 5
ENDMDL
MODEL 6
REMARK VINA RESULT:      -7.1      1.910      2.768
REMARK  Name = 
REMARK  8 active torsions:
REMARK  status: ('A' for Active; 'I' for Inactive)
REMARK    1  A    between atoms: C_2  and  C_3
REMARK    2  A    between atoms: C_2  and  C_4
REMARK    3  A    between atoms: C_2  and  C_15
REMARK    4  A    between atoms: C_5  and  C_6
REMARK    5  A    between atoms: C_7  and  C_8
REMARK    6  A    between atoms: C_17  and  O_18
REMARK    7  A    between atoms: O_18  and  C_19
REMARK    8  A    between atoms: C_21  and  C_23
REMARK                            x       y       z     vdW  Elec       q    Type
REMARK                         _______ _______ _______ _____ _____    ______ ____
ROOT
ATOM      1  C   UNL     1       8.718  -0.795  25.504  0.00  0.00    +0.091 C 
ATOM      2  C   UNL     1       8.571  -0.650  27.021  0.00  0.00    +0.026 C 
ENDROOT
BRANCH   1   3
ATOM      3  C   UNL     1       8.362   0.505  24.800  0.00  0.00    -0.029 A 
ATOM      4  C   UNL     1       9.336   1.506  24.630  0.00  0.00    +0.013 A 
ATOM      5  C   UNL     1       9.036   2.752  24.048  0.00  0.00    -0.014 A 
ATOM      6  C   UNL     1       7.710   2.963  23.619  0.00  0.00    +0.054 A 
ATOM      7  C   UNL     1       6.732   1.974  23.744  0.00  0.00    +0.121 A 
ATOM      8  C   UNL     1       7.062   0.756  24.335  0.00  0.00    +0.050 A 
BRANCH   5   9
ATOM      9  C   UNL     1      10.067   3.813  23.903  0.00  0.00    -0.018 A 
ATOM     10  C   UNL     1      11.329   3.540  23.342  0.00  0.00    +0.008 A 
ATOM     11  C   UNL     1      12.293   4.542  23.178  0.00  0.00    +0.001 A 
ATOM     12  C   UNL     1      12.024   5.842  23.592  0.00  0.00    +0.000 A 
ATOM     13  C   UNL     1      10.791   6.140  24.162  0.00  0.00    +0.001 A 
ATOM     14  C   UNL     1       9.824   5.139  24.308  0.00  0.00    +0.008 A 
ENDBRANCH   5   9
BRANCH   7  15
ATOM     15  O   UNL     1       5.427   2.081  23.341  0.00  0.00    -0.495 OA
ATOM     16  C   UNL     1       4.494   2.559  24.301  0.00  0.00    +0.277 C 
ENDBRANCH   7  15
ENDBRANCH   1   3
BRANCH   1  17
ATOM     17  C   UNL     1       7.909  -1.929  25.019  0.00  0.00    -0.089 C 
ATOM     18  C   UNL     1       7.204  -2.824  24.630  0.00  0.00    -0.060 C 
BRANCH  18  19
ATOM     19  C   UNL     1       6.307  -3.829  24.141  0.00  0.00    +0.085 A 
ATOM     20  C   UNL     1       5.526  -3.639  23.006  0.00  0.00    +0.137 A 
ATOM     21  N   UNL     1       5.629  -2.488  22.215  0.00  0.00    -0.342 N 
ATOM     22  H   UNL     1       5.561  -1.643  22.773  0.00  0.00    +0.144 HD
ATOM     23  H   UNL     1       4.911  -2.542  21.499  0.00  0.00    +0.144 HD
ATOM     24  N   UNL     1       4.659  -4.559  22.552  0.00  0.00    -0.199 NA
ATOM     25  C   UNL     1       4.549  -5.685  23.259  0.00  0.00    +0.215 A 
ATOM     26  N   UNL     1       3.652  -6.636  22.820  0.00  0.00    -0.327 N 
ATOM     27  H   UNL     1       3.491  -6.525  21.830  0.00  0.00    +0.145 HD
ATOM     28  H   UNL     1       3.941  -7.548  23.146  0.00  0.00    +0.145 HD
ATOM     29  N   UNL     1       5.268  -5.980  24.343  0.00  0.00    -0.219 NA
ATOM     30  C   UNL     1       6.141  -5.044  24.787  0.00  0.00    +0.060 A 
ATOM     31  C   UNL     1       6.911  -5.437  26.015  0.00  0.00    +0.067 C 
ENDBRANCH  18  19
ENDBRANCH   1  17
TORSDOF 5
ENDMDL
MODEL 7
REMARK VINA RESULT:      -7.1      3.946      9.311
REMARK  Name = 
REMARK  8 active torsions:
REMARK  status: ('A' for Active; 'I' for Inactive)
REMARK    1  A    between atoms: C_2  and  C_3
REMARK    2  A    between atoms: C_2  and  C_4
REMARK    3  A    between atoms: C_2  and  C_15
REMARK    4  A    between atoms: C_5  and  C_6
REMARK    5  A    between atoms: C_7  and  C_8
REMARK    6  A    between atoms: C_17  and  O_18
REMARK    7  A    between atoms: O_18  and  C_19
REMARK    8  A    between atoms: C_21  and  C_23
REMARK                            x       y       z     vdW  Elec       q    Type
REMARK                         _______ _______ _______ _____ _____    ______ ____
ROOT
ATOM      1  C   UNL     1       8.128  -3.958  26.051  0.00  0.00    +0.091 C 
ATOM      2  C   UNL     1       9.322  -4.849  26.405  0.00  0.00    +0.026 C 
ENDROOT
BRANCH   1   3
ATOM      3  C   UNL     1       7.193  -4.668  25.085  0.00  0.00    -0.029 A 
ATOM      4  C   UNL     1       6.004  -5.255  25.556  0.00  0.00    +0.013 A 
ATOM      5  C   UNL     1       5.142  -5.982  24.712  0.00  0.00    -0.014 A 
ATOM      6  C   UNL     1       5.506  -6.091  23.355  0.00  0.00    +0.054 A 
ATOM      7  C   UNL     1       6.662  -5.488  22.854  0.00  0.00    +0.121 A 
ATOM      8  C   UNL     1       7.498  -4.786  23.721  0.00  0.00    +0.050 A 
BRANCH   5   9
ATOM      9  C   UNL     1       3.905  -6.625  25.229  0.00  0.00    -0.018 A 
ATOM     10  C   UNL     1       3.162  -7.527  24.443  0.00  0.00    +0.008 A 
ATOM     11  C   UNL     1       2.013  -8.156  24.935  0.00  0.00    +0.001 A 
ATOM     12  C   UNL     1       1.566  -7.881  26.223  0.00  0.00    +0.000 A 
ATOM     13  C   UNL     1       2.271  -6.985  27.018  0.00  0.00    +0.001 A 
ATOM     14  C   UNL     1       3.429  -6.371  26.529  0.00  0.00    +0.008 A 
ENDBRANCH   5   9
BRANCH   7  15
ATOM     15  O   UNL     1       7.086  -5.524  21.552  0.00  0.00    -0.495 OA
ATOM     16  C   UNL     1       6.126  -5.897  20.572  0.00  0.00    +0.277 C 
ENDBRANCH   7  15
ENDBRANCH   1   3
BRANCH   1  17
ATOM     17  C   UNL     1       8.595  -2.664  25.522  0.00  0.00    -0.089 C 
ATOM     18  C   UNL     1       8.946  -1.615  25.046  0.00  0.00    -0.060 C 
BRANCH  18  19
ATOM     19  C   UNL     1       9.285  -0.362  24.438  0.00  0.00    +0.085 A 
ATOM     20  C   UNL     1       8.959   0.859  25.018  0.00  0.00    +0.137 A 
ATOM     21  N   UNL     1       8.356   0.946  26.280  0.00  0.00    -0.342 N 
ATOM     22  H   UNL     1       7.536   0.353  26.344  0.00  0.00    +0.144 HD
ATOM     23  H   UNL     1       8.146   1.925  26.452  0.00  0.00    +0.144 HD
ATOM     24  N   UNL     1       9.244   2.041  24.446  0.00  0.00    -0.199 NA
ATOM     25  C   UNL     1       9.845   2.005  23.256  0.00  0.00    +0.215 A 
ATOM     26  N   UNL     1      10.131   3.207  22.643  0.00  0.00    -0.327 N 
ATOM     27  H   UNL     1      10.203   3.937  23.336  0.00  0.00    +0.145 HD
ATOM     28  H   UNL     1      10.910   3.086  22.011  0.00  0.00    +0.145 HD
ATOM     29  N   UNL     1      10.225   0.894  22.624  0.00  0.00    -0.219 NA
ATOM     30  C   UNL     1       9.935  -0.290  23.215  0.00  0.00    +0.060 A 
ATOM     31  C   UNL     1      10.383  -1.500  22.448  0.00  0.00    +0.067 C 
ENDBRANCH  18  19
ENDBRANCH   1  17
TORSDOF 5
ENDMDL
MODEL 8
REMARK VINA RESULT:      -7.0      4.146      8.826
REMARK  Name = 
REMARK  8 active torsions:
REMARK  status: ('A' for Active; 'I' for Inactive)
REMARK    1  A    between atoms: C_2  and  C_3
REMARK    2  A    between atoms: C_2  and  C_4
REMARK    3  A    between atoms: C_2  and  C_15
REMARK    4  A    between atoms: C_5  and  C_6
REMARK    5  A    between atoms: C_7  and  C_8
REMARK    6  A    between atoms: C_17  and  O_18
REMARK    7  A    between atoms: O_18  and  C_19
REMARK    8  A    between atoms: C_21  and  C_23
REMARK                            x       y       z     vdW  Elec       q    Type
REMARK                         _______ _______ _______ _____ _____    ______ ____
ROOT
ATOM      1  C   UNL     1       7.264  -5.347  23.003  0.00  0.00    +0.091 C 
ATOM      2  C   UNL     1       7.168  -5.691  21.513  0.00  0.00    +0.026 C 
ENDROOT
BRANCH   1   3
ATOM      3  C   UNL     1       5.914  -5.511  23.682  0.00  0.00    -0.029 A 
ATOM      4  C   UNL     1       5.844  -5.710  25.074  0.00  0.00    +0.013 A 
ATOM      5  C   UNL     1       4.622  -5.937  25.737  0.00  0.00    -0.014 A 
ATOM      6  C   UNL     1       3.451  -5.941  24.953  0.00  0.00    +0.054 A 
ATOM      7  C   UNL     1       3.489  -5.710  23.576  0.00  0.00    +0.121 A 
ATOM      8  C   UNL     1       4.717  -5.501  22.950  0.00  0.00    +0.050 A 
BRANCH   5   9
ATOM      9  C   UNL     1       4.565  -6.178  27.203  0.00  0.00    -0.018 A 
ATOM     10  C   UNL     1       5.706  -6.041  28.016  0.00  0.00    +0.008 A 
ATOM     11  C   UNL     1       5.650  -6.240  29.400  0.00  0.00    +0.001 A 
ATOM     12  C   UNL     1       4.451  -6.602  30.004  0.00  0.00    +0.000 A 
ATOM     13  C   UNL     1       3.310  -6.759  29.226  0.00  0.00    +0.001 A 
ATOM     14  C   UNL     1       3.366  -6.542  27.844  0.00  0.00    +0.008 A 
ENDBRANCH   5   9
BRANCH   7  15
ATOM     15  O   UNL     1       2.406  -5.677  22.737  0.00  0.00    -0.495 OA
ATOM     16  C   UNL     1       1.173  -5.239  23.295  0.00  0.00    +0.277 C 
ENDBRANCH   7  15
ENDBRANCH   1   3
BRANCH   1  17
ATOM     17  C   UNL     1       7.813  -3.990  23.179  0.00  0.00    -0.089 C 
ATOM     18  C   UNL     1       8.304  -2.903  23.348  0.00  0.00    -0.060 C 
BRANCH  18  19
ATOM     19  C   UNL     1       8.968  -1.649  23.547  0.00  0.00    +0.085 A 
ATOM     20  C   UNL     1       9.552  -0.942  22.502  0.00  0.00    +0.137 A 
ATOM     21  N   UNL     1       9.452  -1.365  21.170  0.00  0.00    -0.342 N 
ATOM     22  H   UNL     1       9.723  -2.337  21.065  0.00  0.00    +0.144 HD
ATOM     23  H   UNL     1      10.019  -0.739  20.606  0.00  0.00    +0.144 HD
ATOM     24  N   UNL     1      10.203   0.220  22.677  0.00  0.00    -0.199 NA
ATOM     25  C   UNL     1      10.297   0.675  23.927  0.00  0.00    +0.215 A 
ATOM     26  N   UNL     1      10.976   1.858  24.132  0.00  0.00    -0.327 N 
ATOM     27  H   UNL     1      10.971   2.409  23.286  0.00  0.00    +0.145 HD
ATOM     28  H   UNL     1      10.639   2.298  24.977  0.00  0.00    +0.145 HD
ATOM     29  N   UNL     1       9.752   0.093  24.996  0.00  0.00    -0.219 NA
ATOM     30  C   UNL     1       9.095  -1.075  24.803  0.00  0.00    +0.060 A 
ATOM     31  C   UNL     1       8.514  -1.681  26.048  0.00  0.00    +0.067 C 
ENDBRANCH  18  19
ENDBRANCH   1  17
TORSDOF 5
ENDMDL
MODEL 9
REMARK VINA RESULT:      -6.9      4.541      8.764
REMARK  Name = 
REMARK  8 active torsions:
REMARK  status: ('A' for Active; 'I' for Inactive)
REMARK    1  A    between atoms: C_2  and  C_3
REMARK    2  A    between atoms: C_2  and  C_4
REMARK    3  A    between atoms: C_2  and  C_15
REMARK    4  A    between atoms: C_5  and  C_6
REMARK    5  A    between atoms: C_7  and  C_8
REMARK    6  A    between atoms: C_17  and  O_18
REMARK    7  A    between atoms: O_18  and  C_19
REMARK    8  A    between atoms: C_21  and  C_23
REMARK                            x       y       z     vdW  Elec       q    Type
REMARK                         _______ _______ _______ _____ _____    ______ ____
ROOT
ATOM      1  C   UNL     1       9.149  -1.762  24.206  0.00  0.00    +0.091 C 
ATOM      2  C   UNL     1      10.394  -1.869  23.321  0.00  0.00    +0.026 C 
ENDROOT
BRANCH   1   3
ATOM      3  C   UNL     1       8.242  -2.967  24.011  0.00  0.00    -0.029 A 
ATOM      4  C   UNL     1       7.667  -3.605  25.126  0.00  0.00    +0.013 A 
ATOM      5  C   UNL     1       6.878  -4.765  25.001  0.00  0.00    -0.014 A 
ATOM      6  C   UNL     1       6.667  -5.266  23.701  0.00  0.00    +0.054 A 
ATOM      7  C   UNL     1       7.197  -4.633  22.574  0.00  0.00    +0.121 A 
ATOM      8  C   UNL     1       7.983  -3.492  22.737  0.00  0.00    +0.050 A 
BRANCH   5   9
ATOM      9  C   UNL     1       6.302  -5.447  26.189  0.00  0.00    -0.018 A 
ATOM     10  C   UNL     1       5.107  -6.187  26.104  0.00  0.00    +0.008 A 
ATOM     11  C   UNL     1       4.576  -6.854  27.214  0.00  0.00    +0.001 A 
ATOM     12  C   UNL     1       5.219  -6.781  28.444  0.00  0.00    +0.000 A 
ATOM     13  C   UNL     1       6.395  -6.048  28.563  0.00  0.00    +0.001 A 
ATOM     14  C   UNL     1       6.931  -5.396  27.447  0.00  0.00    +0.008 A 
ENDBRANCH   5   9
BRANCH   7  15
ATOM     15  O   UNL     1       7.031  -5.033  21.275  0.00  0.00    -0.495 OA
ATOM     16  C   UNL     1       5.999  -5.978  21.020  0.00  0.00    +0.277 C 
ENDBRANCH   7  15
ENDBRANCH   1   3
BRANCH   1  17
ATOM     17  C   UNL     1       8.446  -0.491  23.947  0.00  0.00    -0.089 C 
ATOM     18  C   UNL     1       7.906   0.554  23.693  0.00  0.00    -0.060 C 
BRANCH  18  19
ATOM     19  C   UNL     1       7.286   1.788  23.307  0.00  0.00    +0.085 A 
ATOM     20  C   UNL     1       7.844   2.634  22.356  0.00  0.00    +0.137 A 
ATOM     21  N   UNL     1       9.004   2.296  21.647  0.00  0.00    -0.342 N 
ATOM     22  H   UNL     1       9.751   2.006  22.268  0.00  0.00    +0.144 HD
ATOM     23  H   UNL     1       9.259   3.096  21.076  0.00  0.00    +0.144 HD
ATOM     24  N   UNL     1       7.291   3.807  22.005  0.00  0.00    -0.199 NA
ATOM     25  C   UNL     1       6.168   4.156  22.635  0.00  0.00    +0.215 A 
ATOM     26  N   UNL     1       5.592   5.364  22.302  0.00  0.00    -0.327 N 
ATOM     27  H   UNL     1       5.872   5.633  21.370  0.00  0.00    +0.145 HD
ATOM     28  H   UNL     1       4.602   5.331  22.500  0.00  0.00    +0.145 HD
ATOM     29  N   UNL     1       5.535   3.409  23.540  0.00  0.00    -0.219 NA
ATOM     30  C   UNL     1       6.103   2.228  23.881  0.00  0.00    +0.060 A 
ATOM     31  C   UNL     1       5.345   1.441  24.911  0.00  0.00    +0.067 C 
ENDBRANCH  18  19
ENDBRANCH   1  17
TORSDOF 5
ENDMDL
