MODEL 1
REMARK VINA RESULT:      -4.6      0.000      0.000
REMARK  Name = 
REMARK  9 active torsions:
REMARK  status: ('A' for Active; 'I' for Inactive)
REMARK    1  A    between atoms: C_1  and  C_2
REMARK    2  A    between atoms: C_2  and  O_4
REMARK    3  A    between atoms: C_2  and  C_9
REMARK    4  A    between atoms: O_4  and  P_5
REMARK    5  A    between atoms: P_5  and  O_6
REMARK    6  A    between atoms: P_5  and  O_7
REMARK    7  A    between atoms: C_9  and  N_11
REMARK    8  A    between atoms: C_9  and  C_12
REMARK    9  A    between atoms: C_12  and  O_13
REMARK                            x       y       z     vdW  Elec       q    Type
REMARK                         _______ _______ _______ _____ _____    ______ ____
ROOT
ATOM      1  C   UNK     1       5.757  -5.677  25.499  0.00  0.00    +0.040 C 
ATOM      2  C   UNK     1       6.884  -4.824  24.932  0.00  0.00    +0.155 C 
ENDROOT
BRANCH   2   3
ATOM      3  C   UNK     1       8.083  -4.646  25.903  0.00  0.00    +0.190 C 
BRANCH   3   4
ATOM      4  N   UNK     1       8.099  -5.587  27.053  0.00  0.00    -0.316 NA
ATOM      5  H   UNK     1       8.885  -6.237  26.928  0.00  0.00    +0.119 HD
ATOM      6  H   UNK     1       8.352  -5.062  27.897  0.00  0.00    +0.119 HD
ENDBRANCH   3   4
BRANCH   3   7
ATOM      7  C   UNK     1       9.394  -4.772  25.124  0.00  0.00    +0.324 C 
ATOM      8  O   UNK     1       9.896  -3.849  24.494  0.00  0.00    -0.249 OA
BRANCH   7   9
ATOM      9  O   UNK     1       9.920  -6.017  25.211  0.00  0.00    -0.479 OA
ATOM     10  H   UNK     1       9.168  -6.660  25.198  0.00  0.00    +0.295 HD
ENDBRANCH   7   9
ENDBRANCH   3   7
ENDBRANCH   2   3
BRANCH   2  11
ATOM     11  O   UNK     1       7.299  -5.399  23.679  0.00  0.00    -0.282 OA
BRANCH  11  12
ATOM     12  P   UNK     1       6.445  -4.676  22.361  0.00  0.00    +0.473 P 
ATOM     13  O   UNK     1       5.681  -4.028  21.180  0.00  0.00    -0.228 OA
BRANCH  12  14
ATOM     14  O   UNK     1       7.242  -5.773  21.459  0.00  0.00    -0.303 OA
ATOM     15  H   UNK     1       7.516  -6.473  22.084  0.00  0.00    +0.222 HD
ENDBRANCH  12  14
BRANCH  12  16
ATOM     16  O   UNK     1       7.665  -3.588  22.371  0.00  0.00    -0.303 OA
ATOM     17  H   UNK     1       8.527  -4.054  22.305  0.00  0.00    +0.222 HD
ENDBRANCH  12  16
ENDBRANCH  11  12
ENDBRANCH   2  11
TORSDOF 8
ENDMDL
MODEL 2
REMARK VINA RESULT:      -4.5      5.305      6.512
REMARK  Name = 
REMARK  9 active torsions:
REMARK  status: ('A' for Active; 'I' for Inactive)
REMARK    1  A    between atoms: C_1  and  C_2
REMARK    2  A    between atoms: C_2  and  O_4
REMARK    3  A    between atoms: C_2  and  C_9
REMARK    4  A    between atoms: O_4  and  P_5
REMARK    5  A    between atoms: P_5  and  O_6
REMARK    6  A    between atoms: P_5  and  O_7
REMARK    7  A    between atoms: C_9  and  N_11
REMARK    8  A    between atoms: C_9  and  C_12
REMARK    9  A    between atoms: C_12  and  O_13
REMARK                            x       y       z     vdW  Elec       q    Type
REMARK                         _______ _______ _______ _____ _____    ______ ____
ROOT
ATOM      1  C   UNK     1       9.431  -0.539  25.310  0.00  0.00    +0.040 C 
ATOM      2  C   UNK     1      10.094  -0.319  23.955  0.00  0.00    +0.155 C 
ENDROOT
BRANCH   2   3
ATOM      3  C   UNK     1      10.196  -1.607  23.093  0.00  0.00    +0.190 C 
BRANCH   3   4
ATOM      4  N   UNK     1      10.066  -2.878  23.853  0.00  0.00    -0.316 NA
ATOM      5  H   UNK     1      10.286  -3.657  23.219  0.00  0.00    +0.119 HD
ATOM      6  H   UNK     1      10.817  -2.916  24.550  0.00  0.00    +0.119 HD
ENDBRANCH   3   4
BRANCH   3   7
ATOM      7  C   UNK     1       9.140  -1.565  21.986  0.00  0.00    +0.324 C 
ATOM      8  O   UNK     1       8.072  -2.161  22.049  0.00  0.00    -0.249 OA
BRANCH   7   9
ATOM      9  O   UNK     1       9.533  -0.801  20.939  0.00  0.00    -0.479 OA
ATOM     10  H   UNK     1       9.525  -1.374  20.133  0.00  0.00    +0.295 HD
ENDBRANCH   7   9
ENDBRANCH   3   7
ENDBRANCH   2   3
BRANCH   2  11
ATOM     11  O   UNK     1       9.378   0.723  23.266  0.00  0.00    -0.282 OA
BRANCH  11  12
ATOM     12  P   UNK     1      10.280   2.199  23.284  0.00  0.00    +0.473 P 
ATOM     13  O   UNK     1      11.086   3.520  23.299  0.00  0.00    -0.228 OA
BRANCH  12  14
ATOM     14  O   UNK     1       8.820   2.893  23.485  0.00  0.00    -0.303 OA
ATOM     15  H   UNK     1       8.596   2.760  24.427  0.00  0.00    +0.222 HD
ENDBRANCH  12  14
BRANCH  12  16
ATOM     16  O   UNK     1      10.168   2.105  21.655  0.00  0.00    -0.303 OA
ATOM     17  H   UNK     1       9.894   1.199  21.392  0.00  0.00    +0.222 HD
ENDBRANCH  12  16
ENDBRANCH  11  12
ENDBRANCH   2  11
TORSDOF 8
ENDMDL
MODEL 3
REMARK VINA RESULT:      -4.4      2.736      3.239
REMARK  Name = 
REMARK  9 active torsions:
REMARK  status: ('A' for Active; 'I' for Inactive)
REMARK    1  A    between atoms: C_1  and  C_2
REMARK    2  A    between atoms: C_2  and  O_4
REMARK    3  A    between atoms: C_2  and  C_9
REMARK    4  A    between atoms: O_4  and  P_5
REMARK    5  A    between atoms: P_5  and  O_6
REMARK    6  A    between atoms: P_5  and  O_7
REMARK    7  A    between atoms: C_9  and  N_11
REMARK    8  A    between atoms: C_9  and  C_12
REMARK    9  A    between atoms: C_12  and  O_13
REMARK                            x       y       z     vdW  Elec       q    Type
REMARK                         _______ _______ _______ _____ _____    ______ ____
ROOT
ATOM      1  C   UNK     1       7.560  -5.071  23.085  0.00  0.00    +0.040 C 
ATOM      2  C   UNK     1       8.318  -4.383  24.214  0.00  0.00    +0.155 C 
ENDROOT
BRANCH   2   3
ATOM      3  C   UNK     1       8.783  -5.352  25.336  0.00  0.00    +0.190 C 
BRANCH   3   4
ATOM      4  N   UNK     1      10.251  -5.580  25.394  0.00  0.00    -0.316 NA
ATOM      5  H   UNK     1      10.450  -6.505  24.994  0.00  0.00    +0.119 HD
ATOM      6  H   UNK     1      10.705  -4.933  24.741  0.00  0.00    +0.119 HD
ENDBRANCH   3   4
BRANCH   3   7
ATOM      7  C   UNK     1       8.293  -4.837  26.691  0.00  0.00    +0.324 C 
ATOM      8  O   UNK     1       8.249  -3.649  26.985  0.00  0.00    -0.249 OA
BRANCH   7   9
ATOM      9  O   UNK     1       7.925  -5.846  27.516  0.00  0.00    -0.479 OA
ATOM     10  H   UNK     1       7.013  -5.647  27.841  0.00  0.00    +0.295 HD
ENDBRANCH   7   9
ENDBRANCH   3   7
ENDBRANCH   2   3
BRANCH   2  11
ATOM     11  O   UNK     1       9.427  -3.665  23.642  0.00  0.00    -0.282 OA
BRANCH  11  12
ATOM     12  P   UNK     1       8.963  -2.052  23.225  0.00  0.00    +0.473 P 
ATOM     13  O   UNK     1       8.547  -0.608  22.852  0.00  0.00    -0.228 OA
BRANCH  12  14
ATOM     14  O   UNK     1      10.485  -1.937  22.660  0.00  0.00    -0.303 OA
ATOM     15  H   UNK     1      10.416  -2.076  21.695  0.00  0.00    +0.222 HD
ENDBRANCH  12  14
BRANCH  12  16
ATOM     16  O   UNK     1       9.360  -1.704  24.773  0.00  0.00    -0.303 OA
ATOM     17  H   UNK     1      10.166  -1.144  24.791  0.00  0.00    +0.222 HD
ENDBRANCH  12  16
ENDBRANCH  11  12
ENDBRANCH   2  11
TORSDOF 8
ENDMDL
MODEL 4
REMARK VINA RESULT:      -4.4      5.926      7.032
REMARK  Name = 
REMARK  9 active torsions:
REMARK  status: ('A' for Active; 'I' for Inactive)
REMARK    1  A    between atoms: C_1  and  C_2
REMARK    2  A    between atoms: C_2  and  O_4
REMARK    3  A    between atoms: C_2  and  C_9
REMARK    4  A    between atoms: O_4  and  P_5
REMARK    5  A    between atoms: P_5  and  O_6
REMARK    6  A    between atoms: P_5  and  O_7
REMARK    7  A    between atoms: C_9  and  N_11
REMARK    8  A    between atoms: C_9  and  C_12
REMARK    9  A    between atoms: C_12  and  O_13
REMARK                            x       y       z     vdW  Elec       q    Type
REMARK                         _______ _______ _______ _____ _____    ______ ____
ROOT
ATOM      1  C   UNK     1      10.428   0.806  24.338  0.00  0.00    +0.040 C 
ATOM      2  C   UNK     1       9.094   1.195  23.713  0.00  0.00    +0.155 C 
ENDROOT
BRANCH   2   3
ATOM      3  C   UNK     1       9.191   2.390  22.725  0.00  0.00    +0.190 C 
BRANCH   3   4
ATOM      4  N   UNK     1      10.431   2.422  21.905  0.00  0.00    -0.316 NA
ATOM      5  H   UNK     1      10.948   3.279  22.137  0.00  0.00    +0.119 HD
ATOM      6  H   UNK     1      11.051   1.672  22.227  0.00  0.00    +0.119 HD
ENDBRANCH   3   4
BRANCH   3   7
ATOM      7  C   UNK     1       7.970   2.390  21.803  0.00  0.00    +0.324 C 
ATOM      8  O   UNK     1       6.953   3.034  22.030  0.00  0.00    -0.249 OA
BRANCH   7   9
ATOM      9  O   UNK     1       8.150   1.595  20.721  0.00  0.00    -0.479 OA
ATOM     10  H   UNK     1       8.708   2.093  20.075  0.00  0.00    +0.295 HD
ENDBRANCH   7   9
ENDBRANCH   3   7
ENDBRANCH   2   3
BRANCH   2  11
ATOM     11  O   UNK     1       8.535   0.030  23.080  0.00  0.00    -0.282 OA
BRANCH  11  12
ATOM     12  P   UNK     1       9.739  -1.195  22.881  0.00  0.00    +0.473 P 
ATOM     13  O   UNK     1      10.818  -2.292  22.703  0.00  0.00    -0.228 OA
BRANCH  12  14
ATOM     14  O   UNK     1       9.745  -0.705  21.328  0.00  0.00    -0.303 OA
ATOM     15  H   UNK     1       8.861  -0.938  20.979  0.00  0.00    +0.222 HD
ENDBRANCH  12  14
BRANCH  12  16
ATOM     16  O   UNK     1       8.464  -2.203  22.707  0.00  0.00    -0.303 OA
ATOM     17  H   UNK     1       7.860  -1.859  22.012  0.00  0.00    +0.222 HD
ENDBRANCH  12  16
ENDBRANCH  11  12
ENDBRANCH   2  11
TORSDOF 8
ENDMDL
MODEL 5
REMARK VINA RESULT:      -4.4      6.053      6.976
REMARK  Name = 
REMARK  9 active torsions:
REMARK  status: ('A' for Active; 'I' for Inactive)
REMARK    1  A    between atoms: C_1  and  C_2
REMARK    2  A    between atoms: C_2  and  O_4
REMARK    3  A    between atoms: C_2  and  C_9
REMARK    4  A    between atoms: O_4  and  P_5
REMARK    5  A    between atoms: P_5  and  O_6
REMARK    6  A    between atoms: P_5  and  O_7
REMARK    7  A    between atoms: C_9  and  N_11
REMARK    8  A    between atoms: C_9  and  C_12
REMARK    9  A    between atoms: C_12  and  O_13
REMARK                            x       y       z     vdW  Elec       q    Type
REMARK                         _______ _______ _______ _____ _____    ______ ____
ROOT
ATOM      1  C   UNK     1      10.204   0.221  24.906  0.00  0.00    +0.040 C 
ATOM      2  C   UNK     1       9.431   0.846  23.751  0.00  0.00    +0.155 C 
ENDROOT
BRANCH   2   3
ATOM      3  C   UNK     1      10.227   1.939  22.986  0.00  0.00    +0.190 C 
BRANCH   3   4
ATOM      4  N   UNK     1       9.911   2.041  21.537  0.00  0.00    -0.316 NA
ATOM      5  H   UNK     1      10.145   1.145  21.092  0.00  0.00    +0.119 HD
ATOM      6  H   UNK     1       8.893   2.104  21.431  0.00  0.00    +0.119 HD
ENDBRANCH   3   4
BRANCH   3   7
ATOM      7  C   UNK     1      10.000   3.297  23.654  0.00  0.00    +0.324 C 
ATOM      8  O   UNK     1       9.110   3.508  24.469  0.00  0.00    -0.249 OA
BRANCH   7   9
ATOM      9  O   UNK     1      10.891   4.226  23.232  0.00  0.00    -0.479 OA
ATOM     10  H   UNK     1      11.724   4.096  23.750  0.00  0.00    +0.295 HD
ENDBRANCH   7   9
ENDBRANCH   3   7
ENDBRANCH   2   3
BRANCH   2  11
ATOM     11  O   UNK     1       9.002  -0.209  22.871  0.00  0.00    -0.282 OA
BRANCH  11  12
ATOM     12  P   UNK     1       9.682  -1.724  23.356  0.00  0.00    +0.473 P 
ATOM     13  O   UNK     1      10.291  -3.080  23.789  0.00  0.00    -0.228 OA
BRANCH  12  14
ATOM     14  O   UNK     1      10.387  -1.688  21.888  0.00  0.00    -0.303 OA
ATOM     15  H   UNK     1      11.348  -1.651  22.062  0.00  0.00    +0.222 HD
ENDBRANCH  12  14
BRANCH  12  16
ATOM     16  O   UNK     1       8.271  -2.352  22.820  0.00  0.00    -0.303 OA
ATOM     17  H   UNK     1       8.445  -2.982  22.086  0.00  0.00    +0.222 HD
ENDBRANCH  12  16
ENDBRANCH  11  12
ENDBRANCH   2  11
TORSDOF 8
ENDMDL
MODEL 6
REMARK VINA RESULT:      -4.4      2.663      4.357
REMARK  Name = 
REMARK  9 active torsions:
REMARK  status: ('A' for Active; 'I' for Inactive)
REMARK    1  A    between atoms: C_1  and  C_2
REMARK    2  A    between atoms: C_2  and  O_4
REMARK    3  A    between atoms: C_2  and  C_9
REMARK    4  A    between atoms: O_4  and  P_5
REMARK    5  A    between atoms: P_5  and  O_6
REMARK    6  A    between atoms: P_5  and  O_7
REMARK    7  A    between atoms: C_9  and  N_11
REMARK    8  A    between atoms: C_9  and  C_12
REMARK    9  A    between atoms: C_12  and  O_13
REMARK                            x       y       z     vdW  Elec       q    Type
REMARK                         _______ _______ _______ _____ _____    ______ ____
ROOT
ATOM      1  C   UNK     1       6.359  -5.176  24.473  0.00  0.00    +0.040 C 
ATOM      2  C   UNK     1       7.230  -5.718  23.346  0.00  0.00    +0.155 C 
ENDROOT
BRANCH   2   3
ATOM      3  C   UNK     1       6.778  -5.260  21.932  0.00  0.00    +0.190 C 
BRANCH   3   4
ATOM      4  N   UNK     1       5.587  -5.969  21.397  0.00  0.00    -0.316 NA
ATOM      5  H   UNK     1       5.911  -6.774  20.847  0.00  0.00    +0.119 HD
ATOM      6  H   UNK     1       5.087  -6.399  22.183  0.00  0.00    +0.119 HD
ENDBRANCH   3   4
BRANCH   3   7
ATOM      7  C   UNK     1       6.511  -3.753  21.946  0.00  0.00    +0.324 C 
ATOM      8  O   UNK     1       5.404  -3.262  21.764  0.00  0.00    -0.249 OA
BRANCH   7   9
ATOM      9  O   UNK     1       7.639  -3.039  22.174  0.00  0.00    -0.479 OA
ATOM     10  H   UNK     1       7.784  -2.452  21.390  0.00  0.00    +0.295 HD
ENDBRANCH   7   9
ENDBRANCH   3   7
ENDBRANCH   2   3
BRANCH   2  11
ATOM     11  O   UNK     1       8.595  -5.346  23.611  0.00  0.00    -0.282 OA
BRANCH  11  12
ATOM     12  P   UNK     1       8.780  -4.825  25.250  0.00  0.00    +0.473 P 
ATOM     13  O   UNK     1       8.945  -4.358  26.717  0.00  0.00    -0.228 OA
BRANCH  12  14
ATOM     14  O   UNK     1       9.490  -3.521  24.581  0.00  0.00    -0.303 OA
ATOM     15  H   UNK     1       8.935  -2.760  24.843  0.00  0.00    +0.222 HD
ENDBRANCH  12  14
BRANCH  12  16
ATOM     16  O   UNK     1      10.129  -5.747  25.228  0.00  0.00    -0.303 OA
ATOM     17  H   UNK     1       9.884  -6.695  25.150  0.00  0.00    +0.222 HD
ENDBRANCH  12  16
ENDBRANCH  11  12
ENDBRANCH   2  11
TORSDOF 8
ENDMDL
MODEL 7
REMARK VINA RESULT:      -4.3      5.119      5.927
REMARK  Name = 
REMARK  9 active torsions:
REMARK  status: ('A' for Active; 'I' for Inactive)
REMARK    1  A    between atoms: C_1  and  C_2
REMARK    2  A    between atoms: C_2  and  O_4
REMARK    3  A    between atoms: C_2  and  C_9
REMARK    4  A    between atoms: O_4  and  P_5
REMARK    5  A    between atoms: P_5  and  O_6
REMARK    6  A    between atoms: P_5  and  O_7
REMARK    7  A    between atoms: C_9  and  N_11
REMARK    8  A    between atoms: C_9  and  C_12
REMARK    9  A    between atoms: C_12  and  O_13
REMARK                            x       y       z     vdW  Elec       q    Type
REMARK                         _______ _______ _______ _____ _____    ______ ____
ROOT
ATOM      1  C   UNK     1       8.730   1.180  24.850  0.00  0.00    +0.040 C 
ATOM      2  C   UNK     1       9.621   0.123  24.208  0.00  0.00    +0.155 C 
ENDROOT
BRANCH   2   3
ATOM      3  C   UNK     1       8.903  -1.231  23.957  0.00  0.00    +0.190 C 
BRANCH   3   4
ATOM      4  N   UNK     1       7.652  -1.136  23.160  0.00  0.00    -0.316 NA
ATOM      5  H   UNK     1       7.880  -1.335  22.177  0.00  0.00    +0.119 HD
ATOM      6  H   UNK     1       7.039  -1.912  23.427  0.00  0.00    +0.119 HD
ENDBRANCH   3   4
BRANCH   3   7
ATOM      7  C   UNK     1       9.870  -2.202  23.274  0.00  0.00    +0.324 C 
ATOM      8  O   UNK     1      10.349  -3.181  23.833  0.00  0.00    -0.249 OA
BRANCH   7   9
ATOM      9  O   UNK     1      10.130  -1.844  21.994  0.00  0.00    -0.479 OA
ATOM     10  H   UNK     1       9.785  -2.562  21.408  0.00  0.00    +0.295 HD
ENDBRANCH   7   9
ENDBRANCH   3   7
ENDBRANCH   2   3
BRANCH   2  11
ATOM     11  O   UNK     1      10.163   0.668  22.991  0.00  0.00    -0.282 OA
BRANCH  11  12
ATOM     12  P   UNK     1       9.097   1.856  22.325  0.00  0.00    +0.473 P 
ATOM     13  O   UNK     1       8.142   2.920  21.729  0.00  0.00    -0.228 OA
BRANCH  12  14
ATOM     14  O   UNK     1       8.980   0.813  21.081  0.00  0.00    -0.303 OA
ATOM     15  H   UNK     1       9.483   1.222  20.350  0.00  0.00    +0.222 HD
ENDBRANCH  12  14
BRANCH  12  16
ATOM     16  O   UNK     1      10.470   2.562  21.788  0.00  0.00    -0.303 OA
ATOM     17  H   UNK     1      10.609   2.344  20.841  0.00  0.00    +0.222 HD
ENDBRANCH  12  16
ENDBRANCH  11  12
ENDBRANCH   2  11
TORSDOF 8
ENDMDL
MODEL 8
REMARK VINA RESULT:      -4.3      3.100      4.284
REMARK  Name = 
REMARK  9 active torsions:
REMARK  status: ('A' for Active; 'I' for Inactive)
REMARK    1  A    between atoms: C_1  and  C_2
REMARK    2  A    between atoms: C_2  and  O_4
REMARK    3  A    between atoms: C_2  and  C_9
REMARK    4  A    between atoms: O_4  and  P_5
REMARK    5  A    between atoms: P_5  and  O_6
REMARK    6  A    between atoms: P_5  and  O_7
REMARK    7  A    between atoms: C_9  and  N_11
REMARK    8  A    between atoms: C_9  and  C_12
REMARK    9  A    between atoms: C_12  and  O_13
REMARK                            x       y       z     vdW  Elec       q    Type
REMARK                         _______ _______ _______ _____ _____    ______ ____
ROOT
ATOM      1  C   UNK     1       6.442  -1.648  23.502  0.00  0.00    +0.040 C 
ATOM      2  C   UNK     1       7.274  -2.907  23.289  0.00  0.00    +0.155 C 
ENDROOT
BRANCH   2   3
ATOM      3  C   UNK     1       6.442  -4.135  22.827  0.00  0.00    +0.190 C 
BRANCH   3   4
ATOM      4  N   UNK     1       5.731  -3.956  21.534  0.00  0.00    -0.316 NA
ATOM      5  H   UNK     1       4.760  -3.684  21.735  0.00  0.00    +0.119 HD
ATOM      6  H   UNK     1       6.119  -3.132  21.063  0.00  0.00    +0.119 HD
ENDBRANCH   3   4
BRANCH   3   7
ATOM      7  C   UNK     1       7.350  -5.364  22.744  0.00  0.00    +0.324 C 
ATOM      8  O   UNK     1       7.148  -6.301  21.981  0.00  0.00    -0.249 OA
BRANCH   7   9
ATOM      9  O   UNK     1       8.387  -5.290  23.612  0.00  0.00    -0.479 OA
ATOM     10  H   UNK     1       8.255  -5.993  24.294  0.00  0.00    +0.295 HD
ENDBRANCH   7   9
ENDBRANCH   3   7
ENDBRANCH   2   3
BRANCH   2  11
ATOM     11  O   UNK     1       8.326  -2.600  22.356  0.00  0.00    -0.282 OA
BRANCH  11  12
ATOM     12  P   UNK     1       9.473  -1.516  23.063  0.00  0.00    +0.473 P 
ATOM     13  O   UNK     1      10.501  -0.545  23.695  0.00  0.00    -0.228 OA
BRANCH  12  14
ATOM     14  O   UNK     1      10.218  -1.626  21.619  0.00  0.00    -0.303 OA
ATOM     15  H   UNK     1       9.533  -1.941  20.996  0.00  0.00    +0.222 HD
ENDBRANCH  12  14
BRANCH  12  16
ATOM     16  O   UNK     1      10.148  -2.874  23.673  0.00  0.00    -0.303 OA
ATOM     17  H   UNK     1      10.460  -3.449  22.940  0.00  0.00    +0.222 HD
ENDBRANCH  12  16
ENDBRANCH  11  12
ENDBRANCH   2  11
TORSDOF 8
ENDMDL
MODEL 9
REMARK VINA RESULT:      -4.2      2.975      4.100
REMARK  Name = 
REMARK  9 active torsions:
REMARK  status: ('A' for Active; 'I' for Inactive)
REMARK    1  A    between atoms: C_1  and  C_2
REMARK    2  A    between atoms: C_2  and  O_4
REMARK    3  A    between atoms: C_2  and  C_9
REMARK    4  A    between atoms: O_4  and  P_5
REMARK    5  A    between atoms: P_5  and  O_6
REMARK    6  A    between atoms: P_5  and  O_7
REMARK    7  A    between atoms: C_9  and  N_11
REMARK    8  A    between atoms: C_9  and  C_12
REMARK    9  A    between atoms: C_12  and  O_13
REMARK                            x       y       z     vdW  Elec       q    Type
REMARK                         _______ _______ _______ _____ _____    ______ ____
ROOT
ATOM      1  C   UNK     1       6.718  -4.428  23.788  0.00  0.00    +0.040 C 
ATOM      2  C   UNK     1       8.071  -3.962  23.264  0.00  0.00    +0.155 C 
ENDROOT
BRANCH   2   3
ATOM      3  C   UNK     1       8.142  -2.436  22.985  0.00  0.00    +0.190 C 
BRANCH   3   4
ATOM      4  N   UNK     1       7.197  -1.611  23.783  0.00  0.00    -0.316 NA
ATOM      5  H   UNK     1       7.745  -0.978  24.378  0.00  0.00    +0.119 HD
ATOM      6  H   UNK     1       6.704  -0.977  23.146  0.00  0.00    +0.119 HD
ENDBRANCH   3   4
BRANCH   3   7
ATOM      7  C   UNK     1       9.571  -1.940  23.215  0.00  0.00    +0.324 C 
ATOM      8  O   UNK     1      10.417  -1.888  22.331  0.00  0.00    -0.249 OA
BRANCH   7   9
ATOM      9  O   UNK     1       9.782  -1.578  24.503  0.00  0.00    -0.479 OA
ATOM     10  H   UNK     1      10.386  -2.250  24.906  0.00  0.00    +0.295 HD
ENDBRANCH   7   9
ENDBRANCH   3   7
ENDBRANCH   2   3
BRANCH   2  11
ATOM     11  O   UNK     1       9.084  -4.375  24.200  0.00  0.00    -0.282 OA
BRANCH  11  12
ATOM     12  P   UNK     1       8.367  -5.108  25.593  0.00  0.00    +0.473 P 
ATOM     13  O   UNK     1       7.726  -5.764  26.841  0.00  0.00    -0.228 OA
BRANCH  12  14
ATOM     14  O   UNK     1       8.943  -3.800  26.373  0.00  0.00    -0.303 OA
ATOM     15  H   UNK     1       9.576  -3.385  25.754  0.00  0.00    +0.222 HD
ENDBRANCH  12  14
BRANCH  12  16
ATOM     16  O   UNK     1       9.766  -5.950  25.679  0.00  0.00    -0.303 OA
ATOM     17  H   UNK     1       9.589  -6.906  25.543  0.00  0.00    +0.222 HD
ENDBRANCH  12  16
ENDBRANCH  11  12
ENDBRANCH   2  11
TORSDOF 8
ENDMDL
