MODEL 1
REMARK VINA RESULT:      -6.9      0.000      0.000
REMARK  Name = 
REMARK  7 active torsions:
REMARK  status: ('A' for Active; 'I' for Inactive)
REMARK    1  A    between atoms: C_1  and  O_2
REMARK    2  A    between atoms: O_2  and  C_3
REMARK    3  A    between atoms: N_12  and  C1*_13
REMARK    4  A    between atoms: C4*_16  and  C5*_18
REMARK    5  A    between atoms: C5*_18  and  O5*_19
REMARK    6  A    between atoms: C3*_20  and  O3*_22
REMARK    7  A    between atoms: C2*_23  and  O2*_25
REMARK                            x       y       z     vdW  Elec       q    Type
REMARK                         _______ _______ _______ _____ _____    ______ ____
ROOT
ATOM      1  C   UNL     1       7.023  -4.500  24.438  0.00  0.00    +0.247 A 
ATOM      2  C   UNL     1       7.331  -3.226  23.955  0.00  0.00    +0.169 A 
ATOM      3  N   UNL     1       6.622  -2.254  23.287  0.00  0.00    -0.229 NA
ATOM      4  C   UNL     1       7.499  -1.306  23.038  0.00  0.00    +0.203 A 
ATOM      5  N   UNL     1       8.744  -1.611  23.527  0.00  0.00    -0.285 N 
ATOM      6  C   UNL     1       8.643  -2.824  24.149  0.00  0.00    +0.171 A 
ATOM      7  N   UNL     1       9.618  -3.528  24.741  0.00  0.00    -0.195 NA
ATOM      8  C   UNL     1       9.222  -4.745  25.132  0.00  0.00    +0.218 A 
ATOM      9  N   UNL     1      10.206  -5.600  25.593  0.00  0.00    -0.327 N 
ATOM     10  H   UNL     1      11.106  -5.327  25.226  0.00  0.00    +0.145 HD
ATOM     11  H   UNL     1       9.918  -6.553  25.408  0.00  0.00    +0.145 HD
ATOM     12  N   UNL     1       7.998  -5.260  25.002  0.00  0.00    -0.178 NA
ENDROOT
BRANCH   5  13
ATOM     13  C1* UNL     1       9.937  -0.847  23.236  0.00  0.00    +0.253 C 
ATOM     14  C2* UNL     1      10.028  -0.037  21.944  0.00  0.00    +0.195 C 
ATOM     15  C3* UNL     1       9.587   1.367  22.346  0.00  0.00    +0.178 C 
ATOM     16  C4* UNL     1       9.780   1.418  23.864  0.00  0.00    +0.177 C 
ATOM     17  O4* UNL     1      10.136   0.089  24.320  0.00  0.00    -0.346 OA
BRANCH  14  18
ATOM     18  O2* UNL     1       9.337  -0.598  20.836  0.00  0.00    -0.385 OA
ATOM     19  H2* UNL     1       8.404  -0.321  20.889  0.00  0.00    +0.210 HD
ENDBRANCH  14  18
BRANCH  15  20
ATOM     20  O3* UNL     1      10.406   2.340  21.679  0.00  0.00    -0.386 OA
ATOM     21  H3* UNL     1      10.798   1.935  20.883  0.00  0.00    +0.210 HD
ENDBRANCH  15  20
BRANCH  16  22
ATOM     22  C5* UNL     1       8.529   1.891  24.617  0.00  0.00    +0.190 C 
BRANCH  22  23
ATOM     23  O5* UNL     1       8.402   1.184  25.850  0.00  0.00    -0.392 OA
ATOM     24  H5* UNL     1       7.565   0.686  25.789  0.00  0.00    +0.210 HD
ENDBRANCH  22  23
ENDBRANCH  16  22
ENDBRANCH   5  13
BRANCH   1  26
ATOM     25  C   UNL     1       5.704  -5.828  23.064  0.00  0.00    +0.279 C 
ATOM     26  O   UNL     1       5.766  -5.041  24.249  0.00  0.00    -0.478 OA
ENDBRANCH   1  26
TORSDOF 6
ENDMDL
MODEL 2
REMARK VINA RESULT:      -6.5      2.204      5.945
REMARK  Name = 
REMARK  7 active torsions:
REMARK  status: ('A' for Active; 'I' for Inactive)
REMARK    1  A    between atoms: C_1  and  O_2
REMARK    2  A    between atoms: O_2  and  C_3
REMARK    3  A    between atoms: N_12  and  C1*_13
REMARK    4  A    between atoms: C4*_16  and  C5*_18
REMARK    5  A    between atoms: C5*_18  and  O5*_19
REMARK    6  A    between atoms: C3*_20  and  O3*_22
REMARK    7  A    between atoms: C2*_23  and  O2*_25
REMARK                            x       y       z     vdW  Elec       q    Type
REMARK                         _______ _______ _______ _____ _____    ______ ____
ROOT
ATOM      1  C   UNL     1       9.317  -2.762  23.895  0.00  0.00    +0.247 A 
ATOM      2  C   UNL     1       8.041  -2.739  23.328  0.00  0.00    +0.169 A 
ATOM      3  N   UNL     1       7.293  -1.781  22.684  0.00  0.00    -0.229 NA
ATOM      4  C   UNL     1       6.130  -2.353  22.458  0.00  0.00    +0.203 A 
ATOM      5  N   UNL     1       6.094  -3.648  22.913  0.00  0.00    -0.285 N 
ATOM      6  C   UNL     1       7.325  -3.920  23.441  0.00  0.00    +0.171 A 
ATOM      7  N   UNL     1       7.733  -5.052  24.031  0.00  0.00    -0.195 NA
ATOM      8  C   UNL     1       8.954  -4.950  24.571  0.00  0.00    +0.218 A 
ATOM      9  N   UNL     1       9.380  -6.012  25.347  0.00  0.00    -0.327 N 
ATOM     10  H   UNL     1       8.587  -6.530  25.696  0.00  0.00    +0.145 HD
ATOM     11  H   UNL     1      10.028  -5.663  26.043  0.00  0.00    +0.145 HD
ATOM     12  N   UNL     1       9.747  -3.877  24.542  0.00  0.00    -0.178 NA
ENDROOT
BRANCH   5  13
ATOM     13  C1* UNL     1       4.893  -4.451  22.971  0.00  0.00    +0.253 C 
ATOM     14  C2* UNL     1       4.979  -5.965  22.785  0.00  0.00    +0.195 C 
ATOM     15  C3* UNL     1       5.058  -6.518  24.204  0.00  0.00    +0.178 C 
ATOM     16  C4* UNL     1       4.498  -5.401  25.090  0.00  0.00    +0.177 C 
ATOM     17  O4* UNL     1       4.278  -4.233  24.260  0.00  0.00    -0.346 OA
BRANCH  14  18
ATOM     18  O2* UNL     1       6.003  -6.403  21.903  0.00  0.00    -0.385 OA
ATOM     19  H2* UNL     1       6.864  -6.163  22.295  0.00  0.00    +0.210 HD
ENDBRANCH  14  18
BRANCH  15  20
ATOM     20  O3* UNL     1       4.269  -7.713  24.303  0.00  0.00    -0.386 OA
ATOM     21  H3* UNL     1       4.786  -8.400  24.764  0.00  0.00    +0.210 HD
ENDBRANCH  15  20
BRANCH  16  22
ATOM     22  C5* UNL     1       5.428  -5.026  26.253  0.00  0.00    +0.190 C 
BRANCH  22  23
ATOM     23  O5* UNL     1       6.349  -6.087  26.505  0.00  0.00    -0.392 OA
ATOM     24  H5* UNL     1       6.611  -5.997  27.441  0.00  0.00    +0.210 HD
ENDBRANCH  22  23
ENDBRANCH  16  22
ENDBRANCH   5  13
BRANCH   1  26
ATOM     25  C   UNL     1       9.710  -0.719  24.926  0.00  0.00    +0.279 C 
ATOM     26  O   UNL     1      10.106  -1.628  23.904  0.00  0.00    -0.478 OA
ENDBRANCH   1  26
TORSDOF 6
ENDMDL
MODEL 3
REMARK VINA RESULT:      -6.4      1.784      2.859
REMARK  Name = 
REMARK  7 active torsions:
REMARK  status: ('A' for Active; 'I' for Inactive)
REMARK    1  A    between atoms: C_1  and  O_2
REMARK    2  A    between atoms: O_2  and  C_3
REMARK    3  A    between atoms: N_12  and  C1*_13
REMARK    4  A    between atoms: C4*_16  and  C5*_18
REMARK    5  A    between atoms: C5*_18  and  O5*_19
REMARK    6  A    between atoms: C3*_20  and  O3*_22
REMARK    7  A    between atoms: C2*_23  and  O2*_25
REMARK                            x       y       z     vdW  Elec       q    Type
REMARK                         _______ _______ _______ _____ _____    ______ ____
ROOT
ATOM      1  C   UNL     1       7.742  -4.811  24.594  0.00  0.00    +0.247 A 
ATOM      2  C   UNL     1       8.563  -3.799  24.090  0.00  0.00    +0.169 A 
ATOM      3  N   UNL     1       9.860  -3.407  24.330  0.00  0.00    -0.229 NA
ATOM      4  C   UNL     1      10.029  -2.329  23.595  0.00  0.00    +0.203 A 
ATOM      5  N   UNL     1       8.904  -2.011  22.876  0.00  0.00    -0.285 N 
ATOM      6  C   UNL     1       7.968  -2.966  23.157  0.00  0.00    +0.171 A 
ATOM      7  N   UNL     1       6.708  -3.039  22.705  0.00  0.00    -0.195 NA
ATOM      8  C   UNL     1       6.002  -4.020  23.280  0.00  0.00    +0.218 A 
ATOM      9  N   UNL     1       4.648  -4.056  23.001  0.00  0.00    -0.327 N 
ATOM     10  H   UNL     1       4.326  -3.143  22.716  0.00  0.00    +0.145 HD
ATOM     11  H   UNL     1       4.168  -4.474  23.789  0.00  0.00    +0.145 HD
ATOM     12  N   UNL     1       6.446  -4.886  24.193  0.00  0.00    -0.178 NA
ENDROOT
BRANCH   5  13
ATOM     13  C1* UNL     1       8.738  -0.780  22.135  0.00  0.00    +0.253 C 
ATOM     14  C2* UNL     1       7.713   0.255  22.596  0.00  0.00    +0.195 C 
ATOM     15  C3* UNL     1       8.516   1.228  23.453  0.00  0.00    +0.178 C 
ATOM     16  C4* UNL     1       9.970   1.022  23.020  0.00  0.00    +0.177 C 
ATOM     17  O4* UNL     1      10.017  -0.105  22.110  0.00  0.00    -0.346 OA
BRANCH  14  18
ATOM     18  O2* UNL     1       6.553  -0.285  23.212  0.00  0.00    -0.385 OA
ATOM     19  H2* UNL     1       6.763  -0.466  24.147  0.00  0.00    +0.210 HD
ENDBRANCH  14  18
BRANCH  15  20
ATOM     20  O3* UNL     1       8.076   2.571  23.199  0.00  0.00    -0.386 OA
ATOM     21  H3* UNL     1       8.794   3.191  23.428  0.00  0.00    +0.210 HD
ENDBRANCH  15  20
BRANCH  16  22
ATOM     22  C5* UNL     1      10.921   0.762  24.197  0.00  0.00    +0.190 C 
BRANCH  22  23
ATOM     23  O5* UNL     1      10.184   0.693  25.416  0.00  0.00    -0.392 OA
ATOM     24  H5* UNL     1      10.330   1.547  25.866  0.00  0.00    +0.210 HD
ENDBRANCH  22  23
ENDBRANCH  16  22
ENDBRANCH   5  13
BRANCH   1  26
ATOM     25  C   UNL     1       7.778  -5.252  26.872  0.00  0.00    +0.279 C 
ATOM     26  O   UNL     1       8.198  -5.667  25.577  0.00  0.00    -0.478 OA
ENDBRANCH   1  26
TORSDOF 6
ENDMDL
MODEL 4
REMARK VINA RESULT:      -6.2      2.067      6.014
REMARK  Name = 
REMARK  7 active torsions:
REMARK  status: ('A' for Active; 'I' for Inactive)
REMARK    1  A    between atoms: C_1  and  O_2
REMARK    2  A    between atoms: O_2  and  C_3
REMARK    3  A    between atoms: N_12  and  C1*_13
REMARK    4  A    between atoms: C4*_16  and  C5*_18
REMARK    5  A    between atoms: C5*_18  and  O5*_19
REMARK    6  A    between atoms: C3*_20  and  O3*_22
REMARK    7  A    between atoms: C2*_23  and  O2*_25
REMARK                            x       y       z     vdW  Elec       q    Type
REMARK                         _______ _______ _______ _____ _____    ______ ____
ROOT
ATOM      1  C   UNL     1       9.890  -0.454  24.029  0.00  0.00    +0.247 A 
ATOM      2  C   UNL     1       9.115  -1.526  23.580  0.00  0.00    +0.169 A 
ATOM      3  N   UNL     1       8.856  -2.073  22.345  0.00  0.00    -0.229 NA
ATOM      4  C   UNL     1       7.977  -3.024  22.573  0.00  0.00    +0.203 A 
ATOM      5  N   UNL     1       7.663  -3.131  23.905  0.00  0.00    -0.285 N 
ATOM      6  C   UNL     1       8.413  -2.199  24.567  0.00  0.00    +0.171 A 
ATOM      7  N   UNL     1       8.408  -1.922  25.878  0.00  0.00    -0.195 NA
ATOM      8  C   UNL     1       9.154  -0.856  26.191  0.00  0.00    +0.218 A 
ATOM      9  N   UNL     1       9.068  -0.397  27.493  0.00  0.00    -0.327 N 
ATOM     10  H   UNL     1       8.195  -0.689  27.908  0.00  0.00    +0.145 HD
ATOM     11  H   UNL     1       9.254   0.598  27.497  0.00  0.00    +0.145 HD
ATOM     12  N   UNL     1       9.873  -0.116  25.345  0.00  0.00    -0.178 NA
ENDROOT
BRANCH   5  13
ATOM     13  C1* UNL     1       6.593  -3.954  24.420  0.00  0.00    +0.253 C 
ATOM     14  C2* UNL     1       5.142  -3.622  24.077  0.00  0.00    +0.195 C 
ATOM     15  C3* UNL     1       4.829  -4.496  22.867  0.00  0.00    +0.178 C 
ATOM     16  C4* UNL     1       5.873  -5.614  22.912  0.00  0.00    +0.177 C 
ATOM     17  O4* UNL     1       6.820  -5.308  23.966  0.00  0.00    -0.346 OA
BRANCH  14  18
ATOM     18  O2* UNL     1       4.867  -2.238  23.916  0.00  0.00    -0.385 OA
ATOM     19  H2* UNL     1       5.658  -1.814  23.534  0.00  0.00    +0.210 HD
ENDBRANCH  14  18
BRANCH  15  20
ATOM     20  O3* UNL     1       3.495  -5.016  22.978  0.00  0.00    -0.386 OA
ATOM     21  H3* UNL     1       3.436  -5.853  22.480  0.00  0.00    +0.210 HD
ENDBRANCH  15  20
BRANCH  16  22
ATOM     22  C5* UNL     1       6.631  -5.789  21.588  0.00  0.00    +0.190 C 
BRANCH  22  23
ATOM     23  O5* UNL     1       5.937  -5.123  20.535  0.00  0.00    -0.392 OA
ATOM     24  H5* UNL     1       5.848  -5.777  19.816  0.00  0.00    +0.210 HD
ENDBRANCH  22  23
ENDBRANCH  16  22
ENDBRANCH   5  13
BRANCH   1  26
ATOM     25  C   UNL     1       9.800   1.430  22.675  0.00  0.00    +0.279 C 
ATOM     26  O   UNL     1      10.587   0.336  23.136  0.00  0.00    -0.478 OA
ENDBRANCH   1  26
TORSDOF 6
ENDMDL
MODEL 5
REMARK VINA RESULT:      -6.1      2.356      5.655
REMARK  Name = 
REMARK  7 active torsions:
REMARK  status: ('A' for Active; 'I' for Inactive)
REMARK    1  A    between atoms: C_1  and  O_2
REMARK    2  A    between atoms: O_2  and  C_3
REMARK    3  A    between atoms: N_12  and  C1*_13
REMARK    4  A    between atoms: C4*_16  and  C5*_18
REMARK    5  A    between atoms: C5*_18  and  O5*_19
REMARK    6  A    between atoms: C3*_20  and  O3*_22
REMARK    7  A    between atoms: C2*_23  and  O2*_25
REMARK                            x       y       z     vdW  Elec       q    Type
REMARK                         _______ _______ _______ _____ _____    ______ ____
ROOT
ATOM      1  C   UNL     1       8.657  -0.326  23.739  0.00  0.00    +0.247 A 
ATOM      2  C   UNL     1       8.423  -1.647  23.350  0.00  0.00    +0.169 A 
ATOM      3  N   UNL     1       8.114  -2.257  22.157  0.00  0.00    -0.229 NA
ATOM      4  C   UNL     1       7.938  -3.524  22.459  0.00  0.00    +0.203 A 
ATOM      5  N   UNL     1       8.134  -3.770  23.795  0.00  0.00    -0.285 N 
ATOM      6  C   UNL     1       8.480  -2.580  24.373  0.00  0.00    +0.171 A 
ATOM      7  N   UNL     1       8.731  -2.338  25.667  0.00  0.00    -0.195 NA
ATOM      8  C   UNL     1       8.904  -1.038  25.932  0.00  0.00    +0.218 A 
ATOM      9  N   UNL     1       8.995  -0.683  27.266  0.00  0.00    -0.327 N 
ATOM     10  H   UNL     1       8.553  -1.382  27.844  0.00  0.00    +0.145 HD
ATOM     11  H   UNL     1       8.654   0.265  27.370  0.00  0.00    +0.145 HD
ATOM     12  N   UNL     1       8.869  -0.037  25.050  0.00  0.00    -0.178 NA
ENDROOT
BRANCH   5  13
ATOM     13  C1* UNL     1       7.824  -5.026  24.441  0.00  0.00    +0.253 C 
ATOM     14  C2* UNL     1       8.514  -5.400  25.751  0.00  0.00    +0.195 C 
ATOM     15  C3* UNL     1       7.541  -4.947  26.835  0.00  0.00    +0.178 C 
ATOM     16  C4* UNL     1       6.188  -4.841  26.125  0.00  0.00    +0.177 C 
ATOM     17  O4* UNL     1       6.404  -5.047  24.706  0.00  0.00    -0.346 OA
BRANCH  14  18
ATOM     18  O2* UNL     1       9.843  -4.918  25.887  0.00  0.00    -0.385 OA
ATOM     19  H2* UNL     1      10.041  -4.351  25.119  0.00  0.00    +0.210 HD
ENDBRANCH  14  18
BRANCH  15  20
ATOM     20  O3* UNL     1       7.506  -5.919  27.891  0.00  0.00    -0.386 OA
ATOM     21  H3* UNL     1       7.732  -5.484  28.734  0.00  0.00    +0.210 HD
ENDBRANCH  15  20
BRANCH  16  22
ATOM     22  C5* UNL     1       5.497  -3.487  26.339  0.00  0.00    +0.190 C 
BRANCH  22  23
ATOM     23  O5* UNL     1       6.302  -2.651  27.169  0.00  0.00    -0.392 OA
ATOM     24  H5* UNL     1       7.225  -2.927  27.013  0.00  0.00    +0.210 HD
ENDBRANCH  22  23
ENDBRANCH  16  22
ENDBRANCH   5  13
BRANCH   1  26
ATOM     25  C   UNL     1       9.806   0.936  22.165  0.00  0.00    +0.279 C 
ATOM     26  O   UNL     1       8.565   0.706  22.825  0.00  0.00    -0.478 OA
ENDBRANCH   1  26
TORSDOF 6
ENDMDL
MODEL 6
REMARK VINA RESULT:      -6.0      2.276      3.333
REMARK  Name = 
REMARK  7 active torsions:
REMARK  status: ('A' for Active; 'I' for Inactive)
REMARK    1  A    between atoms: C_1  and  O_2
REMARK    2  A    between atoms: O_2  and  C_3
REMARK    3  A    between atoms: N_12  and  C1*_13
REMARK    4  A    between atoms: C4*_16  and  C5*_18
REMARK    5  A    between atoms: C5*_18  and  O5*_19
REMARK    6  A    between atoms: C3*_20  and  O3*_22
REMARK    7  A    between atoms: C2*_23  and  O2*_25
REMARK                            x       y       z     vdW  Elec       q    Type
REMARK                         _______ _______ _______ _____ _____    ______ ____
ROOT
ATOM      1  C   UNL     1       6.198  -5.914  25.841  0.00  0.00    +0.247 A 
ATOM      2  C   UNL     1       7.174  -4.977  25.493  0.00  0.00    +0.169 A 
ATOM      3  N   UNL     1       8.146  -4.298  26.192  0.00  0.00    -0.229 NA
ATOM      4  C   UNL     1       8.695  -3.491  25.310  0.00  0.00    +0.203 A 
ATOM      5  N   UNL     1       8.134  -3.626  24.065  0.00  0.00    -0.285 N 
ATOM      6  C   UNL     1       7.181  -4.600  24.160  0.00  0.00    +0.171 A 
ATOM      7  N   UNL     1       6.358  -5.040  23.198  0.00  0.00    -0.195 NA
ATOM      8  C   UNL     1       5.442  -5.905  23.649  0.00  0.00    +0.218 A 
ATOM      9  N   UNL     1       4.447  -6.275  22.762  0.00  0.00    -0.327 N 
ATOM     10  H   UNL     1       4.339  -5.572  22.046  0.00  0.00    +0.145 HD
ATOM     11  H   UNL     1       3.615  -6.507  23.290  0.00  0.00    +0.145 HD
ATOM     12  N   UNL     1       5.317  -6.347  24.902  0.00  0.00    -0.178 NA
ENDROOT
BRANCH   5  13
ATOM     13  C1* UNL     1       8.406  -2.739  22.956  0.00  0.00    +0.253 C 
ATOM     14  C2* UNL     1       7.420  -1.624  22.611  0.00  0.00    +0.195 C 
ATOM     15  C3* UNL     1       7.965  -0.398  23.336  0.00  0.00    +0.178 C 
ATOM     16  C4* UNL     1       9.439  -0.721  23.595  0.00  0.00    +0.177 C 
ATOM     17  O4* UNL     1       9.677  -2.097  23.205  0.00  0.00    -0.346 OA
BRANCH  14  18
ATOM     18  O2* UNL     1       6.057  -1.929  22.871  0.00  0.00    -0.385 OA
ATOM     19  H2* UNL     1       5.536  -1.113  22.756  0.00  0.00    +0.210 HD
ENDBRANCH  14  18
BRANCH  15  20
ATOM     20  O3* UNL     1       7.819   0.761  22.502  0.00  0.00    -0.386 OA
ATOM     21  H3* UNL     1       7.265   0.533  21.732  0.00  0.00    +0.210 HD
ENDBRANCH  15  20
BRANCH  16  22
ATOM     22  C5* UNL     1       9.851  -0.534  25.062  0.00  0.00    +0.190 C 
BRANCH  22  23
ATOM     23  O5* UNL     1      10.484   0.733  25.235  0.00  0.00    -0.392 OA
ATOM     24  H5* UNL     1      10.774   1.012  24.346  0.00  0.00    +0.210 HD
ENDBRANCH  22  23
ENDBRANCH  16  22
ENDBRANCH   5  13
BRANCH   1  26
ATOM     25  C   UNL     1       4.719  -6.762  27.416  0.00  0.00    +0.279 C 
ATOM     26  O   UNL     1       6.047  -6.322  27.152  0.00  0.00    -0.478 OA
ENDBRANCH   1  26
TORSDOF 6
ENDMDL
MODEL 7
REMARK VINA RESULT:      -5.9      2.194      2.390
REMARK  Name = 
REMARK  7 active torsions:
REMARK  status: ('A' for Active; 'I' for Inactive)
REMARK    1  A    between atoms: C_1  and  O_2
REMARK    2  A    between atoms: O_2  and  C_3
REMARK    3  A    between atoms: N_12  and  C1*_13
REMARK    4  A    between atoms: C4*_16  and  C5*_18
REMARK    5  A    between atoms: C5*_18  and  O5*_19
REMARK    6  A    between atoms: C3*_20  and  O3*_22
REMARK    7  A    between atoms: C2*_23  and  O2*_25
REMARK                            x       y       z     vdW  Elec       q    Type
REMARK                         _______ _______ _______ _____ _____    ______ ____
ROOT
ATOM      1  C   UNL     1       5.366  -3.343  23.789  0.00  0.00    +0.247 A 
ATOM      2  C   UNL     1       6.142  -2.186  23.687  0.00  0.00    +0.169 A 
ATOM      3  N   UNL     1       6.032  -0.909  24.188  0.00  0.00    -0.229 NA
ATOM      4  C   UNL     1       7.043  -0.251  23.664  0.00  0.00    +0.203 A 
ATOM      5  N   UNL     1       7.816  -1.047  22.857  0.00  0.00    -0.285 N 
ATOM      6  C   UNL     1       7.269  -2.300  22.891  0.00  0.00    +0.171 A 
ATOM      7  N   UNL     1       7.674  -3.391  22.225  0.00  0.00    -0.195 NA
ATOM      8  C   UNL     1       6.840  -4.428  22.364  0.00  0.00    +0.218 A 
ATOM      9  N   UNL     1       7.089  -5.535  21.574  0.00  0.00    -0.327 N 
ATOM     10  H   UNL     1       7.619  -5.269  20.758  0.00  0.00    +0.145 HD
ATOM     11  H   UNL     1       6.212  -6.011  21.401  0.00  0.00    +0.145 HD
ATOM     12  N   UNL     1       5.721  -4.453  23.091  0.00  0.00    -0.178 NA
ENDROOT
BRANCH   5  13
ATOM     13  C1* UNL     1       8.875  -0.551  22.006  0.00  0.00    +0.253 C 
ATOM     14  C2* UNL     1       8.876   0.911  21.564  0.00  0.00    +0.195 C 
ATOM     15  C3* UNL     1       9.770   1.614  22.581  0.00  0.00    +0.178 C 
ATOM     16  C4* UNL     1      10.621   0.496  23.191  0.00  0.00    +0.177 C 
ATOM     17  O4* UNL     1      10.130  -0.772  22.689  0.00  0.00    -0.346 OA
BRANCH  14  18
ATOM     18  O2* UNL     1       7.589   1.484  21.388  0.00  0.00    -0.385 OA
ATOM     19  H2* UNL     1       6.958   0.992  21.946  0.00  0.00    +0.210 HD
ENDBRANCH  14  18
BRANCH  15  20
ATOM     20  O3* UNL     1      10.585   2.590  21.914  0.00  0.00    -0.386 OA
ATOM     21  H3* UNL     1      11.354   2.144  21.512  0.00  0.00    +0.210 HD
ENDBRANCH  15  20
BRANCH  16  22
ATOM     22  C5* UNL     1      10.587   0.479  24.726  0.00  0.00    +0.190 C 
BRANCH  22  23
ATOM     23  O5* UNL     1       9.616   1.407  25.205  0.00  0.00    -0.392 OA
ATOM     24  H5* UNL     1       9.998   2.294  25.062  0.00  0.00    +0.210 HD
ENDBRANCH  22  23
ENDBRANCH  16  22
ENDBRANCH   5  13
BRANCH   1  26
ATOM     25  C   UNL     1       4.278  -4.129  25.683  0.00  0.00    +0.279 C 
ATOM     26  O   UNL     1       4.183  -3.340  24.502  0.00  0.00    -0.478 OA
ENDBRANCH   1  26
TORSDOF 6
ENDMDL
MODEL 8
REMARK VINA RESULT:      -5.9      1.775      3.015
REMARK  Name = 
REMARK  7 active torsions:
REMARK  status: ('A' for Active; 'I' for Inactive)
REMARK    1  A    between atoms: C_1  and  O_2
REMARK    2  A    between atoms: O_2  and  C_3
REMARK    3  A    between atoms: N_12  and  C1*_13
REMARK    4  A    between atoms: C4*_16  and  C5*_18
REMARK    5  A    between atoms: C5*_18  and  O5*_19
REMARK    6  A    between atoms: C3*_20  and  O3*_22
REMARK    7  A    between atoms: C2*_23  and  O2*_25
REMARK                            x       y       z     vdW  Elec       q    Type
REMARK                         _______ _______ _______ _____ _____    ______ ____
ROOT
ATOM      1  C   UNL     1       7.685  -3.947  23.679  0.00  0.00    +0.247 A 
ATOM      2  C   UNL     1       8.510  -2.821  23.639  0.00  0.00    +0.169 A 
ATOM      3  N   UNL     1       9.828  -2.607  23.304  0.00  0.00    -0.229 NA
ATOM      4  C   UNL     1      10.038  -1.333  23.551  0.00  0.00    +0.203 A 
ATOM      5  N   UNL     1       8.911  -0.703  24.016  0.00  0.00    -0.285 N 
ATOM      6  C   UNL     1       7.914  -1.638  24.045  0.00  0.00    +0.171 A 
ATOM      7  N   UNL     1       6.651  -1.478  24.463  0.00  0.00    -0.195 NA
ATOM      8  C   UNL     1       5.962  -2.625  24.496  0.00  0.00    +0.218 A 
ATOM      9  N   UNL     1       4.708  -2.580  25.077  0.00  0.00    -0.327 N 
ATOM     10  H   UNL     1       4.647  -1.800  25.714  0.00  0.00    +0.145 HD
ATOM     11  H   UNL     1       4.501  -3.492  25.466  0.00  0.00    +0.145 HD
ATOM     12  N   UNL     1       6.412  -3.831  24.141  0.00  0.00    -0.178 NA
ENDROOT
BRANCH   5  13
ATOM     13  C1* UNL     1       8.897   0.643  24.546  0.00  0.00    +0.253 C 
ATOM     14  C2* UNL     1      10.135   1.528  24.412  0.00  0.00    +0.195 C 
ATOM     15  C3* UNL     1       9.884   2.343  23.147  0.00  0.00    +0.178 C 
ATOM     16  C4* UNL     1       8.368   2.280  22.938  0.00  0.00    +0.177 C 
ATOM     17  O4* UNL     1       7.814   1.356  23.907  0.00  0.00    -0.346 OA
BRANCH  14  18
ATOM     18  O2* UNL     1      11.374   0.834  24.453  0.00  0.00    -0.385 OA
ATOM     19  H2* UNL     1      11.711   0.761  23.541  0.00  0.00    +0.210 HD
ENDBRANCH  14  18
BRANCH  15  20
ATOM     20  O3* UNL     1      10.332   3.692  23.345  0.00  0.00    -0.386 OA
ATOM     21  H3* UNL     1      10.894   3.729  24.141  0.00  0.00    +0.210 HD
ENDBRANCH  15  20
BRANCH  16  22
ATOM     22  C5* UNL     1       7.971   1.829  21.525  0.00  0.00    +0.190 C 
BRANCH  22  23
ATOM     23  O5* UNL     1       9.012   1.042  20.951  0.00  0.00    -0.392 OA
ATOM     24  H5* UNL     1       9.256   1.486  20.117  0.00  0.00    +0.210 HD
ENDBRANCH  22  23
ENDBRANCH  16  22
ENDBRANCH   5  13
BRANCH   1  26
ATOM     25  C   UNL     1       7.415  -5.818  22.332  0.00  0.00    +0.279 C 
ATOM     26  O   UNL     1       8.178  -5.196  23.360  0.00  0.00    -0.478 OA
ENDBRANCH   1  26
TORSDOF 6
ENDMDL
MODEL 9
REMARK VINA RESULT:      -5.9      1.715      3.327
REMARK  Name = 
REMARK  7 active torsions:
REMARK  status: ('A' for Active; 'I' for Inactive)
REMARK    1  A    between atoms: C_1  and  O_2
REMARK    2  A    between atoms: O_2  and  C_3
REMARK    3  A    between atoms: N_12  and  C1*_13
REMARK    4  A    between atoms: C4*_16  and  C5*_18
REMARK    5  A    between atoms: C5*_18  and  O5*_19
REMARK    6  A    between atoms: C3*_20  and  O3*_22
REMARK    7  A    between atoms: C2*_23  and  O2*_25
REMARK                            x       y       z     vdW  Elec       q    Type
REMARK                         _______ _______ _______ _____ _____    ______ ____
ROOT
ATOM      1  C   UNL     1       8.246  -4.557  24.220  0.00  0.00    +0.247 A 
ATOM      2  C   UNL     1       8.589  -3.215  24.042  0.00  0.00    +0.169 A 
ATOM      3  N   UNL     1       9.780  -2.535  23.929  0.00  0.00    -0.229 NA
ATOM      4  C   UNL     1       9.440  -1.266  23.860  0.00  0.00    +0.203 A 
ATOM      5  N   UNL     1       8.079  -1.091  23.908  0.00  0.00    -0.285 N 
ATOM      6  C   UNL     1       7.520  -2.336  23.989  0.00  0.00    +0.171 A 
ATOM      7  N   UNL     1       6.220  -2.646  24.092  0.00  0.00    -0.195 NA
ATOM      8  C   UNL     1       6.009  -3.952  24.295  0.00  0.00    +0.218 A 
ATOM      9  N   UNL     1       4.711  -4.333  24.585  0.00  0.00    -0.327 N 
ATOM     10  H   UNL     1       4.195  -3.554  24.963  0.00  0.00    +0.145 HD
ATOM     11  H   UNL     1       4.741  -5.169  25.156  0.00  0.00    +0.145 HD
ATOM     12  N   UNL     1       6.942  -4.903  24.374  0.00  0.00    -0.178 NA
ENDROOT
BRANCH   5  13
ATOM     13  C1* UNL     1       7.433   0.196  24.042  0.00  0.00    +0.253 C 
ATOM     14  C2* UNL     1       7.999   1.236  25.007  0.00  0.00    +0.195 C 
ATOM     15  C3* UNL     1       8.896   2.112  24.137  0.00  0.00    +0.178 C 
ATOM     16  C4* UNL     1       8.401   1.878  22.707  0.00  0.00    +0.177 C 
ATOM     17  O4* UNL     1       7.413   0.817  22.737  0.00  0.00    -0.346 OA
BRANCH  14  18
ATOM     18  O2* UNL     1       8.615   0.702  26.170  0.00  0.00    -0.385 OA
ATOM     19  H2* UNL     1       9.066   1.430  26.637  0.00  0.00    +0.210 HD
ENDBRANCH  14  18
BRANCH  15  20
ATOM     20  O3* UNL     1       8.752   3.486  24.525  0.00  0.00    -0.386 OA
ATOM     21  H3* UNL     1       9.612   3.820  24.842  0.00  0.00    +0.210 HD
ENDBRANCH  15  20
BRANCH  16  22
ATOM     22  C5* UNL     1       9.523   1.494  21.733  0.00  0.00    +0.190 C 
BRANCH  22  23
ATOM     23  O5* UNL     1      10.520   2.515  21.707  0.00  0.00    -0.392 OA
ATOM     24  H5* UNL     1      10.740   2.653  20.767  0.00  0.00    +0.210 HD
ENDBRANCH  22  23
ENDBRANCH  16  22
ENDBRANCH   5  13
BRANCH   1  26
ATOM     25  C   UNL     1       9.863  -5.455  25.623  0.00  0.00    +0.279 C 
ATOM     26  O   UNL     1       9.224  -5.524  24.353  0.00  0.00    -0.478 OA
ENDBRANCH   1  26
TORSDOF 6
ENDMDL
