MODEL 1
REMARK VINA RESULT:      -6.6      0.000      0.000
REMARK  Name = 
REMARK  8 active torsions:
REMARK  status: ('A' for Active; 'I' for Inactive)
REMARK    1  A    between atoms: N_1  and  CA_2
REMARK    2  A    between atoms: CA_2  and  C_4
REMARK    3  A    between atoms: CA_2  and  C_22
REMARK    4  A    between atoms: C_4  and  C_5
REMARK    5  A    between atoms: C_9  and  O_10
REMARK    6  A    between atoms: O_10  and  C_11
REMARK    7  A    between atoms: C_15  and  O_16
REMARK    8  A    between atoms: C_22  and  O_23
REMARK                            x       y       z     vdW  Elec       q    Type
REMARK                         _______ _______ _______ _____ _____    ______ ____
ROOT
ATOM      1  C   UNL     1       5.496  -4.461  25.983  0.00  0.00    -0.043 A 
ATOM      2  C   UNL     1       6.262  -3.347  26.343  0.00  0.00    +0.021 A 
ATOM      3  C   UNL     1       7.196  -2.785  25.453  0.00  0.00    +0.057 A 
ATOM      4  I   UNL     1       8.488  -1.365  26.337  0.00  0.00    -0.040 I 
ATOM      5  C   UNL     1       7.307  -3.273  24.140  0.00  0.00    +0.155 A 
ATOM      6  C   UNL     1       6.543  -4.407  23.795  0.00  0.00    +0.057 A 
ATOM      7  I   UNL     1       6.742  -5.356  21.922  0.00  0.00    -0.040 I 
ATOM      8  C   UNL     1       5.653  -4.998  24.704  0.00  0.00    +0.021 A 
ENDROOT
BRANCH   1   9
ATOM      9  C   UNL     1       4.558  -5.101  26.983  0.00  0.00    +0.065 C 
BRANCH   9  10
ATOM     10  CA  UNL     1       5.125  -6.387  27.611  0.00  0.00    +0.165 C 
BRANCH  10  11
ATOM     11  N   UNL     1       4.103  -7.205  28.328  0.00  0.00    -0.318 NA
ATOM     12  H1  UNL     1       3.299  -6.606  28.547  0.00  0.00    +0.119 HD
ATOM     13  H2  UNL     1       3.724  -7.886  27.661  0.00  0.00    +0.119 HD
ENDBRANCH  10  11
BRANCH  10  14
ATOM     14  C   UNL     1       6.244  -6.046  28.610  0.00  0.00    +0.322 C 
ATOM     15  OXT UNL     1       6.087  -5.573  29.723  0.00  0.00    -0.249 OA
BRANCH  14  16
ATOM     16  O   UNL     1       7.466  -6.321  28.087  0.00  0.00    -0.480 OA
ATOM     17  H   UNL     1       7.437  -7.267  27.803  0.00  0.00    +0.295 HD
ENDBRANCH  14  16
ENDBRANCH  10  14
ENDBRANCH   9  10
ENDBRANCH   1   9
BRANCH   5  18
ATOM     18  O   UNL     1       8.220  -2.862  23.197  0.00  0.00    -0.454 OA
BRANCH  18  19
ATOM     19  C   UNL     1       8.265  -1.575  22.719  0.00  0.00    +0.130 A 
ATOM     20  C   UNL     1       9.405  -1.293  21.956  0.00  0.00    +0.050 A 
ATOM     21  C   UNL     1       9.657   0.002  21.508  0.00  0.00    +0.050 A 
ATOM     22  C   UNL     1       8.767   1.019  21.825  0.00  0.00    +0.130 A 
ATOM     23  C   UNL     1       7.589   0.737  22.527  0.00  0.00    +0.058 A 
ATOM     24  I   UNL     1       6.261   2.255  23.053  0.00  0.00    -0.040 I 
ATOM     25  C   UNL     1       7.315  -0.578  22.939  0.00  0.00    +0.064 A 
BRANCH  22  26
ATOM     26  O   UNL     1       9.120   2.281  21.440  0.00  0.00    -0.506 OA
ATOM     27  H   UNL     1       9.470   2.224  20.533  0.00  0.00    +0.292 HD
ENDBRANCH  22  26
ENDBRANCH  18  19
ENDBRANCH   5  18
TORSDOF 8
ENDMDL
MODEL 2
REMARK VINA RESULT:      -6.2      3.220      4.445
REMARK  Name = 
REMARK  8 active torsions:
REMARK  status: ('A' for Active; 'I' for Inactive)
REMARK    1  A    between atoms: N_1  and  CA_2
REMARK    2  A    between atoms: CA_2  and  C_4
REMARK    3  A    between atoms: CA_2  and  C_22
REMARK    4  A    between atoms: C_4  and  C_5
REMARK    5  A    between atoms: C_9  and  O_10
REMARK    6  A    between atoms: O_10  and  C_11
REMARK    7  A    between atoms: C_15  and  O_16
REMARK    8  A    between atoms: C_22  and  O_23
REMARK                            x       y       z     vdW  Elec       q    Type
REMARK                         _______ _______ _______ _____ _____    ______ ____
ROOT
ATOM      1  C   UNL     1       8.364  -2.188  25.850  0.00  0.00    -0.043 A 
ATOM      2  C   UNL     1       9.025  -1.928  24.645  0.00  0.00    +0.021 A 
ATOM      3  C   UNL     1       8.646  -0.851  23.822  0.00  0.00    +0.057 A 
ATOM      4  I   UNL     1       9.525  -0.879  21.900  0.00  0.00    -0.040 I 
ATOM      5  C   UNL     1       7.653   0.050  24.245  0.00  0.00    +0.155 A 
ATOM      6  C   UNL     1       6.981  -0.234  25.451  0.00  0.00    +0.057 A 
ATOM      7  I   UNL     1       5.350   0.926  26.117  0.00  0.00    -0.040 I 
ATOM      8  C   UNL     1       7.326  -1.340  26.241  0.00  0.00    +0.021 A 
ENDROOT
BRANCH   1   9
ATOM      9  C   UNL     1       8.732  -3.398  26.679  0.00  0.00    +0.065 C 
BRANCH   9  10
ATOM     10  CA  UNL     1       8.115  -4.706  26.152  0.00  0.00    +0.165 C 
BRANCH  10  11
ATOM     11  N   UNL     1       7.969  -5.764  27.196  0.00  0.00    -0.318 NA
ATOM     12  H1  UNL     1       8.602  -6.538  26.968  0.00  0.00    +0.119 HD
ATOM     13  H2  UNL     1       8.348  -5.390  28.073  0.00  0.00    +0.119 HD
ENDBRANCH  10  11
BRANCH  10  14
ATOM     14  C   UNL     1       8.974  -5.283  25.013  0.00  0.00    +0.322 C 
ATOM     15  OXT UNL     1       8.616  -5.443  23.859  0.00  0.00    -0.249 OA
BRANCH  14  16
ATOM     16  O   UNL     1      10.211  -5.623  25.461  0.00  0.00    -0.480 OA
ATOM     17  H   UNL     1      10.455  -6.454  24.985  0.00  0.00    +0.295 HD
ENDBRANCH  14  16
ENDBRANCH  10  14
ENDBRANCH   9  10
ENDBRANCH   1   9
BRANCH   5  18
ATOM     18  O   UNL     1       7.143   1.096  23.511  0.00  0.00    -0.454 OA
BRANCH  18  19
ATOM     19  C   UNL     1       7.749   2.328  23.456  0.00  0.00    +0.130 A 
ATOM     20  C   UNL     1       8.983   2.382  24.115  0.00  0.00    +0.050 A 
ATOM     21  C   UNL     1       9.661   3.591  24.256  0.00  0.00    +0.050 A 
ATOM     22  C   UNL     1       9.101   4.751  23.737  0.00  0.00    +0.130 A 
ATOM     23  C   UNL     1       7.903   4.699  23.015  0.00  0.00    +0.058 A 
ATOM     24  I   UNL     1       7.020   6.433  22.267  0.00  0.00    -0.040 I 
ATOM     25  C   UNL     1       7.244   3.471  22.836  0.00  0.00    +0.064 A 
BRANCH  22  26
ATOM     26  O   UNL     1       9.766   5.917  23.992  0.00  0.00    -0.506 OA
ATOM     27  H   UNL     1       9.310   6.360  24.731  0.00  0.00    +0.292 HD
ENDBRANCH  22  26
ENDBRANCH  18  19
ENDBRANCH   5  18
TORSDOF 8
ENDMDL
MODEL 3
REMARK VINA RESULT:      -6.2      3.200      3.974
REMARK  Name = 
REMARK  8 active torsions:
REMARK  status: ('A' for Active; 'I' for Inactive)
REMARK    1  A    between atoms: N_1  and  CA_2
REMARK    2  A    between atoms: CA_2  and  C_4
REMARK    3  A    between atoms: CA_2  and  C_22
REMARK    4  A    between atoms: C_4  and  C_5
REMARK    5  A    between atoms: C_9  and  O_10
REMARK    6  A    between atoms: O_10  and  C_11
REMARK    7  A    between atoms: C_15  and  O_16
REMARK    8  A    between atoms: C_22  and  O_23
REMARK                            x       y       z     vdW  Elec       q    Type
REMARK                         _______ _______ _______ _____ _____    ______ ____
ROOT
ATOM      1  C   UNL     1       5.777  -2.970  23.317  0.00  0.00    -0.043 A 
ATOM      2  C   UNL     1       5.342  -2.126  24.345  0.00  0.00    +0.021 A 
ATOM      3  C   UNL     1       6.088  -0.994  24.723  0.00  0.00    +0.057 A 
ATOM      4  I   UNL     1       5.442  -0.093  26.523  0.00  0.00    -0.040 I 
ATOM      5  C   UNL     1       7.239  -0.630  24.004  0.00  0.00    +0.155 A 
ATOM      6  C   UNL     1       7.677  -1.499  22.983  0.00  0.00    +0.057 A 
ATOM      7  I   UNL     1       9.484  -1.177  21.944  0.00  0.00    -0.040 I 
ATOM      8  C   UNL     1       6.960  -2.657  22.647  0.00  0.00    +0.021 A 
ENDROOT
BRANCH   1   9
ATOM      9  C   UNL     1       5.005  -4.227  22.982  0.00  0.00    +0.065 C 
BRANCH   9  10
ATOM     10  CA  UNL     1       5.785  -5.519  23.288  0.00  0.00    +0.165 C 
BRANCH  10  11
ATOM     11  N   UNL     1       5.971  -6.402  22.099  0.00  0.00    -0.318 NA
ATOM     12  H1  UNL     1       6.643  -7.139  22.340  0.00  0.00    +0.119 HD
ATOM     13  H2  UNL     1       5.093  -6.914  21.950  0.00  0.00    +0.119 HD
ENDBRANCH  10  11
BRANCH  10  14
ATOM     14  C   UNL     1       5.063  -6.335  24.374  0.00  0.00    +0.322 C 
ATOM     15  OXT UNL     1       4.981  -6.038  25.554  0.00  0.00    -0.249 OA
BRANCH  14  16
ATOM     16  O   UNL     1       4.529  -7.471  23.856  0.00  0.00    -0.480 OA
ATOM     17  H   UNL     1       4.928  -7.578  22.959  0.00  0.00    +0.295 HD
ENDBRANCH  14  16
ENDBRANCH  10  14
ENDBRANCH   9  10
ENDBRANCH   1   9
BRANCH   5  18
ATOM     18  O   UNL     1       8.092   0.405  24.309  0.00  0.00    -0.454 OA
BRANCH  18  19
ATOM     19  C   UNL     1       7.913   1.679  23.826  0.00  0.00    +0.130 A 
ATOM     20  C   UNL     1       6.964   1.769  22.801  0.00  0.00    +0.050 A 
ATOM     21  C   UNL     1       6.762   2.970  22.123  0.00  0.00    +0.050 A 
ATOM     22  C   UNL     1       7.513   4.085  22.472  0.00  0.00    +0.130 A 
ATOM     23  C   UNL     1       8.414   4.026  23.542  0.00  0.00    +0.058 A 
ATOM     24  I   UNL     1       9.584   5.674  24.053  0.00  0.00    -0.040 I 
ATOM     25  C   UNL     1       8.583   2.826  24.252  0.00  0.00    +0.064 A 
BRANCH  22  26
ATOM     26  O   UNL     1       7.337   5.203  21.707  0.00  0.00    -0.506 OA
ATOM     27  H   UNL     1       7.888   5.910  22.088  0.00  0.00    +0.292 HD
ENDBRANCH  22  26
ENDBRANCH  18  19
ENDBRANCH   5  18
TORSDOF 8
ENDMDL
MODEL 4
REMARK VINA RESULT:      -6.2      3.366      7.691
REMARK  Name = 
REMARK  8 active torsions:
REMARK  status: ('A' for Active; 'I' for Inactive)
REMARK    1  A    between atoms: N_1  and  CA_2
REMARK    2  A    between atoms: CA_2  and  C_4
REMARK    3  A    between atoms: CA_2  and  C_22
REMARK    4  A    between atoms: C_4  and  C_5
REMARK    5  A    between atoms: C_9  and  O_10
REMARK    6  A    between atoms: O_10  and  C_11
REMARK    7  A    between atoms: C_15  and  O_16
REMARK    8  A    between atoms: C_22  and  O_23
REMARK                            x       y       z     vdW  Elec       q    Type
REMARK                         _______ _______ _______ _____ _____    ______ ____
ROOT
ATOM      1  C   UNL     1       8.190  -1.421  22.640  0.00  0.00    -0.043 A 
ATOM      2  C   UNL     1       7.526  -0.992  23.794  0.00  0.00    +0.021 A 
ATOM      3  C   UNL     1       6.625  -1.834  24.473  0.00  0.00    +0.057 A 
ATOM      4  I   UNL     1       5.472  -0.857  25.951  0.00  0.00    -0.040 I 
ATOM      5  C   UNL     1       6.449  -3.166  24.059  0.00  0.00    +0.155 A 
ATOM      6  C   UNL     1       7.110  -3.580  22.884  0.00  0.00    +0.057 A 
ATOM      7  I   UNL     1       6.797  -5.489  22.044  0.00  0.00    -0.040 I 
ATOM      8  C   UNL     1       7.964  -2.719  22.179  0.00  0.00    +0.021 A 
ENDROOT
BRANCH   1   9
ATOM      9  C   UNL     1       9.090  -0.473  21.879  0.00  0.00    +0.065 C 
BRANCH   9  10
ATOM     10  CA  UNL     1       8.827   1.008  22.205  0.00  0.00    +0.165 C 
BRANCH  10  11
ATOM     11  N   UNL     1       8.268   1.785  21.059  0.00  0.00    -0.318 NA
ATOM     12  H1  UNL     1       7.473   1.267  20.669  0.00  0.00    +0.119 HD
ATOM     13  H2  UNL     1       7.840   2.637  21.439  0.00  0.00    +0.119 HD
ENDBRANCH  10  11
BRANCH  10  14
ATOM     14  C   UNL     1      10.128   1.697  22.652  0.00  0.00    +0.322 C 
ATOM     15  OXT UNL     1      10.671   1.564  23.736  0.00  0.00    -0.249 OA
BRANCH  14  16
ATOM     16  O   UNL     1      10.607   2.513  21.678  0.00  0.00    -0.480 OA
ATOM     17  H   UNL     1       9.919   2.529  20.969  0.00  0.00    +0.295 HD
ENDBRANCH  14  16
ENDBRANCH  10  14
ENDBRANCH   9  10
ENDBRANCH   1   9
BRANCH   5  18
ATOM     18  O   UNL     1       5.555  -4.067  24.587  0.00  0.00    -0.454 OA
BRANCH  18  19
ATOM     19  C   UNL     1       5.729  -4.649  25.820  0.00  0.00    +0.130 A 
ATOM     20  C   UNL     1       7.072  -4.821  26.180  0.00  0.00    +0.050 A 
ATOM     21  C   UNL     1       7.412  -5.511  27.342  0.00  0.00    +0.050 A 
ATOM     22  C   UNL     1       6.406  -6.032  28.146  0.00  0.00    +0.130 A 
ATOM     23  C   UNL     1       5.061  -5.806  27.833  0.00  0.00    +0.058 A 
ATOM     24  I   UNL     1       3.535  -6.616  29.000  0.00  0.00    -0.040 I 
ATOM     25  C   UNL     1       4.720  -5.072  26.685  0.00  0.00    +0.064 A 
BRANCH  22  26
ATOM     26  O   UNL     1       6.807  -6.779  29.217  0.00  0.00    -0.506 OA
ATOM     27  H   UNL     1       6.973  -7.685  28.898  0.00  0.00    +0.292 HD
ENDBRANCH  22  26
ENDBRANCH  18  19
ENDBRANCH   5  18
TORSDOF 8
ENDMDL
MODEL 5
REMARK VINA RESULT:      -6.2      3.375      4.410
REMARK  Name = 
REMARK  8 active torsions:
REMARK  status: ('A' for Active; 'I' for Inactive)
REMARK    1  A    between atoms: N_1  and  CA_2
REMARK    2  A    between atoms: CA_2  and  C_4
REMARK    3  A    between atoms: CA_2  and  C_22
REMARK    4  A    between atoms: C_4  and  C_5
REMARK    5  A    between atoms: C_9  and  O_10
REMARK    6  A    between atoms: O_10  and  C_11
REMARK    7  A    between atoms: C_15  and  O_16
REMARK    8  A    between atoms: C_22  and  O_23
REMARK                            x       y       z     vdW  Elec       q    Type
REMARK                         _______ _______ _______ _____ _____    ______ ____
ROOT
ATOM      1  C   UNL     1       8.321  -2.484  24.898  0.00  0.00    -0.043 A 
ATOM      2  C   UNL     1       9.337  -1.557  24.641  0.00  0.00    +0.021 A 
ATOM      3  C   UNL     1       9.179  -0.196  24.959  0.00  0.00    +0.057 A 
ATOM      4  I   UNL     1      10.672   1.062  24.148  0.00  0.00    -0.040 I 
ATOM      5  C   UNL     1       8.030   0.246  25.638  0.00  0.00    +0.155 A 
ATOM      6  C   UNL     1       7.006  -0.694  25.874  0.00  0.00    +0.057 A 
ATOM      7  I   UNL     1       5.155  -0.136  26.717  0.00  0.00    -0.040 I 
ATOM      8  C   UNL     1       7.145  -2.040  25.504  0.00  0.00    +0.021 A 
ENDROOT
BRANCH   1   9
ATOM      9  C   UNL     1       8.477  -3.927  24.472  0.00  0.00    +0.065 C 
BRANCH   9  10
ATOM     10  CA  UNL     1       8.910  -4.856  25.621  0.00  0.00    +0.165 C 
BRANCH  10  11
ATOM     11  N   UNL     1       9.818  -5.960  25.189  0.00  0.00    -0.318 NA
ATOM     12  H1  UNL     1      10.596  -5.556  24.656  0.00  0.00    +0.119 HD
ATOM     13  H2  UNL     1      10.270  -6.340  26.029  0.00  0.00    +0.119 HD
ENDBRANCH  10  11
BRANCH  10  14
ATOM     14  C   UNL     1       7.679  -5.492  26.289  0.00  0.00    +0.322 C 
ATOM     15  OXT UNL     1       6.559  -5.552  25.812  0.00  0.00    -0.249 OA
BRANCH  14  16
ATOM     16  O   UNL     1       7.988  -5.975  27.520  0.00  0.00    -0.480 OA
ATOM     17  H   UNL     1       8.214  -6.928  27.393  0.00  0.00    +0.295 HD
ENDBRANCH  14  16
ENDBRANCH  10  14
ENDBRANCH   9  10
ENDBRANCH   1   9
BRANCH   5  18
ATOM     18  O   UNL     1       7.722   1.551  25.945  0.00  0.00    -0.454 OA
BRANCH  18  19
ATOM     19  C   UNL     1       7.621   2.533  24.990  0.00  0.00    +0.130 A 
ATOM     20  C   UNL     1       6.828   2.177  23.892  0.00  0.00    +0.050 A 
ATOM     21  C   UNL     1       6.731   3.016  22.784  0.00  0.00    +0.050 A 
ATOM     22  C   UNL     1       7.431   4.216  22.773  0.00  0.00    +0.130 A 
ATOM     23  C   UNL     1       8.170   4.615  23.893  0.00  0.00    +0.058 A 
ATOM     24  I   UNL     1       9.266   6.389  23.882  0.00  0.00    -0.040 I 
ATOM     25  C   UNL     1       8.230   3.788  25.026  0.00  0.00    +0.064 A 
BRANCH  22  26
ATOM     26  O   UNL     1       7.372   4.946  21.620  0.00  0.00    -0.506 OA
ATOM     27  H   UNL     1       8.271   5.273  21.433  0.00  0.00    +0.292 HD
ENDBRANCH  22  26
ENDBRANCH  18  19
ENDBRANCH   5  18
TORSDOF 8
ENDMDL
MODEL 6
REMARK VINA RESULT:      -6.0      3.596      7.737
REMARK  Name = 
REMARK  8 active torsions:
REMARK  status: ('A' for Active; 'I' for Inactive)
REMARK    1  A    between atoms: N_1  and  CA_2
REMARK    2  A    between atoms: CA_2  and  C_4
REMARK    3  A    between atoms: CA_2  and  C_22
REMARK    4  A    between atoms: C_4  and  C_5
REMARK    5  A    between atoms: C_9  and  O_10
REMARK    6  A    between atoms: O_10  and  C_11
REMARK    7  A    between atoms: C_15  and  O_16
REMARK    8  A    between atoms: C_22  and  O_23
REMARK                            x       y       z     vdW  Elec       q    Type
REMARK                         _______ _______ _______ _____ _____    ______ ____
ROOT
ATOM      1  C   UNL     1       8.770  -1.173  23.552  0.00  0.00    -0.043 A 
ATOM      2  C   UNL     1       9.121  -2.493  23.856  0.00  0.00    +0.021 A 
ATOM      3  C   UNL     1       8.413  -3.232  24.822  0.00  0.00    +0.057 A 
ATOM      4  I   UNL     1       9.345  -5.046  25.377  0.00  0.00    -0.040 I 
ATOM      5  C   UNL     1       7.270  -2.689  25.432  0.00  0.00    +0.155 A 
ATOM      6  C   UNL     1       6.937  -1.352  25.131  0.00  0.00    +0.057 A 
ATOM      7  I   UNL     1       5.359  -0.350  26.107  0.00  0.00    -0.040 I 
ATOM      8  C   UNL     1       7.680  -0.601  24.208  0.00  0.00    +0.021 A 
ENDROOT
BRANCH   1   9
ATOM      9  C   UNL     1       9.595  -0.369  22.571  0.00  0.00    +0.065 C 
BRANCH   9  10
ATOM     10  CA  UNL     1       9.522   1.149  22.818  0.00  0.00    +0.165 C 
BRANCH  10  11
ATOM     11  N   UNL     1       9.650   1.965  21.574  0.00  0.00    -0.318 NA
ATOM     12  H1  UNL     1       8.905   2.671  21.568  0.00  0.00    +0.119 HD
ATOM     13  H2  UNL     1      10.510   2.520  21.652  0.00  0.00    +0.119 HD
ENDBRANCH  10  11
BRANCH  10  14
ATOM     14  C   UNL     1      10.633   1.588  23.787  0.00  0.00    +0.322 C 
ATOM     15  OXT UNL     1      11.152   0.890  24.641  0.00  0.00    -0.249 OA
BRANCH  14  16
ATOM     16  O   UNL     1      10.965   2.890  23.590  0.00  0.00    -0.480 OA
ATOM     17  H   UNL     1      10.523   3.163  22.749  0.00  0.00    +0.295 HD
ENDBRANCH  14  16
ENDBRANCH  10  14
ENDBRANCH   9  10
ENDBRANCH   1   9
BRANCH   5  18
ATOM     18  O   UNL     1       6.532  -3.274  26.435  0.00  0.00    -0.454 OA
BRANCH  18  19
ATOM     19  C   UNL     1       5.675  -4.323  26.210  0.00  0.00    +0.130 A 
ATOM     20  C   UNL     1       5.891  -5.422  27.050  0.00  0.00    +0.050 A 
ATOM     21  C   UNL     1       5.187  -6.610  26.861  0.00  0.00    +0.050 A 
ATOM     22  C   UNL     1       4.264  -6.699  25.827  0.00  0.00    +0.130 A 
ATOM     23  C   UNL     1       3.988  -5.586  25.025  0.00  0.00    +0.058 A 
ATOM     24  I   UNL     1       2.641  -5.710  23.439  0.00  0.00    -0.040 I 
ATOM     25  C   UNL     1       4.667  -4.376  25.246  0.00  0.00    +0.064 A 
BRANCH  22  26
ATOM     26  O   UNL     1       3.679  -7.919  25.635  0.00  0.00    -0.506 OA
ATOM     27  H   UNL     1       2.730  -7.824  25.830  0.00  0.00    +0.292 HD
ENDBRANCH  22  26
ENDBRANCH  18  19
ENDBRANCH   5  18
TORSDOF 8
ENDMDL
MODEL 7
REMARK VINA RESULT:      -6.0      3.589      4.466
REMARK  Name = 
REMARK  8 active torsions:
REMARK  status: ('A' for Active; 'I' for Inactive)
REMARK    1  A    between atoms: N_1  and  CA_2
REMARK    2  A    between atoms: CA_2  and  C_4
REMARK    3  A    between atoms: CA_2  and  C_22
REMARK    4  A    between atoms: C_4  and  C_5
REMARK    5  A    between atoms: C_9  and  O_10
REMARK    6  A    between atoms: O_10  and  C_11
REMARK    7  A    between atoms: C_15  and  O_16
REMARK    8  A    between atoms: C_22  and  O_23
REMARK                            x       y       z     vdW  Elec       q    Type
REMARK                         _______ _______ _______ _____ _____    ______ ____
ROOT
ATOM      1  C   UNL     1       6.683  -3.120  24.163  0.00  0.00    -0.043 A 
ATOM      2  C   UNL     1       6.168  -2.199  25.082  0.00  0.00    +0.021 A 
ATOM      3  C   UNL     1       6.794  -0.958  25.299  0.00  0.00    +0.057 A 
ATOM      4  I   UNL     1       6.065   0.097  26.980  0.00  0.00    -0.040 I 
ATOM      5  C   UNL     1       7.899  -0.575  24.520  0.00  0.00    +0.155 A 
ATOM      6  C   UNL     1       8.420  -1.519  23.612  0.00  0.00    +0.057 A 
ATOM      7  I   UNL     1      10.181  -1.151  22.510  0.00  0.00    -0.040 I 
ATOM      8  C   UNL     1       7.825  -2.777  23.438  0.00  0.00    +0.021 A 
ENDROOT
BRANCH   1   9
ATOM      9  C   UNL     1       6.043  -4.482  24.005  0.00  0.00    +0.065 C 
BRANCH   9  10
ATOM     10  CA  UNL     1       5.419  -4.702  22.615  0.00  0.00    +0.165 C 
BRANCH  10  11
ATOM     11  N   UNL     1       4.085  -5.370  22.656  0.00  0.00    -0.318 NA
ATOM     12  H1  UNL     1       4.098  -6.169  22.013  0.00  0.00    +0.119 HD
ATOM     13  H2  UNL     1       3.981  -5.804  23.580  0.00  0.00    +0.119 HD
ENDBRANCH  10  11
BRANCH  10  14
ATOM     14  C   UNL     1       6.350  -5.560  21.741  0.00  0.00    +0.322 C 
ATOM     15  OXT UNL     1       7.359  -6.130  22.118  0.00  0.00    -0.249 OA
BRANCH  14  16
ATOM     16  O   UNL     1       5.915  -5.594  20.454  0.00  0.00    -0.480 OA
ATOM     17  H   UNL     1       5.959  -6.541  20.174  0.00  0.00    +0.295 HD
ENDBRANCH  14  16
ENDBRANCH  10  14
ENDBRANCH   9  10
ENDBRANCH   1   9
BRANCH   5  18
ATOM     18  O   UNL     1       8.641   0.573  24.676  0.00  0.00    -0.454 OA
BRANCH  18  19
ATOM     19  C   UNL     1       8.294   1.766  24.089  0.00  0.00    +0.130 A 
ATOM     20  C   UNL     1       7.340   1.640  23.073  0.00  0.00    +0.050 A 
ATOM     21  C   UNL     1       6.979   2.741  22.298  0.00  0.00    +0.050 A 
ATOM     22  C   UNL     1       7.576   3.971  22.540  0.00  0.00    +0.130 A 
ATOM     23  C   UNL     1       8.479   4.124  23.599  0.00  0.00    +0.058 A 
ATOM     24  I   UNL     1       9.422   5.950  23.952  0.00  0.00    -0.040 I 
ATOM     25  C   UNL     1       8.808   3.023  24.407  0.00  0.00    +0.064 A 
BRANCH  22  26
ATOM     26  O   UNL     1       7.252   4.986  21.685  0.00  0.00    -0.506 OA
ATOM     27  H   UNL     1       7.667   5.800  22.023  0.00  0.00    +0.292 HD
ENDBRANCH  22  26
ENDBRANCH  18  19
ENDBRANCH   5  18
TORSDOF 8
ENDMDL
MODEL 8
REMARK VINA RESULT:      -6.0      5.138      9.429
REMARK  Name = 
REMARK  8 active torsions:
REMARK  status: ('A' for Active; 'I' for Inactive)
REMARK    1  A    between atoms: N_1  and  CA_2
REMARK    2  A    between atoms: CA_2  and  C_4
REMARK    3  A    between atoms: CA_2  and  C_22
REMARK    4  A    between atoms: C_4  and  C_5
REMARK    5  A    between atoms: C_9  and  O_10
REMARK    6  A    between atoms: O_10  and  C_11
REMARK    7  A    between atoms: C_15  and  O_16
REMARK    8  A    between atoms: C_22  and  O_23
REMARK                            x       y       z     vdW  Elec       q    Type
REMARK                         _______ _______ _______ _____ _____    ______ ____
ROOT
ATOM      1  C   UNL     1       9.688   4.867  23.869  0.00  0.00    -0.043 A 
ATOM      2  C   UNL     1       9.627   3.787  22.982  0.00  0.00    +0.021 A 
ATOM      3  C   UNL     1       8.737   2.718  23.194  0.00  0.00    +0.057 A 
ATOM      4  I   UNL     1       9.082   1.044  21.951  0.00  0.00    -0.040 I 
ATOM      5  C   UNL     1       7.814   2.763  24.254  0.00  0.00    +0.155 A 
ATOM      6  C   UNL     1       7.898   3.847  25.151  0.00  0.00    +0.057 A 
ATOM      7  I   UNL     1       6.702   3.952  26.885  0.00  0.00    -0.040 I 
ATOM      8  C   UNL     1       8.825   4.883  24.966  0.00  0.00    +0.021 A 
ENDROOT
BRANCH   1   9
ATOM      9  C   UNL     1      10.709   5.965  23.669  0.00  0.00    +0.065 C 
BRANCH   9  10
ATOM     10  CA  UNL     1      12.124   5.570  24.131  0.00  0.00    +0.165 C 
BRANCH  10  11
ATOM     11  N   UNL     1      12.752   6.563  25.051  0.00  0.00    -0.318 NA
ATOM     12  H1  UNL     1      13.202   7.294  24.488  0.00  0.00    +0.119 HD
ATOM     13  H2  UNL     1      11.997   7.062  25.536  0.00  0.00    +0.119 HD
ENDBRANCH  10  11
BRANCH  10  14
ATOM     14  C   UNL     1      13.053   5.396  22.918  0.00  0.00    +0.322 C 
ATOM     15  OXT UNL     1      12.736   5.534  21.749  0.00  0.00    -0.249 OA
BRANCH  14  16
ATOM     16  O   UNL     1      14.304   5.040  23.310  0.00  0.00    -0.480 OA
ATOM     17  H   UNL     1      14.843   5.868  23.296  0.00  0.00    +0.295 HD
ENDBRANCH  14  16
ENDBRANCH  10  14
ENDBRANCH   9  10
ENDBRANCH   1   9
BRANCH   5  18
ATOM     18  O   UNL     1       6.943   1.761  24.611  0.00  0.00    -0.454 OA
BRANCH  18  19
ATOM     19  C   UNL     1       7.337   0.454  24.764  0.00  0.00    +0.130 A 
ATOM     20  C   UNL     1       8.386   0.282  25.676  0.00  0.00    +0.050 A 
ATOM     21  C   UNL     1       8.982  -0.966  25.846  0.00  0.00    +0.050 A 
ATOM     22  C   UNL     1       8.527  -2.046  25.100  0.00  0.00    +0.130 A 
ATOM     23  C   UNL     1       7.434  -1.903  24.238  0.00  0.00    +0.058 A 
ATOM     24  I   UNL     1       6.765  -3.498  23.075  0.00  0.00    -0.040 I 
ATOM     25  C   UNL     1       6.807  -0.653  24.102  0.00  0.00    +0.064 A 
BRANCH  22  26
ATOM     26  O   UNL     1       9.216  -3.218  25.242  0.00  0.00    -0.506 OA
ATOM     27  H   UNL     1       9.552  -3.253  26.156  0.00  0.00    +0.292 HD
ENDBRANCH  22  26
ENDBRANCH  18  19
ENDBRANCH   5  18
TORSDOF 8
ENDMDL
MODEL 9
REMARK VINA RESULT:      -5.9      5.263      9.512
REMARK  Name = 
REMARK  8 active torsions:
REMARK  status: ('A' for Active; 'I' for Inactive)
REMARK    1  A    between atoms: N_1  and  CA_2
REMARK    2  A    between atoms: CA_2  and  C_4
REMARK    3  A    between atoms: CA_2  and  C_22
REMARK    4  A    between atoms: C_4  and  C_5
REMARK    5  A    between atoms: C_9  and  O_10
REMARK    6  A    between atoms: O_10  and  C_11
REMARK    7  A    between atoms: C_15  and  O_16
REMARK    8  A    between atoms: C_22  and  O_23
REMARK                            x       y       z     vdW  Elec       q    Type
REMARK                         _______ _______ _______ _____ _____    ______ ____
ROOT
ATOM      1  C   UNL     1       9.845   4.754  23.571  0.00  0.00    -0.043 A 
ATOM      2  C   UNL     1      10.368   3.468  23.741  0.00  0.00    +0.021 A 
ATOM      3  C   UNL     1       9.535   2.334  23.728  0.00  0.00    +0.057 A 
ATOM      4  I   UNL     1      10.481   0.557  24.372  0.00  0.00    -0.040 I 
ATOM      5  C   UNL     1       8.165   2.464  23.442  0.00  0.00    +0.155 A 
ATOM      6  C   UNL     1       7.647   3.766  23.292  0.00  0.00    +0.057 A 
ATOM      7  I   UNL     1       5.583   4.122  23.041  0.00  0.00    -0.040 I 
ATOM      8  C   UNL     1       8.473   4.898  23.361  0.00  0.00    +0.021 A 
ENDROOT
BRANCH   1   9
ATOM      9  C   UNL     1      10.745   5.966  23.672  0.00  0.00    +0.065 C 
BRANCH   9  10
ATOM     10  CA  UNL     1      12.176   5.624  24.126  0.00  0.00    +0.165 C 
BRANCH  10  11
ATOM     11  N   UNL     1      12.796   6.671  24.990  0.00  0.00    -0.318 NA
ATOM     12  H1  UNL     1      12.544   7.594  24.620  0.00  0.00    +0.119 HD
ATOM     13  H2  UNL     1      12.328   6.639  25.904  0.00  0.00    +0.119 HD
ENDBRANCH  10  11
BRANCH  10  14
ATOM     14  C   UNL     1      13.089   5.417  22.906  0.00  0.00    +0.322 C 
ATOM     15  OXT UNL     1      12.790   5.634  21.744  0.00  0.00    -0.249 OA
BRANCH  14  16
ATOM     16  O   UNL     1      14.300   4.929  23.281  0.00  0.00    -0.480 OA
ATOM     17  H   UNL     1      14.530   4.229  22.623  0.00  0.00    +0.295 HD
ENDBRANCH  14  16
ENDBRANCH  10  14
ENDBRANCH   9  10
ENDBRANCH   1   9
BRANCH   5  18
ATOM     18  O   UNL     1       7.233   1.452  23.466  0.00  0.00    -0.454 OA
BRANCH  18  19
ATOM     19  C   UNL     1       6.820   0.852  24.631  0.00  0.00    +0.130 A 
ATOM     20  C   UNL     1       6.297  -0.434  24.451  0.00  0.00    +0.050 A 
ATOM     21  C   UNL     1       5.720  -1.122  25.516  0.00  0.00    +0.050 A 
ATOM     22  C   UNL     1       5.665  -0.520  26.767  0.00  0.00    +0.130 A 
ATOM     23  C   UNL     1       6.247   0.735  26.976  0.00  0.00    +0.058 A 
ATOM     24  I   UNL     1       6.136   1.677  28.832  0.00  0.00    -0.040 I 
ATOM     25  C   UNL     1       6.867   1.408  25.909  0.00  0.00    +0.064 A 
BRANCH  22  26
ATOM     26  O   UNL     1       5.002  -1.206  27.745  0.00  0.00    -0.506 OA
ATOM     27  H   UNL     1       4.114  -1.419  27.405  0.00  0.00    +0.292 HD
ENDBRANCH  22  26
ENDBRANCH  18  19
ENDBRANCH   5  18
TORSDOF 8
ENDMDL
