MODEL 1
REMARK VINA RESULT:      -5.9      0.000      0.000
REMARK  Name = 
REMARK  5 active torsions:
REMARK  status: ('A' for Active; 'I' for Inactive)
REMARK    1  A    between atoms: N_1  and  CA_2
REMARK    2  A    between atoms: CA_2  and  CB_4
REMARK    3  A    between atoms: CA_2  and  C_14
REMARK    4  A    between atoms: CB_4  and  CG_5
REMARK    5  A    between atoms: C_14  and  O_15
REMARK                            x       y       z     vdW  Elec       q    Type
REMARK                         _______ _______ _______ _____ _____    ______ ____
ROOT
ATOM      1  CG  TRP A   1       9.730  -1.710  23.180  0.00  0.00    -0.020 A 
ATOM      2  CD2 TRP A   1      10.020  -0.312  23.317  0.00  0.00    +0.003 A 
ATOM      3  CE2 TRP A   1       9.760   0.289  22.084  0.00  0.00    +0.047 A 
ATOM      4  CZ2 TRP A   1       9.942   1.657  21.849  0.00  0.00    +0.026 A 
ATOM      5  CH2 TRP A   1      10.413   2.439  22.905  0.00  0.00    +0.002 A 
ATOM      6  CZ3 TRP A   1      10.686   1.873  24.148  0.00  0.00    +0.001 A 
ATOM      7  NE1 TRP A   1       9.321  -0.698  21.234  0.00  0.00    -0.360 N 
ATOM      8  HE1 TRP A   1       9.060  -0.552  20.268  0.00  0.00    +0.165 HD
ATOM      9  CE3 TRP A   1      10.488   0.504  24.369  0.00  0.00    +0.010 A 
ATOM     10  CD1 TRP A   1       9.296  -1.900  21.881  0.00  0.00    +0.087 A 
ENDROOT
BRANCH   1  11
ATOM     11  CB  TRP A   1       9.851  -2.789  24.218  0.00  0.00    +0.067 C 
BRANCH  11  12
ATOM     12  CA  TRP A   1       8.713  -3.823  24.207  0.00  0.00    +0.165 C 
BRANCH  12  13
ATOM     13  N   TRP A   1       7.373  -3.252  24.572  0.00  0.00    -0.318 NA
ATOM     14  H1  TRP A   1       6.717  -3.498  23.820  0.00  0.00    +0.119 HD
ATOM     15  H2  TRP A   1       7.027  -3.783  25.376  0.00  0.00    +0.119 HD
ENDBRANCH  12  13
BRANCH  12  16
ATOM     16  C   TRP A   1       9.018  -5.013  25.133  0.00  0.00    +0.322 C 
ATOM     17  OXT TRP A   1       8.230  -5.525  25.914  0.00  0.00    -0.249 OA
BRANCH  16  18
ATOM     18  O   TRP A   1      10.314  -5.411  25.016  0.00  0.00    -0.480 OA
ATOM     19  H   TRP A   1      10.291  -6.399  25.074  0.00  0.00    +0.295 HD
ENDBRANCH  16  18
ENDBRANCH  12  16
ENDBRANCH  11  12
ENDBRANCH   1  11
TORSDOF 5
ENDMDL
MODEL 2
REMARK VINA RESULT:      -5.9      2.071      2.743
REMARK  Name = 
REMARK  5 active torsions:
REMARK  status: ('A' for Active; 'I' for Inactive)
REMARK    1  A    between atoms: N_1  and  CA_2
REMARK    2  A    between atoms: CA_2  and  CB_4
REMARK    3  A    between atoms: CA_2  and  C_14
REMARK    4  A    between atoms: CB_4  and  CG_5
REMARK    5  A    between atoms: C_14  and  O_15
REMARK                            x       y       z     vdW  Elec       q    Type
REMARK                         _______ _______ _______ _____ _____    ______ ____
ROOT
ATOM      1  CG  TRP A   1       8.983  -2.093  25.016  0.00  0.00    -0.020 A 
ATOM      2  CD2 TRP A   1       9.399  -1.003  24.181  0.00  0.00    +0.003 A 
ATOM      3  CE2 TRP A   1       9.429   0.143  24.977  0.00  0.00    +0.047 A 
ATOM      4  CZ2 TRP A   1       9.787   1.404  24.486  0.00  0.00    +0.026 A 
ATOM      5  CH2 TRP A   1      10.118   1.503  23.133  0.00  0.00    +0.002 A 
ATOM      6  CZ3 TRP A   1      10.097   0.382  22.308  0.00  0.00    +0.001 A 
ATOM      7  NE1 TRP A   1       9.057  -0.232  26.246  0.00  0.00    -0.360 N 
ATOM      8  HE1 TRP A   1       8.987   0.396  27.035  0.00  0.00    +0.165 HD
ATOM      9  CE3 TRP A   1       9.746  -0.876  22.819  0.00  0.00    +0.010 A 
ATOM     10  CD1 TRP A   1       8.790  -1.571  26.281  0.00  0.00    +0.087 A 
ENDROOT
BRANCH   1  11
ATOM     11  CB  TRP A   1       8.790  -3.532  24.635  0.00  0.00    +0.067 C 
BRANCH  11  12
ATOM     12  CA  TRP A   1       9.113  -4.542  25.749  0.00  0.00    +0.165 C 
BRANCH  12  13
ATOM     13  N   TRP A   1      10.187  -5.525  25.382  0.00  0.00    -0.318 NA
ATOM     14  H1  TRP A   1      10.744  -5.106  24.626  0.00  0.00    +0.119 HD
ATOM     15  H2  TRP A   1      10.841  -5.565  26.168  0.00  0.00    +0.119 HD
ENDBRANCH  12  13
BRANCH  12  16
ATOM     16  C   TRP A   1       7.860  -5.315  26.196  0.00  0.00    +0.322 C 
ATOM     17  OXT TRP A   1       6.832  -5.437  25.547  0.00  0.00    -0.249 OA
BRANCH  16  18
ATOM     18  O   TRP A   1       8.014  -5.821  27.449  0.00  0.00    -0.480 OA
ATOM     19  H   TRP A   1       7.209  -6.374  27.610  0.00  0.00    +0.295 HD
ENDBRANCH  16  18
ENDBRANCH  12  16
ENDBRANCH  11  12
ENDBRANCH   1  11
TORSDOF 5
ENDMDL
MODEL 3
REMARK VINA RESULT:      -5.6      1.943      2.728
REMARK  Name = 
REMARK  5 active torsions:
REMARK  status: ('A' for Active; 'I' for Inactive)
REMARK    1  A    between atoms: N_1  and  CA_2
REMARK    2  A    between atoms: CA_2  and  CB_4
REMARK    3  A    between atoms: CA_2  and  C_14
REMARK    4  A    between atoms: CB_4  and  CG_5
REMARK    5  A    between atoms: C_14  and  O_15
REMARK                            x       y       z     vdW  Elec       q    Type
REMARK                         _______ _______ _______ _____ _____    ______ ____
ROOT
ATOM      1  CG  TRP A   1       7.627  -3.278  23.431  0.00  0.00    -0.020 A 
ATOM      2  CD2 TRP A   1       8.461  -2.153  23.123  0.00  0.00    +0.003 A 
ATOM      3  CE2 TRP A   1       7.620  -1.071  22.861  0.00  0.00    +0.047 A 
ATOM      4  CZ2 TRP A   1       8.096   0.200  22.515  0.00  0.00    +0.026 A 
ATOM      5  CH2 TRP A   1       9.478   0.372  22.426  0.00  0.00    +0.002 A 
ATOM      6  CZ3 TRP A   1      10.348  -0.686  22.678  0.00  0.00    +0.001 A 
ATOM      7  NE1 TRP A   1       6.327  -1.514  23.011  0.00  0.00    -0.360 N 
ATOM      8  HE1 TRP A   1       5.504  -0.943  22.880  0.00  0.00    +0.165 HD
ATOM      9  CE3 TRP A   1       9.855  -1.949  23.033  0.00  0.00    +0.010 A 
ATOM     10  CD1 TRP A   1       6.320  -2.835  23.355  0.00  0.00    +0.087 A 
ENDROOT
BRANCH   1  11
ATOM     11  CB  TRP A   1       8.047  -4.677  23.779  0.00  0.00    +0.067 C 
BRANCH  11  12
ATOM     12  CA  TRP A   1       8.615  -4.845  25.198  0.00  0.00    +0.165 C 
BRANCH  12  13
ATOM     13  N   TRP A   1       9.855  -5.690  25.257  0.00  0.00    -0.318 NA
ATOM     14  H1  TRP A   1       9.578  -6.661  25.062  0.00  0.00    +0.119 HD
ATOM     15  H2  TRP A   1      10.432  -5.438  24.450  0.00  0.00    +0.119 HD
ENDBRANCH  12  13
BRANCH  12  16
ATOM     16  C   TRP A   1       7.568  -5.427  26.164  0.00  0.00    +0.322 C 
ATOM     17  OXT TRP A   1       6.374  -5.542  25.931  0.00  0.00    -0.249 OA
BRANCH  16  18
ATOM     18  O   TRP A   1       8.130  -5.763  27.356  0.00  0.00    -0.480 OA
ATOM     19  H   TRP A   1       9.107  -5.676  27.219  0.00  0.00    +0.295 HD
ENDBRANCH  16  18
ENDBRANCH  12  16
ENDBRANCH  11  12
ENDBRANCH   1  11
TORSDOF 5
ENDMDL
MODEL 4
REMARK VINA RESULT:      -5.5      3.302      5.918
REMARK  Name = 
REMARK  5 active torsions:
REMARK  status: ('A' for Active; 'I' for Inactive)
REMARK    1  A    between atoms: N_1  and  CA_2
REMARK    2  A    between atoms: CA_2  and  CB_4
REMARK    3  A    between atoms: CA_2  and  C_14
REMARK    4  A    between atoms: CB_4  and  CG_5
REMARK    5  A    between atoms: C_14  and  O_15
REMARK                            x       y       z     vdW  Elec       q    Type
REMARK                         _______ _______ _______ _____ _____    ______ ____
ROOT
ATOM      1  CG  TRP A   1       8.247  -1.667  23.393  0.00  0.00    -0.020 A 
ATOM      2  CD2 TRP A   1       7.681  -2.916  22.973  0.00  0.00    +0.003 A 
ATOM      3  CE2 TRP A   1       8.219  -3.912  23.789  0.00  0.00    +0.047 A 
ATOM      4  CZ2 TRP A   1       7.891  -5.267  23.656  0.00  0.00    +0.026 A 
ATOM      5  CH2 TRP A   1       6.990  -5.620  22.649  0.00  0.00    +0.002 A 
ATOM      6  CZ3 TRP A   1       6.436  -4.653  21.814  0.00  0.00    +0.001 A 
ATOM      7  NE1 TRP A   1       9.069  -3.297  24.676  0.00  0.00    -0.360 N 
ATOM      8  HE1 TRP A   1       9.603  -3.776  25.388  0.00  0.00    +0.165 HD
ATOM      9  CE3 TRP A   1       6.767  -3.300  21.968  0.00  0.00    +0.010 A 
ATOM     10  CD1 TRP A   1       9.092  -1.951  24.450  0.00  0.00    +0.087 A 
ENDROOT
BRANCH   1  11
ATOM     11  CB  TRP A   1       7.995  -0.297  22.831  0.00  0.00    +0.067 C 
BRANCH  11  12
ATOM     12  CA  TRP A   1       9.021   0.168  21.784  0.00  0.00    +0.165 C 
BRANCH  12  13
ATOM     13  N   TRP A   1       9.804  -0.954  21.164  0.00  0.00    -0.318 NA
ATOM     14  H1  TRP A   1      10.755  -0.919  21.553  0.00  0.00    +0.119 HD
ATOM     15  H2  TRP A   1       9.424  -1.829  21.536  0.00  0.00    +0.119 HD
ENDBRANCH  12  13
BRANCH  12  16
ATOM     16  C   TRP A   1      10.002   1.199  22.368  0.00  0.00    +0.322 C 
ATOM     17  OXT TRP A   1      10.571   1.106  23.445  0.00  0.00    -0.249 OA
BRANCH  16  18
ATOM     18  O   TRP A   1      10.130   2.277  21.548  0.00  0.00    -0.480 OA
ATOM     19  H   TRP A   1       9.212   2.480  21.237  0.00  0.00    +0.295 HD
ENDBRANCH  16  18
ENDBRANCH  12  16
ENDBRANCH  11  12
ENDBRANCH   1  11
TORSDOF 5
ENDMDL
MODEL 5
REMARK VINA RESULT:      -5.5      2.033      2.599
REMARK  Name = 
REMARK  5 active torsions:
REMARK  status: ('A' for Active; 'I' for Inactive)
REMARK    1  A    between atoms: N_1  and  CA_2
REMARK    2  A    between atoms: CA_2  and  CB_4
REMARK    3  A    between atoms: CA_2  and  C_14
REMARK    4  A    between atoms: CB_4  and  CG_5
REMARK    5  A    between atoms: C_14  and  O_15
REMARK                            x       y       z     vdW  Elec       q    Type
REMARK                         _______ _______ _______ _____ _____    ______ ____
ROOT
ATOM      1  CG  TRP A   1       9.610  -1.228  24.390  0.00  0.00    -0.020 A 
ATOM      2  CD2 TRP A   1       9.717   0.052  23.753  0.00  0.00    +0.003 A 
ATOM      3  CE2 TRP A   1       9.347   1.017  24.691  0.00  0.00    +0.047 A 
ATOM      4  CZ2 TRP A   1       9.327   2.388  24.408  0.00  0.00    +0.026 A 
ATOM      5  CH2 TRP A   1       9.690   2.790  23.121  0.00  0.00    +0.002 A 
ATOM      6  CZ3 TRP A   1      10.063   1.855  22.159  0.00  0.00    +0.001 A 
ATOM      7  NE1 TRP A   1       9.035   0.355  25.855  0.00  0.00    -0.360 N 
ATOM      8  HE1 TRP A   1       8.729   0.803  26.707  0.00  0.00    +0.165 HD
ATOM      9  CE3 TRP A   1      10.087   0.487  22.462  0.00  0.00    +0.010 A 
ATOM     10  CD1 TRP A   1       9.192  -0.991  25.687  0.00  0.00    +0.087 A 
ENDROOT
BRANCH   1  11
ATOM     11  CB  TRP A   1       9.892  -2.583  23.807  0.00  0.00    +0.067 C 
BRANCH  11  12
ATOM     12  CA  TRP A   1       9.170  -3.747  24.505  0.00  0.00    +0.165 C 
BRANCH  12  13
ATOM     13  N   TRP A   1      10.079  -4.880  24.887  0.00  0.00    -0.318 NA
ATOM     14  H1  TRP A   1      10.602  -5.155  24.045  0.00  0.00    +0.119 HD
ATOM     15  H2  TRP A   1      10.801  -4.494  25.503  0.00  0.00    +0.119 HD
ENDBRANCH  12  13
BRANCH  12  16
ATOM     16  C   TRP A   1       8.019  -4.299  23.647  0.00  0.00    +0.322 C 
ATOM     17  OXT TRP A   1       7.735  -5.479  23.514  0.00  0.00    -0.249 OA
BRANCH  16  18
ATOM     18  O   TRP A   1       7.364  -3.298  22.998  0.00  0.00    -0.480 OA
ATOM     19  H   TRP A   1       6.542  -3.136  23.526  0.00  0.00    +0.295 HD
ENDBRANCH  16  18
ENDBRANCH  12  16
ENDBRANCH  11  12
ENDBRANCH   1  11
TORSDOF 5
ENDMDL
MODEL 6
REMARK VINA RESULT:      -5.4      1.420      1.731
REMARK  Name = 
REMARK  5 active torsions:
REMARK  status: ('A' for Active; 'I' for Inactive)
REMARK    1  A    between atoms: N_1  and  CA_2
REMARK    2  A    between atoms: CA_2  and  CB_4
REMARK    3  A    between atoms: CA_2  and  C_14
REMARK    4  A    between atoms: CB_4  and  CG_5
REMARK    5  A    between atoms: C_14  and  O_15
REMARK                            x       y       z     vdW  Elec       q    Type
REMARK                         _______ _______ _______ _____ _____    ______ ____
ROOT
ATOM      1  CG  TRP A   1       8.665  -2.110  24.262  0.00  0.00    -0.020 A 
ATOM      2  CD2 TRP A   1       9.218  -0.879  23.776  0.00  0.00    +0.003 A 
ATOM      3  CE2 TRP A   1       9.049  -0.866  22.391  0.00  0.00    +0.047 A 
ATOM      4  CZ2 TRP A   1       9.482   0.190  21.580  0.00  0.00    +0.026 A 
ATOM      5  CH2 TRP A   1      10.116   1.268  22.202  0.00  0.00    +0.002 A 
ATOM      6  CZ3 TRP A   1      10.304   1.287  23.581  0.00  0.00    +0.001 A 
ATOM      7  NE1 TRP A   1       8.412  -2.034  22.046  0.00  0.00    -0.360 N 
ATOM      8  HE1 TRP A   1       8.162  -2.296  21.103  0.00  0.00    +0.165 HD
ATOM      9  CE3 TRP A   1       9.856   0.226  24.379  0.00  0.00    +0.010 A 
ATOM     10  CD1 TRP A   1       8.174  -2.786  23.160  0.00  0.00    +0.087 A 
ENDROOT
BRANCH   1  11
ATOM     11  CB  TRP A   1       8.603  -2.605  25.678  0.00  0.00    +0.067 C 
BRANCH  11  12
ATOM     12  CA  TRP A   1       7.703  -3.833  25.892  0.00  0.00    +0.165 C 
BRANCH  12  13
ATOM     13  N   TRP A   1       6.730  -3.680  27.026  0.00  0.00    -0.318 NA
ATOM     14  H1  TRP A   1       6.467  -2.687  27.076  0.00  0.00    +0.119 HD
ATOM     15  H2  TRP A   1       5.862  -4.144  26.745  0.00  0.00    +0.119 HD
ENDBRANCH  12  13
BRANCH  12  16
ATOM     16  C   TRP A   1       8.529  -5.112  26.113  0.00  0.00    +0.322 C 
ATOM     17  OXT TRP A   1       9.354  -5.567  25.335  0.00  0.00    -0.249 OA
BRANCH  16  18
ATOM     18  O   TRP A   1       8.192  -5.721  27.282  0.00  0.00    -0.480 OA
ATOM     19  H   TRP A   1       8.453  -5.084  27.994  0.00  0.00    +0.295 HD
ENDBRANCH  16  18
ENDBRANCH  12  16
ENDBRANCH  11  12
ENDBRANCH   1  11
TORSDOF 5
ENDMDL
MODEL 7
REMARK VINA RESULT:      -5.2      3.994      5.832
REMARK  Name = 
REMARK  5 active torsions:
REMARK  status: ('A' for Active; 'I' for Inactive)
REMARK    1  A    between atoms: N_1  and  CA_2
REMARK    2  A    between atoms: CA_2  and  CB_4
REMARK    3  A    between atoms: CA_2  and  C_14
REMARK    4  A    between atoms: CB_4  and  CG_5
REMARK    5  A    between atoms: C_14  and  O_15
REMARK                            x       y       z     vdW  Elec       q    Type
REMARK                         _______ _______ _______ _____ _____    ______ ____
ROOT
ATOM      1  CG  TRP A   1      10.266  -0.194  23.713  0.00  0.00    -0.020 A 
ATOM      2  CD2 TRP A   1       9.530  -0.858  24.750  0.00  0.00    +0.003 A 
ATOM      3  CE2 TRP A   1       9.275  -2.158  24.311  0.00  0.00    +0.047 A 
ATOM      4  CZ2 TRP A   1       8.566  -3.095  25.073  0.00  0.00    +0.026 A 
ATOM      5  CH2 TRP A   1       8.092  -2.690  26.322  0.00  0.00    +0.002 A 
ATOM      6  CZ3 TRP A   1       8.325  -1.400  26.791  0.00  0.00    +0.001 A 
ATOM      7  NE1 TRP A   1       9.839  -2.286  23.064  0.00  0.00    -0.360 N 
ATOM      8  HE1 TRP A   1       9.808  -3.125  22.502  0.00  0.00    +0.165 HD
ATOM      9  CE3 TRP A   1       9.046  -0.478  26.020  0.00  0.00    +0.010 A 
ATOM     10  CD1 TRP A   1      10.438  -1.115  22.697  0.00  0.00    +0.087 A 
ENDROOT
BRANCH   1  11
ATOM     11  CB  TRP A   1      10.775   1.219  23.695  0.00  0.00    +0.067 C 
BRANCH  11  12
ATOM     12  CA  TRP A   1       9.804   2.246  23.091  0.00  0.00    +0.165 C 
BRANCH  12  13
ATOM     13  N   TRP A   1       9.770   2.235  21.589  0.00  0.00    -0.318 NA
ATOM     14  H1  TRP A   1      10.493   2.888  21.259  0.00  0.00    +0.119 HD
ATOM     15  H2  TRP A   1      10.115   1.321  21.285  0.00  0.00    +0.119 HD
ENDBRANCH  12  13
BRANCH  12  16
ATOM     16  C   TRP A   1      10.113   3.673  23.573  0.00  0.00    +0.322 C 
ATOM     17  OXT TRP A   1       9.385   4.359  24.273  0.00  0.00    -0.249 OA
BRANCH  16  18
ATOM     18  O   TRP A   1      11.301   4.114  23.079  0.00  0.00    -0.480 OA
ATOM     19  H   TRP A   1      11.927   4.099  23.846  0.00  0.00    +0.295 HD
ENDBRANCH  16  18
ENDBRANCH  12  16
ENDBRANCH  11  12
ENDBRANCH   1  11
TORSDOF 5
ENDMDL
MODEL 8
REMARK VINA RESULT:      -5.1      3.669      5.636
REMARK  Name = 
REMARK  5 active torsions:
REMARK  status: ('A' for Active; 'I' for Inactive)
REMARK    1  A    between atoms: N_1  and  CA_2
REMARK    2  A    between atoms: CA_2  and  CB_4
REMARK    3  A    between atoms: CA_2  and  C_14
REMARK    4  A    between atoms: CB_4  and  CG_5
REMARK    5  A    between atoms: C_14  and  O_15
REMARK                            x       y       z     vdW  Elec       q    Type
REMARK                         _______ _______ _______ _____ _____    ______ ____
ROOT
ATOM      1  CG  TRP A   1       8.727  -0.730  23.024  0.00  0.00    -0.020 A 
ATOM      2  CD2 TRP A   1       8.376  -2.009  23.570  0.00  0.00    +0.003 A 
ATOM      3  CE2 TRP A   1       6.984  -2.059  23.652  0.00  0.00    +0.047 A 
ATOM      4  CZ2 TRP A   1       6.287  -3.166  24.151  0.00  0.00    +0.026 A 
ATOM      5  CH2 TRP A   1       7.037  -4.260  24.589  0.00  0.00    +0.002 A 
ATOM      6  CZ3 TRP A   1       8.428  -4.245  24.525  0.00  0.00    +0.001 A 
ATOM      7  NE1 TRP A   1       6.504  -0.865  23.168  0.00  0.00    -0.360 N 
ATOM      8  HE1 TRP A   1       5.526  -0.619  23.110  0.00  0.00    +0.165 HD
ATOM      9  CE3 TRP A   1       9.109  -3.131  24.013  0.00  0.00    +0.010 A 
ATOM     10  CD1 TRP A   1       7.541  -0.062  22.786  0.00  0.00    +0.087 A 
ENDROOT
BRANCH   1  11
ATOM     11  CB  TRP A   1      10.098  -0.186  22.742  0.00  0.00    +0.067 C 
BRANCH  11  12
ATOM     12  CA  TRP A   1      10.546   0.946  23.680  0.00  0.00    +0.165 C 
BRANCH  12  13
ATOM     13  N   TRP A   1       9.956   0.859  25.059  0.00  0.00    -0.318 NA
ATOM     14  H1  TRP A   1       8.933   0.855  24.957  0.00  0.00    +0.119 HD
ATOM     15  H2  TRP A   1      10.166  -0.076  25.419  0.00  0.00    +0.119 HD
ENDBRANCH  12  13
BRANCH  12  16
ATOM     16  C   TRP A   1      10.233   2.332  23.090  0.00  0.00    +0.322 C 
ATOM     17  OXT TRP A   1       9.949   3.330  23.734  0.00  0.00    -0.249 OA
BRANCH  16  18
ATOM     18  O   TRP A   1      10.265   2.307  21.730  0.00  0.00    -0.480 OA
ATOM     19  H   TRP A   1       9.860   1.440  21.474  0.00  0.00    +0.295 HD
ENDBRANCH  16  18
ENDBRANCH  12  16
ENDBRANCH  11  12
ENDBRANCH   1  11
TORSDOF 5
ENDMDL
MODEL 9
REMARK VINA RESULT:      -5.1      2.932      3.526
REMARK  Name = 
REMARK  5 active torsions:
REMARK  status: ('A' for Active; 'I' for Inactive)
REMARK    1  A    between atoms: N_1  and  CA_2
REMARK    2  A    between atoms: CA_2  and  CB_4
REMARK    3  A    between atoms: CA_2  and  C_14
REMARK    4  A    between atoms: CB_4  and  CG_5
REMARK    5  A    between atoms: C_14  and  O_15
REMARK                            x       y       z     vdW  Elec       q    Type
REMARK                         _______ _______ _______ _____ _____    ______ ____
ROOT
ATOM      1  CG  TRP A   1       6.962  -2.195  23.428  0.00  0.00    -0.020 A 
ATOM      2  CD2 TRP A   1       7.796  -1.246  22.747  0.00  0.00    +0.003 A 
ATOM      3  CE2 TRP A   1       7.285   0.024  23.016  0.00  0.00    +0.047 A 
ATOM      4  CZ2 TRP A   1       7.850   1.198  22.503  0.00  0.00    +0.026 A 
ATOM      5  CH2 TRP A   1       8.971   1.071  21.679  0.00  0.00    +0.002 A 
ATOM      6  CZ3 TRP A   1       9.505  -0.180  21.387  0.00  0.00    +0.001 A 
ATOM      7  NE1 TRP A   1       6.193  -0.140  23.834  0.00  0.00    -0.360 N 
ATOM      8  HE1 TRP A   1       5.620   0.614  24.188  0.00  0.00    +0.165 HD
ATOM      9  CE3 TRP A   1       8.933  -1.344  21.918  0.00  0.00    +0.010 A 
ATOM     10  CD1 TRP A   1       5.992  -1.466  24.089  0.00  0.00    +0.087 A 
ENDROOT
BRANCH   1  11
ATOM     11  CB  TRP A   1       7.087  -3.691  23.452  0.00  0.00    +0.067 C 
BRANCH  11  12
ATOM     12  CA  TRP A   1       6.555  -4.402  22.196  0.00  0.00    +0.165 C 
BRANCH  12  13
ATOM     13  N   TRP A   1       5.623  -3.559  21.374  0.00  0.00    -0.318 NA
ATOM     14  H1  TRP A   1       5.237  -2.832  21.990  0.00  0.00    +0.119 HD
ATOM     15  H2  TRP A   1       6.197  -3.033  20.710  0.00  0.00    +0.119 HD
ENDBRANCH  12  13
BRANCH  12  16
ATOM     16  C   TRP A   1       5.855  -5.726  22.546  0.00  0.00    +0.322 C 
ATOM     17  OXT TRP A   1       5.559  -6.097  23.672  0.00  0.00    -0.249 OA
BRANCH  16  18
ATOM     18  O   TRP A   1       5.640  -6.479  21.433  0.00  0.00    -0.480 OA
ATOM     19  H   TRP A   1       6.250  -7.254  21.519  0.00  0.00    +0.295 HD
ENDBRANCH  16  18
ENDBRANCH  12  16
ENDBRANCH  11  12
ENDBRANCH   1  11
TORSDOF 5
ENDMDL
