MODEL 1
REMARK VINA RESULT:      -9.1      0.000      0.000
REMARK  Name = 
REMARK  7 active torsions:
REMARK  status: ('A' for Active; 'I' for Inactive)
REMARK    1  A    between atoms: N_4  and  C_5
REMARK    2  A    between atoms: C_5  and  C_7
REMARK    3  A    between atoms: C_5  and  C_13
REMARK    4  A    between atoms: N_15  and  C_16
REMARK    5  A    between atoms: C_16  and  C_17
REMARK    6  A    between atoms: C_22  and  C_25
REMARK    7  A    between atoms: C_27  and  C_30
REMARK                            x       y       z     vdW  Elec       q    Type
REMARK                         _______ _______ _______ _____ _____    ______ ____
ROOT
ATOM      1  C   UNL     1       6.019  -2.624  24.217  0.00  0.00    +0.233 C 
ATOM      2  N   UNL     1       7.248  -2.067  23.869  0.00  0.00    -0.300 N 
ATOM      3  C   UNL     1       7.477  -1.710  22.470  0.00  0.00    +0.108 C 
ATOM      4  C   UNL     1       8.928  -1.936  22.057  0.00  0.00    +0.029 C 
ATOM      5  C   UNL     1       9.921  -1.269  23.017  0.00  0.00    +0.042 C 
ATOM      6  C   UNL     1       9.610  -1.655  24.466  0.00  0.00    +0.029 C 
ATOM      7  C   UNL     1       8.147  -1.436  24.835  0.00  0.00    +0.108 C 
ATOM      8  O   UNL     1       5.217  -3.037  23.376  0.00  0.00    -0.274 OA
ENDROOT
BRANCH   5   9
ATOM      9  C   UNL     1      10.004   0.219  22.797  0.00  0.00    +0.067 A 
ATOM     10  N   UNL     1       9.757   0.764  21.605  0.00  0.00    -0.178 NA
ATOM     11  N   UNL     1       9.996   2.069  21.781  0.00  0.00    -0.277 N 
ATOM     12  H   UNL     1       9.890   2.686  20.980  0.00  0.00    +0.189 HD
ATOM     13  C   UNL     1      10.386   2.408  23.045  0.00  0.00    +0.067 A 
ATOM     14  C   UNL     1      10.364   1.209  23.739  0.00  0.00    +0.053 A 
BRANCH  13  15
ATOM     15  C   UNL     1      10.719   3.769  23.486  0.00  0.00    +0.020 A 
ATOM     16  C   UNL     1       9.798   4.663  24.084  0.00  0.00    +0.068 A 
ATOM     17 CL   UNL     1       8.139   4.203  24.348  0.00  0.00    -0.081 Cl
ATOM     18  C   UNL     1      10.217   5.956  24.450  0.00  0.00    +0.060 A 
ATOM     19 CL   UNL     1       9.153   7.108  25.184  0.00  0.00    -0.082 Cl
ATOM     20  C   UNL     1      11.533   6.365  24.225  0.00  0.00    +0.021 A 
ATOM     21  C   UNL     1      12.444   5.493  23.642  0.00  0.00    +0.002 A 
ATOM     22  C   UNL     1      12.040   4.210  23.278  0.00  0.00    +0.011 A 
ENDBRANCH  13  15
ENDBRANCH   5   9
BRANCH   1  23
ATOM     23  C   UNL     1       5.707  -2.774  25.708  0.00  0.00    +0.200 C 
BRANCH  23  25
ATOM     24  C   UNL     1       4.210  -4.704  26.206  0.00  0.00    +0.251 C 
ATOM     25  N   UNL     1       5.455  -4.166  26.011  0.00  0.00    -0.304 N 
ATOM     26  H   UNL     1       6.231  -4.817  25.940  0.00  0.00    +0.149 HD
ATOM     27  O   UNL     1       3.202  -4.005  26.244  0.00  0.00    -0.272 OA
BRANCH  24  28
ATOM     28  C   UNL     1       4.194  -6.231  26.473  0.00  0.00    +0.233 C 
BRANCH  28  33
ATOM     29  N   UNL     1       4.230  -7.499  29.224  0.00  0.00    -0.289 N 
ATOM     30  H   UNL     1       3.349  -7.121  28.913  0.00  0.00    +0.255 HD
ATOM     31  H   UNL     1       4.253  -7.634  30.227  0.00  0.00    +0.255 HD
ATOM     32  C   UNL     1       5.354  -7.050  28.646  0.00  0.00    +0.377 C 
ATOM     33  N   UNL     1       5.307  -6.624  27.367  0.00  0.00    -0.265 N 
ATOM     34  H   UNL     1       6.220  -6.300  27.058  0.00  0.00    +0.259 HD
ATOM     35  N   UNL     1       6.499  -7.125  29.226  0.00  0.00    -0.130 NA
ATOM     36  H   UNL     1       6.388  -7.556  30.146  0.00  0.00    +0.306 HD
ENDBRANCH  28  33
BRANCH  28  37
ATOM     37  C   UNL     1       4.130  -7.156  25.217  0.00  0.00    +0.035 C 
ATOM     38  C   UNL     1       4.405  -6.540  23.817  0.00  0.00    +0.007 C 
ATOM     39  C   UNL     1       3.222  -5.969  23.013  0.00  0.00    +0.000 C 
ATOM     40  C   UNL     1       1.858  -6.602  23.273  0.00  0.00    +0.000 C 
ATOM     41  C   UNL     1       1.668  -6.936  24.739  0.00  0.00    +0.000 C 
ATOM     42  C   UNL     1       2.779  -7.891  25.162  0.00  0.00    +0.007 C 
ENDBRANCH  28  37
ENDBRANCH  24  28
ENDBRANCH  23  25
ENDBRANCH   1  23
TORSDOF 7
ENDMDL
MODEL 2
REMARK VINA RESULT:      -8.7      2.673      3.329
REMARK  Name = 
REMARK  7 active torsions:
REMARK  status: ('A' for Active; 'I' for Inactive)
REMARK    1  A    between atoms: N_4  and  C_5
REMARK    2  A    between atoms: C_5  and  C_7
REMARK    3  A    between atoms: C_5  and  C_13
REMARK    4  A    between atoms: N_15  and  C_16
REMARK    5  A    between atoms: C_16  and  C_17
REMARK    6  A    between atoms: C_22  and  C_25
REMARK    7  A    between atoms: C_27  and  C_30
REMARK                            x       y       z     vdW  Elec       q    Type
REMARK                         _______ _______ _______ _____ _____    ______ ____
ROOT
ATOM      1  C   UNL     1       9.027  -3.232  24.866  0.00  0.00    +0.233 C 
ATOM      2  N   UNL     1       9.389  -1.990  24.349  0.00  0.00    -0.300 N 
ATOM      3  C   UNL     1       9.450  -1.834  22.897  0.00  0.00    +0.108 C 
ATOM      4  C   UNL     1      10.568  -0.885  22.475  0.00  0.00    +0.029 C 
ATOM      5  C   UNL     1      10.513   0.454  23.221  0.00  0.00    +0.042 C 
ATOM      6  C   UNL     1      10.418   0.223  24.732  0.00  0.00    +0.029 C 
ATOM      7  C   UNL     1       9.305  -0.746  25.114  0.00  0.00    +0.108 C 
ATOM      8  O   UNL     1       8.982  -4.251  24.173  0.00  0.00    -0.274 OA
ENDROOT
BRANCH   5   9
ATOM      9  C   UNL     1       9.433   1.355  22.682  0.00  0.00    +0.067 A 
ATOM     10  N   UNL     1       8.956   1.212  21.445  0.00  0.00    -0.178 NA
ATOM     11  N   UNL     1       8.083   2.216  21.308  0.00  0.00    -0.277 N 
ATOM     12  H   UNL     1       7.607   2.315  20.415  0.00  0.00    +0.189 HD
ATOM     13  C   UNL     1       7.960   3.015  22.409  0.00  0.00    +0.067 A 
ATOM     14  C   UNL     1       8.816   2.444  23.338  0.00  0.00    +0.053 A 
BRANCH  13  15
ATOM     15  C   UNL     1       7.081   4.187  22.504  0.00  0.00    +0.020 A 
ATOM     16  C   UNL     1       5.744   4.148  22.971  0.00  0.00    +0.068 A 
ATOM     17 CL   UNL     1       5.014   2.652  23.483  0.00  0.00    -0.081 Cl
ATOM     18  C   UNL     1       4.980   5.329  23.000  0.00  0.00    +0.060 A 
ATOM     19 CL   UNL     1       3.341   5.365  23.555  0.00  0.00    -0.082 Cl
ATOM     20  C   UNL     1       5.528   6.539  22.569  0.00  0.00    +0.021 A 
ATOM     21  C   UNL     1       6.839   6.587  22.112  0.00  0.00    +0.002 A 
ATOM     22  C   UNL     1       7.606   5.424  22.082  0.00  0.00    +0.011 A 
ENDBRANCH  13  15
ENDBRANCH   5   9
BRANCH   1  23
ATOM     23  C   UNL     1       8.741  -3.317  26.367  0.00  0.00    +0.200 C 
BRANCH  23  25
ATOM     24  C   UNL     1       6.845  -4.718  27.179  0.00  0.00    +0.251 C 
ATOM     25  N   UNL     1       7.336  -3.589  26.577  0.00  0.00    -0.304 N 
ATOM     26  H   UNL     1       6.674  -2.842  26.394  0.00  0.00    +0.149 HD
ATOM     27  O   UNL     1       7.576  -5.652  27.495  0.00  0.00    -0.272 OA
BRANCH  24  28
ATOM     28  C   UNL     1       5.303  -4.759  27.330  0.00  0.00    +0.233 C 
BRANCH  28  33
ATOM     29  N   UNL     1       5.496  -7.585  28.404  0.00  0.00    -0.289 N 
ATOM     30  H   UNL     1       5.619  -7.471  27.410  0.00  0.00    +0.255 HD
ATOM     31  H   UNL     1       5.282  -8.542  28.653  0.00  0.00    +0.255 HD
ATOM     32  C   UNL     1       4.851  -6.623  29.080  0.00  0.00    +0.377 C 
ATOM     33  N   UNL     1       4.913  -5.352  28.629  0.00  0.00    -0.265 N 
ATOM     34  H   UNL     1       4.373  -4.730  29.224  0.00  0.00    +0.259 HD
ATOM     35  N   UNL     1       4.277  -6.846  30.208  0.00  0.00    -0.130 NA
ATOM     36  H   UNL     1       4.396  -7.828  30.464  0.00  0.00    +0.306 HD
ENDBRANCH  28  33
BRANCH  28  37
ATOM     37  C   UNL     1       4.507  -5.408  26.155  0.00  0.00    +0.035 C 
ATOM     38  C   UNL     1       5.294  -6.029  24.967  0.00  0.00    +0.007 C 
ATOM     39  C   UNL     1       5.643  -5.136  23.763  0.00  0.00    +0.000 C 
ATOM     40  C   UNL     1       4.689  -3.979  23.476  0.00  0.00    +0.000 C 
ATOM     41  C   UNL     1       4.188  -3.339  24.755  0.00  0.00    +0.000 C 
ATOM     42  C   UNL     1       3.485  -4.408  25.585  0.00  0.00    +0.007 C 
ENDBRANCH  28  37
ENDBRANCH  24  28
ENDBRANCH  23  25
ENDBRANCH   1  23
TORSDOF 7
ENDMDL
MODEL 3
REMARK VINA RESULT:      -8.4      2.432      2.902
REMARK  Name = 
REMARK  7 active torsions:
REMARK  status: ('A' for Active; 'I' for Inactive)
REMARK    1  A    between atoms: N_4  and  C_5
REMARK    2  A    between atoms: C_5  and  C_7
REMARK    3  A    between atoms: C_5  and  C_13
REMARK    4  A    between atoms: N_15  and  C_16
REMARK    5  A    between atoms: C_16  and  C_17
REMARK    6  A    between atoms: C_22  and  C_25
REMARK    7  A    between atoms: C_27  and  C_30
REMARK                            x       y       z     vdW  Elec       q    Type
REMARK                         _______ _______ _______ _____ _____    ______ ____
ROOT
ATOM      1  C   UNL     1       8.757  -3.399  24.774  0.00  0.00    +0.233 C 
ATOM      2  N   UNL     1       9.191  -2.154  24.323  0.00  0.00    -0.300 N 
ATOM      3  C   UNL     1       9.359  -1.958  22.884  0.00  0.00    +0.108 C 
ATOM      4  C   UNL     1      10.533  -1.034  22.571  0.00  0.00    +0.029 C 
ATOM      5  C   UNL     1      10.465   0.284  23.352  0.00  0.00    +0.042 C 
ATOM      6  C   UNL     1      10.257   0.013  24.845  0.00  0.00    +0.029 C 
ATOM      7  C   UNL     1       9.091  -0.931  25.118  0.00  0.00    +0.108 C 
ATOM      8  O   UNL     1       8.730  -4.394  24.048  0.00  0.00    -0.274 OA
ENDROOT
BRANCH   5   9
ATOM      9  C   UNL     1       9.453   1.235  22.768  0.00  0.00    +0.067 A 
ATOM     10  N   UNL     1       9.127   1.201  21.476  0.00  0.00    -0.178 NA
ATOM     11  N   UNL     1       8.273   2.219  21.322  0.00  0.00    -0.277 N 
ATOM     12  H   UNL     1       7.905   2.397  20.391  0.00  0.00    +0.189 HD
ATOM     13  C   UNL     1       8.016   2.921  22.464  0.00  0.00    +0.067 A 
ATOM     14  C   UNL     1       8.758   2.267  23.437  0.00  0.00    +0.053 A 
BRANCH  13  15
ATOM     15  C   UNL     1       7.127   4.086  22.554  0.00  0.00    +0.020 A 
ATOM     16  C   UNL     1       5.794   4.039  23.032  0.00  0.00    +0.068 A 
ATOM     17 CL   UNL     1       5.081   2.543  23.565  0.00  0.00    -0.081 Cl
ATOM     18  C   UNL     1       5.020   5.213  23.055  0.00  0.00    +0.060 A 
ATOM     19 CL   UNL     1       3.384   5.241  23.622  0.00  0.00    -0.082 Cl
ATOM     20  C   UNL     1       5.553   6.424  22.608  0.00  0.00    +0.021 A 
ATOM     21  C   UNL     1       6.860   6.480  22.140  0.00  0.00    +0.002 A 
ATOM     22  C   UNL     1       7.637   5.323  22.116  0.00  0.00    +0.011 A 
ENDBRANCH  13  15
ENDBRANCH   5   9
BRANCH   1  23
ATOM     23  C   UNL     1       8.364  -3.518  26.249  0.00  0.00    +0.200 C 
BRANCH  23  25
ATOM     24  C   UNL     1       6.047  -4.434  26.363  0.00  0.00    +0.251 C 
ATOM     25  N   UNL     1       7.408  -4.592  26.408  0.00  0.00    -0.304 N 
ATOM     26  H   UNL     1       7.760  -5.545  26.417  0.00  0.00    +0.149 HD
ATOM     27  O   UNL     1       5.528  -3.325  26.289  0.00  0.00    -0.272 OA
BRANCH  24  28
ATOM     28  C   UNL     1       5.233  -5.745  26.515  0.00  0.00    +0.233 C 
BRANCH  28  33
ATOM     29  N   UNL     1       5.059  -5.762  29.539  0.00  0.00    -0.289 N 
ATOM     30  H   UNL     1       4.741  -4.926  29.074  0.00  0.00    +0.255 HD
ATOM     31  H   UNL     1       5.249  -5.601  30.520  0.00  0.00    +0.255 HD
ATOM     32  C   UNL     1       5.900  -6.574  28.883  0.00  0.00    +0.377 C 
ATOM     33  N   UNL     1       5.840  -6.629  27.536  0.00  0.00    -0.265 N 
ATOM     34  H   UNL     1       6.536  -7.270  27.167  0.00  0.00    +0.259 HD
ATOM     35  N   UNL     1       6.678  -7.394  29.495  0.00  0.00    -0.130 NA
ATOM     36  H   UNL     1       6.543  -7.304  30.505  0.00  0.00    +0.306 HD
ENDBRANCH  28  33
BRANCH  28  37
ATOM     37  C   UNL     1       4.929  -6.530  25.201  0.00  0.00    +0.035 C 
ATOM     38  C   UNL     1       5.329  -5.898  23.839  0.00  0.00    +0.007 C 
ATOM     39  C   UNL     1       4.313  -4.998  23.112  0.00  0.00    +0.000 C 
ATOM     40  C   UNL     1       2.838  -5.296  23.369  0.00  0.00    +0.000 C 
ATOM     41  C   UNL     1       2.589  -5.681  24.814  0.00  0.00    +0.000 C 
ATOM     42  C   UNL     1       3.438  -6.907  25.137  0.00  0.00    +0.007 C 
ENDBRANCH  28  37
ENDBRANCH  24  28
ENDBRANCH  23  25
ENDBRANCH   1  23
TORSDOF 7
ENDMDL
MODEL 4
REMARK VINA RESULT:      -8.2      2.141      3.156
REMARK  Name = 
REMARK  7 active torsions:
REMARK  status: ('A' for Active; 'I' for Inactive)
REMARK    1  A    between atoms: N_4  and  C_5
REMARK    2  A    between atoms: C_5  and  C_7
REMARK    3  A    between atoms: C_5  and  C_13
REMARK    4  A    between atoms: N_15  and  C_16
REMARK    5  A    between atoms: C_16  and  C_17
REMARK    6  A    between atoms: C_22  and  C_25
REMARK    7  A    between atoms: C_27  and  C_30
REMARK                            x       y       z     vdW  Elec       q    Type
REMARK                         _______ _______ _______ _____ _____    ______ ____
ROOT
ATOM      1  C   UNL     1       6.832  -4.010  23.795  0.00  0.00    +0.233 C 
ATOM      2  N   UNL     1       7.877  -3.122  23.551  0.00  0.00    -0.300 N 
ATOM      3  C   UNL     1       7.651  -2.025  22.612  0.00  0.00    +0.108 C 
ATOM      4  C   UNL     1       8.907  -1.696  21.811  0.00  0.00    +0.029 C 
ATOM      5  C   UNL     1      10.132  -1.475  22.707  0.00  0.00    +0.042 C 
ATOM      6  C   UNL     1      10.296  -2.639  23.688  0.00  0.00    +0.029 C 
ATOM      7  C   UNL     1       9.016  -2.953  24.454  0.00  0.00    +0.108 C 
ATOM      8  O   UNL     1       5.819  -4.050  23.094  0.00  0.00    -0.274 OA
ENDROOT
BRANCH   5   9
ATOM      9  C   UNL     1      10.105  -0.126  23.376  0.00  0.00    +0.067 A 
ATOM     10  N   UNL     1      10.109  -0.003  24.703  0.00  0.00    -0.178 NA
ATOM     11  N   UNL     1      10.008   1.314  24.916  0.00  0.00    -0.277 N 
ATOM     12  H   UNL     1       9.970   1.640  25.878  0.00  0.00    +0.189 HD
ATOM     13  C   UNL     1       9.942   2.068  23.779  0.00  0.00    +0.067 A 
ATOM     14  C   UNL     1      10.039   1.141  22.753  0.00  0.00    +0.053 A 
BRANCH  13  15
ATOM     15  C   UNL     1       9.814   3.531  23.746  0.00  0.00    +0.020 A 
ATOM     16  C   UNL     1       8.581   4.226  23.795  0.00  0.00    +0.068 A 
ATOM     17 CL   UNL     1       7.069   3.370  23.900  0.00  0.00    -0.081 Cl
ATOM     18  C   UNL     1       8.570   5.631  23.734  0.00  0.00    +0.060 A 
ATOM     19 CL   UNL     1       7.107   6.555  23.787  0.00  0.00    -0.082 Cl
ATOM     20  C   UNL     1       9.764   6.346  23.621  0.00  0.00    +0.021 A 
ATOM     21  C   UNL     1      10.978   5.673  23.575  0.00  0.00    +0.002 A 
ATOM     22  C   UNL     1      11.001   4.281  23.638  0.00  0.00    +0.011 A 
ENDBRANCH  13  15
ENDBRANCH   5   9
BRANCH   1  23
ATOM     23  C   UNL     1       7.003  -5.005  24.946  0.00  0.00    +0.200 C 
BRANCH  23  25
ATOM     24  C   UNL     1       5.441  -6.255  26.433  0.00  0.00    +0.251 C 
ATOM     25  N   UNL     1       5.725  -5.604  25.261  0.00  0.00    -0.304 N 
ATOM     26  H   UNL     1       4.945  -5.415  24.639  0.00  0.00    +0.149 HD
ATOM     27  O   UNL     1       6.305  -6.475  27.276  0.00  0.00    -0.272 OA
BRANCH  24  28
ATOM     28  C   UNL     1       3.984  -6.772  26.555  0.00  0.00    +0.233 C 
BRANCH  28  33
ATOM     29  N   UNL     1       2.135  -8.950  25.550  0.00  0.00    -0.289 N 
ATOM     30  H   UNL     1       2.572  -9.107  26.445  0.00  0.00    +0.255 HD
ATOM     31  H   UNL     1       1.779  -9.808  25.146  0.00  0.00    +0.255 HD
ATOM     32  C   UNL     1       2.702  -8.073  24.710  0.00  0.00    +0.377 C 
ATOM     33  N   UNL     1       3.404  -7.039  25.219  0.00  0.00    -0.265 N 
ATOM     34  H   UNL     1       3.789  -6.461  24.477  0.00  0.00    +0.259 HD
ATOM     35  N   UNL     1       2.502  -8.112  23.441  0.00  0.00    -0.130 NA
ATOM     36  H   UNL     1       1.876  -8.889  23.217  0.00  0.00    +0.306 HD
ENDBRANCH  28  33
BRANCH  28  37
ATOM     37  C   UNL     1       3.014  -5.916  27.428  0.00  0.00    +0.035 C 
ATOM     38  C   UNL     1       3.525  -4.574  28.021  0.00  0.00    +0.007 C 
ATOM     39  C   UNL     1       4.191  -4.582  29.409  0.00  0.00    +0.000 C 
ATOM     40  C   UNL     1       3.737  -5.676  30.372  0.00  0.00    +0.000 C 
ATOM     41  C   UNL     1       3.499  -6.989  29.654  0.00  0.00    +0.000 C 
ATOM     42  C   UNL     1       2.442  -6.764  28.578  0.00  0.00    +0.007 C 
ENDBRANCH  28  37
ENDBRANCH  24  28
ENDBRANCH  23  25
ENDBRANCH   1  23
TORSDOF 7
ENDMDL
MODEL 5
REMARK VINA RESULT:      -8.2      3.527      4.690
REMARK  Name = 
REMARK  7 active torsions:
REMARK  status: ('A' for Active; 'I' for Inactive)
REMARK    1  A    between atoms: N_4  and  C_5
REMARK    2  A    between atoms: C_5  and  C_7
REMARK    3  A    between atoms: C_5  and  C_13
REMARK    4  A    between atoms: N_15  and  C_16
REMARK    5  A    between atoms: C_16  and  C_17
REMARK    6  A    between atoms: C_22  and  C_25
REMARK    7  A    between atoms: C_27  and  C_30
REMARK                            x       y       z     vdW  Elec       q    Type
REMARK                         _______ _______ _______ _____ _____    ______ ____
ROOT
ATOM      1  C   UNL     1       9.600  -1.835  22.918  0.00  0.00    +0.233 C 
ATOM      2  N   UNL     1       9.686  -0.459  23.117  0.00  0.00    -0.300 N 
ATOM      3  C   UNL     1       9.307   0.427  22.017  0.00  0.00    +0.108 C 
ATOM      4  C   UNL     1      10.168   1.686  21.981  0.00  0.00    +0.029 C 
ATOM      5  C   UNL     1      10.216   2.401  23.337  0.00  0.00    +0.042 C 
ATOM      6  C   UNL     1      10.586   1.417  24.450  0.00  0.00    +0.029 C 
ATOM      7  C   UNL     1       9.720   0.161  24.442  0.00  0.00    +0.108 C 
ATOM      8  O   UNL     1       9.443  -2.334  21.802  0.00  0.00    -0.274 OA
ENDROOT
BRANCH   5   9
ATOM      9  C   UNL     1       8.952   3.172  23.613  0.00  0.00    +0.067 A 
ATOM     10  N   UNL     1       8.863   4.027  24.633  0.00  0.00    -0.178 NA
ATOM     11  N   UNL     1       7.596   4.454  24.598  0.00  0.00    -0.277 N 
ATOM     12  H   UNL     1       7.294   5.110  25.313  0.00  0.00    +0.189 HD
ATOM     13  C   UNL     1       6.844   3.919  23.592  0.00  0.00    +0.067 A 
ATOM     14  C   UNL     1       7.729   3.097  22.910  0.00  0.00    +0.053 A 
BRANCH  13  15
ATOM     15  C   UNL     1       5.426   4.215  23.351  0.00  0.00    +0.020 A 
ATOM     16  C   UNL     1       4.943   5.442  22.834  0.00  0.00    +0.068 A 
ATOM     17 CL   UNL     1       6.032   6.741  22.434  0.00  0.00    -0.081 Cl
ATOM     18  C   UNL     1       3.560   5.631  22.663  0.00  0.00    +0.060 A 
ATOM     19 CL   UNL     1       2.889   7.100  22.038  0.00  0.00    -0.082 Cl
ATOM     20  C   UNL     1       2.658   4.619  23.001  0.00  0.00    +0.021 A 
ATOM     21  C   UNL     1       3.124   3.411  23.506  0.00  0.00    +0.002 A 
ATOM     22  C   UNL     1       4.492   3.213  23.677  0.00  0.00    +0.011 A 
ENDBRANCH  13  15
ENDBRANCH   5   9
BRANCH   1  23
ATOM     23  C   UNL     1       9.772  -2.738  24.142  0.00  0.00    +0.200 C 
BRANCH  23  25
ATOM     24  C   UNL     1       8.307  -4.619  24.873  0.00  0.00    +0.251 C 
ATOM     25  N   UNL     1       8.494  -3.313  24.502  0.00  0.00    -0.304 N 
ATOM     26  H   UNL     1       7.707  -2.684  24.623  0.00  0.00    +0.149 HD
ATOM     27  O   UNL     1       9.216  -5.442  24.821  0.00  0.00    -0.272 OA
BRANCH  24  28
ATOM     28  C   UNL     1       6.851  -4.986  25.258  0.00  0.00    +0.233 C 
BRANCH  28  33
ATOM     29  N   UNL     1       5.983  -4.501  28.119  0.00  0.00    -0.289 N 
ATOM     30  H   UNL     1       6.120  -3.684  27.545  0.00  0.00    +0.255 HD
ATOM     31  H   UNL     1       5.984  -4.276  29.106  0.00  0.00    +0.255 HD
ATOM     32  C   UNL     1       6.583  -5.642  27.755  0.00  0.00    +0.377 C 
ATOM     33  N   UNL     1       6.823  -5.868  26.447  0.00  0.00    -0.265 N 
ATOM     34  H   UNL     1       7.293  -6.759  26.312  0.00  0.00    +0.259 HD
ATOM     35  N   UNL     1       6.830  -6.584  28.595  0.00  0.00    -0.130 NA
ATOM     36  H   UNL     1       6.507  -6.307  29.524  0.00  0.00    +0.306 HD
ENDBRANCH  28  33
BRANCH  28  37
ATOM     37  C   UNL     1       5.953  -5.554  24.116  0.00  0.00    +0.035 C 
ATOM     38  C   UNL     1       6.609  -5.917  22.754  0.00  0.00    +0.007 C 
ATOM     39  C   UNL     1       6.694  -4.835  21.661  0.00  0.00    +0.000 C 
ATOM     40  C   UNL     1       5.606  -3.765  21.681  0.00  0.00    +0.000 C 
ATOM     41  C   UNL     1       5.243  -3.363  23.097  0.00  0.00    +0.000 C 
ATOM     42  C   UNL     1       4.771  -4.607  23.842  0.00  0.00    +0.007 C 
ENDBRANCH  28  37
ENDBRANCH  24  28
ENDBRANCH  23  25
ENDBRANCH   1  23
TORSDOF 7
ENDMDL
MODEL 6
REMARK VINA RESULT:      -8.0      2.873      4.101
REMARK  Name = 
REMARK  7 active torsions:
REMARK  status: ('A' for Active; 'I' for Inactive)
REMARK    1  A    between atoms: N_4  and  C_5
REMARK    2  A    between atoms: C_5  and  C_7
REMARK    3  A    between atoms: C_5  and  C_13
REMARK    4  A    between atoms: N_15  and  C_16
REMARK    5  A    between atoms: C_16  and  C_17
REMARK    6  A    between atoms: C_22  and  C_25
REMARK    7  A    between atoms: C_27  and  C_30
REMARK                            x       y       z     vdW  Elec       q    Type
REMARK                         _______ _______ _______ _____ _____    ______ ____
ROOT
ATOM      1  C   UNL     1       8.763  -3.357  24.724  0.00  0.00    +0.233 C 
ATOM      2  N   UNL     1       9.192  -2.082  24.359  0.00  0.00    -0.300 N 
ATOM      3  C   UNL     1       9.497  -1.829  22.952  0.00  0.00    +0.108 C 
ATOM      4  C   UNL     1      10.659  -0.853  22.791  0.00  0.00    +0.029 C 
ATOM      5  C   UNL     1      10.462   0.433  23.603  0.00  0.00    +0.042 C 
ATOM      6  C   UNL     1      10.114   0.102  25.057  0.00  0.00    +0.029 C 
ATOM      7  C   UNL     1       8.963  -0.892  25.179  0.00  0.00    +0.108 C 
ATOM      8  O   UNL     1       8.849  -4.326  23.968  0.00  0.00    -0.274 OA
ENDROOT
BRANCH   5   9
ATOM      9  C   UNL     1       9.478   1.367  22.948  0.00  0.00    +0.067 A 
ATOM     10  N   UNL     1       9.245   1.330  21.636  0.00  0.00    -0.178 NA
ATOM     11  N   UNL     1       8.387   2.333  21.422  0.00  0.00    -0.277 N 
ATOM     12  H   UNL     1       8.084   2.506  20.468  0.00  0.00    +0.189 HD
ATOM     13  C   UNL     1       8.038   3.029  22.544  0.00  0.00    +0.067 A 
ATOM     14  C   UNL     1       8.720   2.387  23.566  0.00  0.00    +0.053 A 
BRANCH  13  15
ATOM     15  C   UNL     1       7.125   4.180  22.571  0.00  0.00    +0.020 A 
ATOM     16  C   UNL     1       5.773   4.117  22.987  0.00  0.00    +0.068 A 
ATOM     17 CL   UNL     1       5.062   2.617  23.514  0.00  0.00    -0.081 Cl
ATOM     18  C   UNL     1       4.978   5.277  22.952  0.00  0.00    +0.060 A 
ATOM     19 CL   UNL     1       3.317   5.284  23.443  0.00  0.00    -0.082 Cl
ATOM     20  C   UNL     1       5.510   6.489  22.507  0.00  0.00    +0.021 A 
ATOM     21  C   UNL     1       6.836   6.560  22.100  0.00  0.00    +0.002 A 
ATOM     22  C   UNL     1       7.634   5.418  22.133  0.00  0.00    +0.011 A 
ENDBRANCH  13  15
ENDBRANCH   5   9
BRANCH   1  23
ATOM     23  C   UNL     1       8.227  -3.542  26.146  0.00  0.00    +0.200 C 
BRANCH  23  25
ATOM     24  C   UNL     1       6.430  -5.214  26.583  0.00  0.00    +0.251 C 
ATOM     25  N   UNL     1       6.859  -4.010  26.089  0.00  0.00    -0.304 N 
ATOM     26  H   UNL     1       6.144  -3.354  25.791  0.00  0.00    +0.149 HD
ATOM     27  O   UNL     1       7.214  -6.048  27.023  0.00  0.00    -0.272 OA
BRANCH  24  28
ATOM     28  C   UNL     1       4.907  -5.470  26.444  0.00  0.00    +0.233 C 
BRANCH  28  33
ATOM     29  N   UNL     1       4.606  -6.943  23.814  0.00  0.00    -0.289 N 
ATOM     30  H   UNL     1       5.174  -7.388  24.518  0.00  0.00    +0.255 HD
ATOM     31  H   UNL     1       4.780  -7.321  22.891  0.00  0.00    +0.255 HD
ATOM     32  C   UNL     1       4.408  -5.620  23.901  0.00  0.00    +0.377 C 
ATOM     33  N   UNL     1       4.416  -5.035  25.117  0.00  0.00    -0.265 N 
ATOM     34  H   UNL     1       4.267  -4.032  25.039  0.00  0.00    +0.259 HD
ATOM     35  N   UNL     1       4.089  -4.907  22.880  0.00  0.00    -0.130 NA
ATOM     36  H   UNL     1       4.028  -5.503  22.052  0.00  0.00    +0.306 HD
ENDBRANCH  28  33
BRANCH  28  37
ATOM     37  C   UNL     1       4.002  -4.914  27.587  0.00  0.00    +0.035 C 
ATOM     38  C   UNL     1       4.674  -4.239  28.815  0.00  0.00    +0.007 C 
ATOM     39  C   UNL     1       5.052  -5.111  30.026  0.00  0.00    +0.000 C 
ATOM     40  C   UNL     1       4.199  -6.355  30.258  0.00  0.00    +0.000 C 
ATOM     41  C   UNL     1       3.817  -7.023  28.952  0.00  0.00    +0.000 C 
ATOM     42  C   UNL     1       3.054  -6.012  28.101  0.00  0.00    +0.007 C 
ENDBRANCH  28  37
ENDBRANCH  24  28
ENDBRANCH  23  25
ENDBRANCH   1  23
TORSDOF 7
ENDMDL
MODEL 7
REMARK VINA RESULT:      -7.8      2.340      3.172
REMARK  Name = 
REMARK  7 active torsions:
REMARK  status: ('A' for Active; 'I' for Inactive)
REMARK    1  A    between atoms: N_4  and  C_5
REMARK    2  A    between atoms: C_5  and  C_7
REMARK    3  A    between atoms: C_5  and  C_13
REMARK    4  A    between atoms: N_15  and  C_16
REMARK    5  A    between atoms: C_16  and  C_17
REMARK    6  A    between atoms: C_22  and  C_25
REMARK    7  A    between atoms: C_27  and  C_30
REMARK                            x       y       z     vdW  Elec       q    Type
REMARK                         _______ _______ _______ _____ _____    ______ ____
ROOT
ATOM      1  C   UNL     1       8.401  -3.402  23.768  0.00  0.00    +0.233 C 
ATOM      2  N   UNL     1       8.950  -2.192  23.350  0.00  0.00    -0.300 N 
ATOM      3  C   UNL     1       8.346  -1.515  22.203  0.00  0.00    +0.108 C 
ATOM      4  C   UNL     1       9.391  -0.794  21.357  0.00  0.00    +0.029 C 
ATOM      5  C   UNL     1      10.288   0.127  22.193  0.00  0.00    +0.042 C 
ATOM      6  C   UNL     1      10.863  -0.629  23.394  0.00  0.00    +0.029 C 
ATOM      7  C   UNL     1       9.794  -1.355  24.203  0.00  0.00    +0.108 C 
ATOM      8  O   UNL     1       7.590  -4.032  23.087  0.00  0.00    -0.274 OA
ENDROOT
BRANCH   5   9
ATOM      9  C   UNL     1       9.588   1.407  22.568  0.00  0.00    +0.067 A 
ATOM     10  N   UNL     1       8.566   1.880  21.854  0.00  0.00    -0.178 NA
ATOM     11  N   UNL     1       8.262   3.043  22.440  0.00  0.00    -0.277 N 
ATOM     12  H   UNL     1       7.510   3.597  22.039  0.00  0.00    +0.189 HD
ATOM     13  C   UNL     1       9.040   3.355  23.518  0.00  0.00    +0.067 A 
ATOM     14  C   UNL     1       9.898   2.274  23.640  0.00  0.00    +0.053 A 
BRANCH  13  15
ATOM     15  C   UNL     1       8.915   4.580  24.321  0.00  0.00    +0.020 A 
ATOM     16  C   UNL     1       8.215   4.661  25.549  0.00  0.00    +0.068 A 
ATOM     17 CL   UNL     1       7.419   3.269  26.226  0.00  0.00    -0.081 Cl
ATOM     18  C   UNL     1       8.138   5.891  26.227  0.00  0.00    +0.060 A 
ATOM     19 CL   UNL     1       7.302   6.076  27.732  0.00  0.00    -0.082 Cl
ATOM     20  C   UNL     1       8.741   7.033  25.696  0.00  0.00    +0.021 A 
ATOM     21  C   UNL     1       9.432   6.962  24.493  0.00  0.00    +0.002 A 
ATOM     22  C   UNL     1       9.518   5.747  23.815  0.00  0.00    +0.011 A 
ENDBRANCH  13  15
ENDBRANCH   5   9
BRANCH   1  23
ATOM     23  C   UNL     1       8.888  -3.977  25.101  0.00  0.00    +0.200 C 
BRANCH  23  25
ATOM     24  C   UNL     1       6.996  -4.841  26.476  0.00  0.00    +0.251 C 
ATOM     25  N   UNL     1       7.848  -3.836  26.097  0.00  0.00    -0.304 N 
ATOM     26  H   UNL     1       7.832  -2.986  26.651  0.00  0.00    +0.149 HD
ATOM     27  O   UNL     1       6.984  -5.927  25.906  0.00  0.00    -0.272 OA
BRANCH  24  28
ATOM     28  C   UNL     1       5.995  -4.458  27.597  0.00  0.00    +0.233 C 
BRANCH  28  33
ATOM     29  N   UNL     1       4.472  -6.997  26.956  0.00  0.00    -0.289 N 
ATOM     30  H   UNL     1       4.386  -6.240  26.295  0.00  0.00    +0.255 HD
ATOM     31  H   UNL     1       3.734  -7.681  26.847  0.00  0.00    +0.255 HD
ATOM     32  C   UNL     1       4.852  -6.707  28.208  0.00  0.00    +0.377 C 
ATOM     33  N   UNL     1       5.647  -5.638  28.421  0.00  0.00    -0.265 N 
ATOM     34  H   UNL     1       5.848  -5.525  29.411  0.00  0.00    +0.259 HD
ATOM     35  N   UNL     1       4.586  -7.480  29.201  0.00  0.00    -0.130 NA
ATOM     36  H   UNL     1       4.063  -8.293  28.870  0.00  0.00    +0.306 HD
ENDBRANCH  28  33
BRANCH  28  37
ATOM     37  C   UNL     1       4.714  -3.687  27.151  0.00  0.00    +0.035 C 
ATOM     38  C   UNL     1       4.440  -3.501  25.633  0.00  0.00    +0.007 C 
ATOM     39  C   UNL     1       5.002  -2.255  24.925  0.00  0.00    +0.000 C 
ATOM     40  C   UNL     1       5.182  -1.009  25.787  0.00  0.00    +0.000 C 
ATOM     41  C   UNL     1       5.674  -1.358  27.178  0.00  0.00    +0.000 C 
ATOM     42  C   UNL     1       4.663  -2.302  27.821  0.00  0.00    +0.007 C 
ENDBRANCH  28  37
ENDBRANCH  24  28
ENDBRANCH  23  25
ENDBRANCH   1  23
TORSDOF 7
ENDMDL
MODEL 8
REMARK VINA RESULT:      -7.4      2.549      3.439
REMARK  Name = 
REMARK  7 active torsions:
REMARK  status: ('A' for Active; 'I' for Inactive)
REMARK    1  A    between atoms: N_4  and  C_5
REMARK    2  A    between atoms: C_5  and  C_7
REMARK    3  A    between atoms: C_5  and  C_13
REMARK    4  A    between atoms: N_15  and  C_16
REMARK    5  A    between atoms: C_16  and  C_17
REMARK    6  A    between atoms: C_22  and  C_25
REMARK    7  A    between atoms: C_27  and  C_30
REMARK                            x       y       z     vdW  Elec       q    Type
REMARK                         _______ _______ _______ _____ _____    ______ ____
ROOT
ATOM      1  C   UNL     1       7.013  -3.803  22.693  0.00  0.00    +0.233 C 
ATOM      2  N   UNL     1       8.060  -2.890  22.795  0.00  0.00    -0.300 N 
ATOM      3  C   UNL     1       8.084  -1.754  21.875  0.00  0.00    +0.108 C 
ATOM      4  C   UNL     1       9.508  -1.372  21.483  0.00  0.00    +0.029 C 
ATOM      5  C   UNL     1      10.418  -1.175  22.701  0.00  0.00    +0.042 C 
ATOM      6  C   UNL     1      10.325  -2.381  23.641  0.00  0.00    +0.029 C 
ATOM      7  C   UNL     1       8.888  -2.747  23.993  0.00  0.00    +0.108 C 
ATOM      8  O   UNL     1       6.245  -3.824  21.729  0.00  0.00    -0.274 OA
ENDROOT
BRANCH   5   9
ATOM      9  C   UNL     1      10.165   0.141  23.387  0.00  0.00    +0.067 A 
ATOM     10  N   UNL     1       9.958   0.216  24.702  0.00  0.00    -0.178 NA
ATOM     11  N   UNL     1       9.704   1.510  24.926  0.00  0.00    -0.277 N 
ATOM     12  H   UNL     1       9.492   1.798  25.877  0.00  0.00    +0.189 HD
ATOM     13  C   UNL     1       9.740   2.296  23.809  0.00  0.00    +0.067 A 
ATOM     14  C   UNL     1      10.076   1.419  22.790  0.00  0.00    +0.053 A 
BRANCH  13  15
ATOM     15  C   UNL     1       9.483   3.742  23.789  0.00  0.00    +0.020 A 
ATOM     16  C   UNL     1       8.191   4.323  23.799  0.00  0.00    +0.068 A 
ATOM     17 CL   UNL     1       6.759   3.334  23.834  0.00  0.00    -0.081 Cl
ATOM     18  C   UNL     1       8.056   5.723  23.754  0.00  0.00    +0.060 A 
ATOM     19 CL   UNL     1       6.515   6.512  23.762  0.00  0.00    -0.082 Cl
ATOM     20  C   UNL     1       9.185   6.543  23.696  0.00  0.00    +0.021 A 
ATOM     21  C   UNL     1      10.456   5.981  23.689  0.00  0.00    +0.002 A 
ATOM     22  C   UNL     1      10.601   4.596  23.736  0.00  0.00    +0.011 A 
ENDBRANCH  13  15
ENDBRANCH   5   9
BRANCH   1  23
ATOM     23  C   UNL     1       6.874  -4.847  23.803  0.00  0.00    +0.200 C 
BRANCH  23  25
ATOM     24  C   UNL     1       5.390  -3.970  25.605  0.00  0.00    +0.251 C 
ATOM     25  N   UNL     1       6.631  -4.181  25.064  0.00  0.00    -0.304 N 
ATOM     26  H   UNL     1       7.431  -3.978  25.657  0.00  0.00    +0.149 HD
ATOM     27  O   UNL     1       4.363  -4.242  24.990  0.00  0.00    -0.272 OA
BRANCH  24  28
ATOM     28  C   UNL     1       5.391  -3.274  26.990  0.00  0.00    +0.233 C 
BRANCH  28  33
ATOM     29  N   UNL     1       5.317  -0.381  26.097  0.00  0.00    -0.289 N 
ATOM     30  H   UNL     1       4.581  -0.978  25.753  0.00  0.00    +0.255 HD
ATOM     31  H   UNL     1       5.406   0.465  25.548  0.00  0.00    +0.255 HD
ATOM     32  C   UNL     1       6.453  -0.952  26.522  0.00  0.00    +0.377 C 
ATOM     33  N   UNL     1       6.406  -2.197  27.040  0.00  0.00    -0.265 N 
ATOM     34  H   UNL     1       7.333  -2.513  27.310  0.00  0.00    +0.259 HD
ATOM     35  N   UNL     1       7.567  -0.311  26.566  0.00  0.00    -0.130 NA
ATOM     36  H   UNL     1       7.425   0.645  26.233  0.00  0.00    +0.306 HD
ENDBRANCH  28  33
BRANCH  28  37
ATOM     37  C   UNL     1       5.502  -4.207  28.236  0.00  0.00    +0.035 C 
ATOM     38  C   UNL     1       5.991  -5.669  28.038  0.00  0.00    +0.007 C 
ATOM     39  C   UNL     1       4.949  -6.767  27.755  0.00  0.00    +0.000 C 
ATOM     40  C   UNL     1       3.552  -6.540  28.326  0.00  0.00    +0.000 C 
ATOM     41  C   UNL     1       3.141  -5.084  28.234  0.00  0.00    +0.000 C 
ATOM     42  C   UNL     1       4.163  -4.247  28.995  0.00  0.00    +0.007 C 
ENDBRANCH  28  37
ENDBRANCH  24  28
ENDBRANCH  23  25
ENDBRANCH   1  23
TORSDOF 7
ENDMDL
MODEL 9
REMARK VINA RESULT:      -7.4      5.220      9.826
REMARK  Name = 
REMARK  7 active torsions:
REMARK  status: ('A' for Active; 'I' for Inactive)
REMARK    1  A    between atoms: N_4  and  C_5
REMARK    2  A    between atoms: C_5  and  C_7
REMARK    3  A    between atoms: C_5  and  C_13
REMARK    4  A    between atoms: N_15  and  C_16
REMARK    5  A    between atoms: C_16  and  C_17
REMARK    6  A    between atoms: C_22  and  C_25
REMARK    7  A    between atoms: C_27  and  C_30
REMARK                            x       y       z     vdW  Elec       q    Type
REMARK                         _______ _______ _______ _____ _____    ______ ____
ROOT
ATOM      1  C   UNL     1       8.191   3.857  23.382  0.00  0.00    +0.233 C 
ATOM      2  N   UNL     1       8.764   2.591  23.283  0.00  0.00    -0.300 N 
ATOM      3  C   UNL     1       9.171   1.915  24.513  0.00  0.00    +0.108 C 
ATOM      4  C   UNL     1      10.432   1.079  24.311  0.00  0.00    +0.029 C 
ATOM      5  C   UNL     1      10.318   0.128  23.114  0.00  0.00    +0.042 C 
ATOM      6  C   UNL     1       9.858   0.887  21.866  0.00  0.00    +0.029 C 
ATOM      7  C   UNL     1       8.610   1.728  22.111  0.00  0.00    +0.108 C 
ATOM      8  O   UNL     1       8.222   4.519  24.421  0.00  0.00    -0.274 OA
ENDROOT
BRANCH   5   9
ATOM      9  C   UNL     1       9.470  -1.076  23.430  0.00  0.00    +0.067 A 
ATOM     10  N   UNL     1       9.582  -1.725  24.589  0.00  0.00    -0.178 NA
ATOM     11  N   UNL     1       8.738  -2.757  24.475  0.00  0.00    -0.277 N 
ATOM     12  H   UNL     1       8.676  -3.411  25.251  0.00  0.00    +0.189 HD
ATOM     13  C   UNL     1       8.068  -2.812  23.287  0.00  0.00    +0.067 A 
ATOM     14  C   UNL     1       8.510  -1.695  22.597  0.00  0.00    +0.053 A 
BRANCH  13  15
ATOM     15  C   UNL     1       7.100  -3.853  22.914  0.00  0.00    +0.020 A 
ATOM     16  C   UNL     1       5.745  -3.868  23.326  0.00  0.00    +0.068 A 
ATOM     17 CL   UNL     1       5.100  -2.612  24.346  0.00  0.00    -0.081 Cl
ATOM     18  C   UNL     1       4.907  -4.926  22.929  0.00  0.00    +0.060 A 
ATOM     19 CL   UNL     1       3.241  -5.020  23.391  0.00  0.00    -0.082 Cl
ATOM     20  C   UNL     1       5.402  -5.963  22.135  0.00  0.00    +0.021 A 
ATOM     21  C   UNL     1       6.728  -5.954  21.724  0.00  0.00    +0.002 A 
ATOM     22  C   UNL     1       7.567  -4.909  22.109  0.00  0.00    +0.011 A 
ENDBRANCH  13  15
ENDBRANCH   5   9
BRANCH   1  23
ATOM     23  C   UNL     1       7.560   4.448  22.118  0.00  0.00    +0.200 C 
BRANCH  23  25
ATOM     24  C   UNL     1       5.201   3.826  22.634  0.00  0.00    +0.251 C 
ATOM     25  N   UNL     1       6.171   4.759  22.373  0.00  0.00    -0.304 N 
ATOM     26  H   UNL     1       5.917   5.734  22.504  0.00  0.00    +0.149 HD
ATOM     27  O   UNL     1       5.428   2.622  22.562  0.00  0.00    -0.272 OA
BRANCH  24  28
ATOM     28  C   UNL     1       3.794   4.410  22.919  0.00  0.00    +0.233 C 
BRANCH  28  33
ATOM     29  N   UNL     1       2.092   2.651  21.135  0.00  0.00    -0.289 N 
ATOM     30  H   UNL     1       2.664   2.180  21.819  0.00  0.00    +0.255 HD
ATOM     31  H   UNL     1       1.787   2.024  20.400  0.00  0.00    +0.255 HD
ATOM     32  C   UNL     1       2.431   3.895  20.771  0.00  0.00    +0.377 C 
ATOM     33  N   UNL     1       3.070   4.686  21.658  0.00  0.00    -0.265 N 
ATOM     34  H   UNL     1       3.278   5.594  21.251  0.00  0.00    +0.259 HD
ATOM     35  N   UNL     1       2.062   4.405  19.649  0.00  0.00    -0.130 NA
ATOM     36  H   UNL     1       1.507   3.722  19.129  0.00  0.00    +0.306 HD
ENDBRANCH  28  33
BRANCH  28  37
ATOM     37  C   UNL     1       3.733   5.636  23.882  0.00  0.00    +0.035 C 
ATOM     38  C   UNL     1       4.296   5.488  25.323  0.00  0.00    +0.007 C 
ATOM     39  C   UNL     1       3.352   5.016  26.443  0.00  0.00    +0.000 C 
ATOM     40  C   UNL     1       1.874   5.358  26.273  0.00  0.00    +0.000 C 
ATOM     41  C   UNL     1       1.434   5.231  24.828  0.00  0.00    +0.000 C 
ATOM     42  C   UNL     1       2.291   6.167  23.982  0.00  0.00    +0.007 C 
ENDBRANCH  28  37
ENDBRANCH  24  28
ENDBRANCH  23  25
ENDBRANCH   1  23
TORSDOF 7
ENDMDL
