MODEL 1
REMARK VINA RESULT:      -5.9      0.000      0.000
REMARK  Name = 
REMARK  5 active torsions:
REMARK  status: ('A' for Active; 'I' for Inactive)
REMARK    1  A    between atoms: C_1  and  N_2
REMARK    2  A    between atoms: N_2  and  C_3
REMARK    3  A    between atoms: N_2  and  C_4
REMARK    4  A    between atoms: C_9  and  S_14
REMARK    5  A    between atoms: S_14  and  N_15
REMARK                            x       y       z     vdW  Elec       q    Type
REMARK                         _______ _______ _______ _____ _____    ______ ____
ROOT
ATOM      1  C   UNL     1       8.490  -2.859  25.162  0.00  0.00    +0.037 A 
ATOM      2  C   UNL     1       8.408  -2.287  26.443  0.00  0.00    +0.024 A 
ATOM      3  C   UNL     1       8.676  -0.945  26.660  0.00  0.00    +0.002 A 
ATOM      4  C   UNL     1       9.040  -0.126  25.600  0.00  0.00    +0.010 A 
ATOM      5  C   UNL     1       9.086  -0.606  24.270  0.00  0.00    +0.010 A 
ATOM      6  C   UNL     1       9.401   0.205  23.140  0.00  0.00    +0.113 A 
ATOM      7  C   UNL     1       9.425  -0.322  21.840  0.00  0.00    +0.029 A 
ATOM      8  C   UNL     1       9.108  -1.653  21.634  0.00  0.00    +0.003 A 
ATOM      9  C   UNL     1       8.783  -2.458  22.724  0.00  0.00    +0.010 A 
ATOM     10  C   UNL     1       8.790  -1.991  24.060  0.00  0.00    +0.005 A 
ENDROOT
BRANCH   1  12
ATOM     11  C   UNL     1       6.979  -4.820  25.224  0.00  0.00    +0.129 C 
ATOM     12  N   UNL     1       8.305  -4.255  24.963  0.00  0.00    -0.336 N 
ATOM     13  C   UNL     1       9.422  -5.066  25.469  0.00  0.00    +0.129 C 
ENDBRANCH   1  12
BRANCH   6  14
ATOM     14  S   UNL     1       9.813   1.939  23.291  0.00  0.00    +0.057 S 
ATOM     15  O   UNL     1      11.050   2.052  24.033  0.00  0.00    -0.153 OA
ATOM     16  O   UNL     1       8.626   2.668  23.673  0.00  0.00    -0.153 OA
BRANCH  14  17
ATOM     17  N   UNL     1      10.193   2.383  21.723  0.00  0.00    -0.203 NA
ATOM     18  H   UNL     1      10.884   3.121  21.622  0.00  0.00    +0.144 HD
ATOM     19  H   UNL     1      10.191   1.619  21.052  0.00  0.00    +0.144 HD
ENDBRANCH  14  17
ENDBRANCH   6  14
TORSDOF 3
ENDMDL
MODEL 2
REMARK VINA RESULT:      -5.8      3.228      5.770
REMARK  Name = 
REMARK  5 active torsions:
REMARK  status: ('A' for Active; 'I' for Inactive)
REMARK    1  A    between atoms: C_1  and  N_2
REMARK    2  A    between atoms: N_2  and  C_3
REMARK    3  A    between atoms: N_2  and  C_4
REMARK    4  A    between atoms: C_9  and  S_14
REMARK    5  A    between atoms: S_14  and  N_15
REMARK                            x       y       z     vdW  Elec       q    Type
REMARK                         _______ _______ _______ _____ _____    ______ ____
ROOT
ATOM      1  C   UNL     1       9.220   0.517  23.300  0.00  0.00    +0.037 A 
ATOM      2  C   UNL     1       9.480  -0.044  22.038  0.00  0.00    +0.024 A 
ATOM      3  C   UNL     1       9.545  -1.415  21.849  0.00  0.00    +0.002 A 
ATOM      4  C   UNL     1       9.357  -2.276  22.921  0.00  0.00    +0.010 A 
ATOM      5  C   UNL     1       9.029  -1.798  24.213  0.00  0.00    +0.010 A 
ATOM      6  C   UNL     1       8.773  -2.641  25.334  0.00  0.00    +0.113 A 
ATOM      7  C   UNL     1       8.444  -2.112  26.591  0.00  0.00    +0.029 A 
ATOM      8  C   UNL     1       8.335  -0.742  26.752  0.00  0.00    +0.003 A 
ATOM      9  C   UNL     1       8.567   0.097  25.664  0.00  0.00    +0.010 A 
ATOM     10  C   UNL     1       8.949  -0.379  24.387  0.00  0.00    +0.005 A 
ENDROOT
BRANCH   1  12
ATOM     11  C   UNL     1       8.320   2.752  22.727  0.00  0.00    +0.129 C 
ATOM     12  N   UNL     1       9.247   1.925  23.502  0.00  0.00    -0.336 N 
ATOM     13  C   UNL     1      10.609   2.470  23.605  0.00  0.00    +0.129 C 
ENDBRANCH   1  12
BRANCH   6  14
ATOM     14  S   UNL     1       8.873  -4.424  25.234  0.00  0.00    +0.057 S 
ATOM     15  O   UNL     1      10.216  -4.784  24.838  0.00  0.00    -0.153 OA
ATOM     16  O   UNL     1       7.713  -4.916  24.530  0.00  0.00    -0.153 OA
BRANCH  14  17
ATOM     17  N   UNL     1       8.736  -4.907  26.831  0.00  0.00    -0.203 NA
ATOM     18  H   UNL     1       8.959  -4.207  27.531  0.00  0.00    +0.144 HD
ATOM     19  H   UNL     1       7.977  -5.559  27.014  0.00  0.00    +0.144 HD
ENDBRANCH  14  17
ENDBRANCH   6  14
TORSDOF 3
ENDMDL
MODEL 3
REMARK VINA RESULT:      -5.4      4.743      6.417
REMARK  Name = 
REMARK  5 active torsions:
REMARK  status: ('A' for Active; 'I' for Inactive)
REMARK    1  A    between atoms: C_1  and  N_2
REMARK    2  A    between atoms: N_2  and  C_3
REMARK    3  A    between atoms: N_2  and  C_4
REMARK    4  A    between atoms: C_9  and  S_14
REMARK    5  A    between atoms: S_14  and  N_15
REMARK                            x       y       z     vdW  Elec       q    Type
REMARK                         _______ _______ _______ _____ _____    ______ ____
ROOT
ATOM      1  C   UNL     1       8.097  -2.454  23.874  0.00  0.00    +0.037 A 
ATOM      2  C   UNL     1       8.041  -1.985  25.198  0.00  0.00    +0.024 A 
ATOM      3  C   UNL     1       7.246  -2.597  26.154  0.00  0.00    +0.002 A 
ATOM      4  C   UNL     1       6.472  -3.699  25.817  0.00  0.00    +0.010 A 
ATOM      5  C   UNL     1       6.517  -4.273  24.524  0.00  0.00    +0.010 A 
ATOM      6  C   UNL     1       5.785  -5.436  24.141  0.00  0.00    +0.113 A 
ATOM      7  C   UNL     1       5.873  -5.967  22.846  0.00  0.00    +0.029 A 
ATOM      8  C   UNL     1       6.709  -5.374  21.917  0.00  0.00    +0.003 A 
ATOM      9  C   UNL     1       7.444  -4.246  22.276  0.00  0.00    +0.010 A 
ATOM     10  C   UNL     1       7.357  -3.640  23.552  0.00  0.00    +0.005 A 
ENDROOT
BRANCH   1  12
ATOM     11  C   UNL     1      10.306  -1.843  22.933  0.00  0.00    +0.129 C 
ATOM     12  N   UNL     1       8.844  -1.765  22.878  0.00  0.00    -0.336 N 
ATOM     13  C   UNL     1       8.316  -0.426  22.582  0.00  0.00    +0.129 C 
ENDBRANCH   1  12
BRANCH   6  14
ATOM     14  S   UNL     1       4.686  -6.288  25.266  0.00  0.00    +0.057 S 
ATOM     15  O   UNL     1       3.518  -5.461  25.478  0.00  0.00    -0.153 OA
ATOM     16  O   UNL     1       5.460  -6.808  26.368  0.00  0.00    -0.153 OA
BRANCH  14  17
ATOM     17  N   UNL     1       4.151  -7.593  24.367  0.00  0.00    -0.203 NA
ATOM     18  H   UNL     1       3.554  -8.256  24.852  0.00  0.00    +0.144 HD
ATOM     19  H   UNL     1       3.961  -7.387  23.389  0.00  0.00    +0.144 HD
ENDBRANCH  14  17
ENDBRANCH   6  14
TORSDOF 3
ENDMDL
MODEL 4
REMARK VINA RESULT:      -5.3      2.123      2.337
REMARK  Name = 
REMARK  5 active torsions:
REMARK  status: ('A' for Active; 'I' for Inactive)
REMARK    1  A    between atoms: C_1  and  N_2
REMARK    2  A    between atoms: N_2  and  C_3
REMARK    3  A    between atoms: N_2  and  C_4
REMARK    4  A    between atoms: C_9  and  S_14
REMARK    5  A    between atoms: S_14  and  N_15
REMARK                            x       y       z     vdW  Elec       q    Type
REMARK                         _______ _______ _______ _____ _____    ______ ____
ROOT
ATOM      1  C   UNL     1       7.331  -2.883  23.544  0.00  0.00    +0.037 A 
ATOM      2  C   UNL     1       6.216  -2.758  24.390  0.00  0.00    +0.024 A 
ATOM      3  C   UNL     1       5.677  -1.521  24.707  0.00  0.00    +0.002 A 
ATOM      4  C   UNL     1       6.240  -0.362  24.191  0.00  0.00    +0.010 A 
ATOM      5  C   UNL     1       7.324  -0.402  23.281  0.00  0.00    +0.010 A 
ATOM      6  C   UNL     1       7.903   0.755  22.680  0.00  0.00    +0.113 A 
ATOM      7  C   UNL     1       8.973   0.656  21.778  0.00  0.00    +0.029 A 
ATOM      8  C   UNL     1       9.469  -0.589  21.435  0.00  0.00    +0.003 A 
ATOM      9  C   UNL     1       8.906  -1.731  22.000  0.00  0.00    +0.010 A 
ATOM     10  C   UNL     1       7.858  -1.689  22.951  0.00  0.00    +0.005 A 
ENDROOT
BRANCH   1  12
ATOM     11  C   UNL     1       7.209  -5.108  22.462  0.00  0.00    +0.129 C 
ATOM     12  N   UNL     1       7.933  -4.149  23.299  0.00  0.00    -0.336 N 
ATOM     13  C   UNL     1       8.558  -4.734  24.493  0.00  0.00    +0.129 C 
ENDBRANCH   1  12
BRANCH   6  14
ATOM     14  S   UNL     1       7.332   2.410  23.044  0.00  0.00    +0.057 S 
ATOM     15  O   UNL     1       7.624   2.700  24.431  0.00  0.00    -0.153 OA
ATOM     16  O   UNL     1       6.008   2.577  22.493  0.00  0.00    -0.153 OA
BRANCH  14  17
ATOM     17  N   UNL     1       8.372   3.379  22.159  0.00  0.00    -0.203 NA
ATOM     18  H   UNL     1       9.097   2.897  21.636  0.00  0.00    +0.144 HD
ATOM     19  H   UNL     1       7.940   4.204  21.751  0.00  0.00    +0.144 HD
ENDBRANCH  14  17
ENDBRANCH   6  14
TORSDOF 3
ENDMDL
MODEL 5
REMARK VINA RESULT:      -5.3      3.994      5.704
REMARK  Name = 
REMARK  5 active torsions:
REMARK  status: ('A' for Active; 'I' for Inactive)
REMARK    1  A    between atoms: C_1  and  N_2
REMARK    2  A    between atoms: N_2  and  C_3
REMARK    3  A    between atoms: N_2  and  C_4
REMARK    4  A    between atoms: C_9  and  S_14
REMARK    5  A    between atoms: S_14  and  N_15
REMARK                            x       y       z     vdW  Elec       q    Type
REMARK                         _______ _______ _______ _____ _____    ______ ____
ROOT
ATOM      1  C   UNL     1       8.427  -1.024  23.772  0.00  0.00    +0.037 A 
ATOM      2  C   UNL     1       8.887  -0.434  24.962  0.00  0.00    +0.024 A 
ATOM      3  C   UNL     1       8.723  -1.052  26.192  0.00  0.00    +0.002 A 
ATOM      4  C   UNL     1       8.086  -2.282  26.275  0.00  0.00    +0.010 A 
ATOM      5  C   UNL     1       7.647  -2.974  25.120  0.00  0.00    +0.010 A 
ATOM      6  C   UNL     1       7.036  -4.262  25.146  0.00  0.00    +0.113 A 
ATOM      7  C   UNL     1       6.628  -4.905  23.968  0.00  0.00    +0.029 A 
ATOM      8  C   UNL     1       6.843  -4.297  22.744  0.00  0.00    +0.003 A 
ATOM      9  C   UNL     1       7.452  -3.045  22.698  0.00  0.00    +0.010 A 
ATOM     10  C   UNL     1       7.840  -2.330  23.855  0.00  0.00    +0.005 A 
ENDROOT
BRANCH   1  12
ATOM     11  C   UNL     1       9.829  -0.250  21.883  0.00  0.00    +0.129 C 
ATOM     12  N   UNL     1       8.517  -0.341  22.527  0.00  0.00    -0.336 N 
ATOM     13  C   UNL     1       7.733   0.902  22.490  0.00  0.00    +0.129 C 
ENDBRANCH   1  12
BRANCH   6  14
ATOM     14  S   UNL     1       6.723  -5.143  26.671  0.00  0.00    +0.057 S 
ATOM     15  O   UNL     1       6.015  -6.364  26.356  0.00  0.00    -0.153 OA
ATOM     16  O   UNL     1       6.231  -4.208  27.655  0.00  0.00    -0.153 OA
BRANCH  14  17
ATOM     17  N   UNL     1       8.250  -5.627  27.156  0.00  0.00    -0.203 NA
ATOM     18  H   UNL     1       8.638  -6.433  26.675  0.00  0.00    +0.144 HD
ATOM     19  H   UNL     1       8.873  -4.868  27.422  0.00  0.00    +0.144 HD
ENDBRANCH  14  17
ENDBRANCH   6  14
TORSDOF 3
ENDMDL
MODEL 6
REMARK VINA RESULT:      -5.2      1.702      2.940
REMARK  Name = 
REMARK  5 active torsions:
REMARK  status: ('A' for Active; 'I' for Inactive)
REMARK    1  A    between atoms: C_1  and  N_2
REMARK    2  A    between atoms: N_2  and  C_3
REMARK    3  A    between atoms: N_2  and  C_4
REMARK    4  A    between atoms: C_9  and  S_14
REMARK    5  A    between atoms: S_14  and  N_15
REMARK                            x       y       z     vdW  Elec       q    Type
REMARK                         _______ _______ _______ _____ _____    ______ ____
ROOT
ATOM      1  C   UNL     1       7.874  -3.071  25.033  0.00  0.00    +0.037 A 
ATOM      2  C   UNL     1       7.297  -3.768  23.957  0.00  0.00    +0.024 A 
ATOM      3  C   UNL     1       7.216  -3.213  22.690  0.00  0.00    +0.002 A 
ATOM      4  C   UNL     1       7.706  -1.936  22.455  0.00  0.00    +0.010 A 
ATOM      5  C   UNL     1       8.358  -1.190  23.466  0.00  0.00    +0.010 A 
ATOM      6  C   UNL     1       8.926   0.102  23.263  0.00  0.00    +0.113 A 
ATOM      7  C   UNL     1       9.568   0.793  24.301  0.00  0.00    +0.029 A 
ATOM      8  C   UNL     1       9.684   0.206  25.548  0.00  0.00    +0.003 A 
ATOM      9  C   UNL     1       9.148  -1.062  25.762  0.00  0.00    +0.010 A 
ATOM     10  C   UNL     1       8.449  -1.785  24.766  0.00  0.00    +0.005 A 
ENDROOT
BRANCH   1  12
ATOM     11  C   UNL     1       8.723  -4.769  26.624  0.00  0.00    +0.129 C 
ATOM     12  N   UNL     1       7.869  -3.611  26.349  0.00  0.00    -0.336 N 
ATOM     13  C   UNL     1       6.525  -3.692  26.937  0.00  0.00    +0.129 C 
ENDBRANCH   1  12
BRANCH   6  14
ATOM     14  S   UNL     1       8.844   0.947  21.689  0.00  0.00    +0.057 S 
ATOM     15  O   UNL     1       7.611   1.702  21.639  0.00  0.00    -0.153 OA
ATOM     16  O   UNL     1       9.213   0.022  20.644  0.00  0.00    -0.153 OA
BRANCH  14  17
ATOM     17  N   UNL     1      10.062   2.090  21.802  0.00  0.00    -0.203 NA
ATOM     18  H   UNL     1       9.969   2.903  21.201  0.00  0.00    +0.144 HD
ATOM     19  H   UNL     1      10.445   2.212  22.736  0.00  0.00    +0.144 HD
ENDBRANCH  14  17
ENDBRANCH   6  14
TORSDOF 3
ENDMDL
MODEL 7
REMARK VINA RESULT:      -5.1      4.888      6.339
REMARK  Name = 
REMARK  5 active torsions:
REMARK  status: ('A' for Active; 'I' for Inactive)
REMARK    1  A    between atoms: C_1  and  N_2
REMARK    2  A    between atoms: N_2  and  C_3
REMARK    3  A    between atoms: N_2  and  C_4
REMARK    4  A    between atoms: C_9  and  S_14
REMARK    5  A    between atoms: S_14  and  N_15
REMARK                            x       y       z     vdW  Elec       q    Type
REMARK                         _______ _______ _______ _____ _____    ______ ____
ROOT
ATOM      1  C   UNL     1       3.727  -6.095  24.533  0.00  0.00    +0.037 A 
ATOM      2  C   UNL     1       3.356  -5.813  25.859  0.00  0.00    +0.024 A 
ATOM      3  C   UNL     1       4.275  -5.356  26.790  0.00  0.00    +0.002 A 
ATOM      4  C   UNL     1       5.601  -5.169  26.428  0.00  0.00    +0.010 A 
ATOM      5  C   UNL     1       6.046  -5.368  25.099  0.00  0.00    +0.010 A 
ATOM      6  C   UNL     1       7.384  -5.139  24.662  0.00  0.00    +0.113 A 
ATOM      7  C   UNL     1       7.768  -5.346  23.329  0.00  0.00    +0.029 A 
ATOM      8  C   UNL     1       6.829  -5.756  22.401  0.00  0.00    +0.003 A 
ATOM      9  C   UNL     1       5.513  -5.971  22.805  0.00  0.00    +0.010 A 
ATOM     10  C   UNL     1       5.081  -5.824  24.144  0.00  0.00    +0.005 A 
ENDROOT
BRANCH   1  12
ATOM     11  C   UNL     1       1.783  -5.767  23.033  0.00  0.00    +0.129 C 
ATOM     12  N   UNL     1       2.799  -6.651  23.609  0.00  0.00    -0.336 N 
ATOM     13  C   UNL     1       2.297  -7.971  24.016  0.00  0.00    +0.129 C 
ENDBRANCH   1  12
BRANCH   6  14
ATOM     14  S   UNL     1       8.674  -4.596  25.776  0.00  0.00    +0.057 S 
ATOM     15  O   UNL     1       8.345  -5.045  27.111  0.00  0.00    -0.153 OA
ATOM     16  O   UNL     1       8.983  -3.214  25.493  0.00  0.00    -0.153 OA
BRANCH  14  17
ATOM     17  N   UNL     1       9.995  -5.513  25.312  0.00  0.00    -0.203 NA
ATOM     18  H   UNL     1      10.806  -4.996  24.984  0.00  0.00    +0.144 HD
ATOM     19  H   UNL     1      10.141  -6.357  25.860  0.00  0.00    +0.144 HD
ENDBRANCH  14  17
ENDBRANCH   6  14
TORSDOF 3
ENDMDL
MODEL 8
REMARK VINA RESULT:      -5.0      2.238      3.793
REMARK  Name = 
REMARK  5 active torsions:
REMARK  status: ('A' for Active; 'I' for Inactive)
REMARK    1  A    between atoms: C_1  and  N_2
REMARK    2  A    between atoms: N_2  and  C_3
REMARK    3  A    between atoms: N_2  and  C_4
REMARK    4  A    between atoms: C_9  and  S_14
REMARK    5  A    between atoms: S_14  and  N_15
REMARK                            x       y       z     vdW  Elec       q    Type
REMARK                         _______ _______ _______ _____ _____    ______ ____
ROOT
ATOM      1  C   UNL     1       6.347  -4.307  24.898  0.00  0.00    +0.037 A 
ATOM      2  C   UNL     1       6.306  -4.942  23.645  0.00  0.00    +0.024 A 
ATOM      3  C   UNL     1       7.046  -4.480  22.568  0.00  0.00    +0.002 A 
ATOM      4  C   UNL     1       7.854  -3.360  22.707  0.00  0.00    +0.010 A 
ATOM      5  C   UNL     1       8.003  -2.698  23.950  0.00  0.00    +0.010 A 
ATOM      6  C   UNL     1       8.859  -1.577  24.159  0.00  0.00    +0.113 A 
ATOM      7  C   UNL     1       8.974  -0.964  25.416  0.00  0.00    +0.029 A 
ATOM      8  C   UNL     1       8.265  -1.467  26.492  0.00  0.00    +0.003 A 
ATOM      9  C   UNL     1       7.434  -2.571  26.310  0.00  0.00    +0.010 A 
ATOM     10  C   UNL     1       7.243  -3.199  25.056  0.00  0.00    +0.005 A 
ENDROOT
BRANCH   1  12
ATOM     11  C   UNL     1       5.860  -5.976  26.662  0.00  0.00    +0.129 C 
ATOM     12  N   UNL     1       5.514  -4.733  25.969  0.00  0.00    -0.336 N 
ATOM     13  C   UNL     1       4.080  -4.573  25.686  0.00  0.00    +0.129 C 
ENDBRANCH   1  12
BRANCH   6  14
ATOM     14  S   UNL     1       9.830  -0.855  22.842  0.00  0.00    +0.057 S 
ATOM     15  O   UNL     1       8.931  -0.192  21.923  0.00  0.00    -0.153 OA
ATOM     16  O   UNL     1      10.799  -1.826  22.392  0.00  0.00    -0.153 OA
BRANCH  14  17
ATOM     17  N   UNL     1      10.667   0.374  23.610  0.00  0.00    -0.203 NA
ATOM     18  H   UNL     1      10.174   0.853  24.356  0.00  0.00    +0.144 HD
ATOM     19  H   UNL     1      11.666   0.210  23.709  0.00  0.00    +0.144 HD
ENDBRANCH  14  17
ENDBRANCH   6  14
TORSDOF 3
ENDMDL
MODEL 9
REMARK VINA RESULT:      -5.0      1.691      2.475
REMARK  Name = 
REMARK  5 active torsions:
REMARK  status: ('A' for Active; 'I' for Inactive)
REMARK    1  A    between atoms: C_1  and  N_2
REMARK    2  A    between atoms: N_2  and  C_3
REMARK    3  A    between atoms: N_2  and  C_4
REMARK    4  A    between atoms: C_9  and  S_14
REMARK    5  A    between atoms: S_14  and  N_15
REMARK                            x       y       z     vdW  Elec       q    Type
REMARK                         _______ _______ _______ _____ _____    ______ ____
ROOT
ATOM      1  C   UNL     1       7.782  -2.593  24.180  0.00  0.00    +0.037 A 
ATOM      2  C   UNL     1       9.081  -3.058  23.910  0.00  0.00    +0.024 A 
ATOM      3  C   UNL     1      10.104  -2.194  23.553  0.00  0.00    +0.002 A 
ATOM      4  C   UNL     1       9.862  -0.832  23.449  0.00  0.00    +0.010 A 
ATOM      5  C   UNL     1       8.601  -0.272  23.764  0.00  0.00    +0.010 A 
ATOM      6  C   UNL     1       8.315   1.124  23.725  0.00  0.00    +0.113 A 
ATOM      7  C   UNL     1       7.046   1.624  24.056  0.00  0.00    +0.029 A 
ATOM      8  C   UNL     1       6.049   0.754  24.456  0.00  0.00    +0.003 A 
ATOM      9  C   UNL     1       6.313  -0.613  24.515  0.00  0.00    +0.010 A 
ATOM     10  C   UNL     1       7.558  -1.177  24.147  0.00  0.00    +0.005 A 
ENDROOT
BRANCH   1  12
ATOM     11  C   UNL     1       6.736  -4.219  25.727  0.00  0.00    +0.129 C 
ATOM     12  N   UNL     1       6.717  -3.495  24.454  0.00  0.00    -0.336 N 
ATOM     13  C   UNL     1       6.338  -4.314  23.294  0.00  0.00    +0.129 C 
ENDBRANCH   1  12
BRANCH   6  14
ATOM     14  S   UNL     1       9.534   2.337  23.234  0.00  0.00    +0.057 S 
ATOM     15  O   UNL     1      10.776   2.037  23.911  0.00  0.00    -0.153 OA
ATOM     16  O   UNL     1       8.934   3.649  23.290  0.00  0.00    -0.153 OA
BRANCH  14  17
ATOM     17  N   UNL     1       9.807   1.977  21.622  0.00  0.00    -0.203 NA
ATOM     18  H   UNL     1       9.703   1.002  21.358  0.00  0.00    +0.144 HD
ATOM     19  H   UNL     1       9.509   2.697  20.969  0.00  0.00    +0.144 HD
ENDBRANCH  14  17
ENDBRANCH   6  14
TORSDOF 3
ENDMDL
