MODEL 1
REMARK VINA RESULT:      -5.2      0.000      0.000
REMARK  Name = 
REMARK  8 active torsions:
REMARK  status: ('A' for Active; 'I' for Inactive)
REMARK    1  A    between atoms: C_1  and  C_2
REMARK    2  A    between atoms: C_5  and  C_6
REMARK    3  A    between atoms: C_6  and  O_7
REMARK    4  A    between atoms: O_7  and  P_8
REMARK    5  A    between atoms: P_8  and  O_9
REMARK    6  A    between atoms: P_8  and  O_10
REMARK    7  A    between atoms: C_12  and  C_13
REMARK    8  A    between atoms: C_15  and  O_16
REMARK                            x       y       z     vdW  Elec       q    Type
REMARK                         _______ _______ _______ _____ _____    ______ ____
ROOT
ATOM      1  C   UNL     1       7.933  -3.533  26.419  0.00  0.00    +0.069 C 
ATOM      2  C   UNL     1       8.648  -2.397  25.752  0.00  0.00    +0.080 A 
ATOM      3  C   UNL     1       9.222  -2.543  24.491  0.00  0.00    +0.148 A 
ATOM      4  C   UNL     1       9.880  -1.442  23.913  0.00  0.00    +0.064 A 
ATOM      5  C   UNL     1       9.970  -0.228  24.613  0.00  0.00    +0.010 A 
ATOM      6  C   UNL     1       9.335  -0.189  25.854  0.00  0.00    +0.117 A 
ATOM      7  N   UNL     1       8.693  -1.228  26.430  0.00  0.00    -0.256 NA
ENDROOT
BRANCH   3   8
ATOM      8  O   UNL     1       9.112  -3.760  23.870  0.00  0.00    -0.504 OA
ATOM      9  H   UNL     1       9.725  -4.395  24.305  0.00  0.00    +0.292 HD
ENDBRANCH   3   8
BRANCH   4  10
ATOM     10  C   UNL     1      10.460  -1.598  22.557  0.00  0.00    +0.262 C 
ATOM     11  O   UNL     1       9.746  -1.751  21.570  0.00  0.00    -0.296 OA
ENDBRANCH   4  10
BRANCH   5  12
ATOM     12  C   UNL     1      10.648   1.024  24.109  0.00  0.00    +0.210 C 
BRANCH  12  13
ATOM     13  O   UNL     1       9.671   2.037  23.941  0.00  0.00    -0.282 OA
BRANCH  13  14
ATOM     14  P   UNL     1       8.729   1.933  22.493  0.00  0.00    +0.473 P 
ATOM     15  O   UNL     1       7.888   1.840  21.197  0.00  0.00    -0.228 OA
BRANCH  14  16
ATOM     16  O   UNL     1      10.171   2.034  21.724  0.00  0.00    -0.303 OA
ATOM     17  H   UNL     1      10.159   2.701  21.014  0.00  0.00    +0.222 HD
ENDBRANCH  14  16
BRANCH  14  18
ATOM     18  O   UNL     1       8.566   3.554  22.638  0.00  0.00    -0.303 OA
ATOM     19  H   UNL     1       7.673   3.761  22.302  0.00  0.00    +0.222 HD
ENDBRANCH  14  18
ENDBRANCH  13  14
ENDBRANCH  12  13
ENDBRANCH   5  12
TORSDOF 7
ENDMDL
MODEL 2
REMARK VINA RESULT:      -5.2      3.127      5.993
REMARK  Name = 
REMARK  8 active torsions:
REMARK  status: ('A' for Active; 'I' for Inactive)
REMARK    1  A    between atoms: C_1  and  C_2
REMARK    2  A    between atoms: C_5  and  C_6
REMARK    3  A    between atoms: C_6  and  O_7
REMARK    4  A    between atoms: O_7  and  P_8
REMARK    5  A    between atoms: P_8  and  O_9
REMARK    6  A    between atoms: P_8  and  O_10
REMARK    7  A    between atoms: C_12  and  C_13
REMARK    8  A    between atoms: C_15  and  O_16
REMARK                            x       y       z     vdW  Elec       q    Type
REMARK                         _______ _______ _______ _____ _____    ______ ____
ROOT
ATOM      1  C   UNL     1      10.348   2.086  22.630  0.00  0.00    +0.069 C 
ATOM      2  C   UNL     1       9.839   0.724  22.993  0.00  0.00    +0.080 A 
ATOM      3  C   UNL     1       9.291   0.465  24.247  0.00  0.00    +0.148 A 
ATOM      4  C   UNL     1       8.829  -0.832  24.532  0.00  0.00    +0.064 A 
ATOM      5  C   UNL     1       8.943  -1.849  23.569  0.00  0.00    +0.010 A 
ATOM      6  C   UNL     1       9.481  -1.469  22.340  0.00  0.00    +0.117 A 
ATOM      7  N   UNL     1       9.928  -0.230  22.038  0.00  0.00    -0.256 NA
ENDROOT
BRANCH   3   8
ATOM      8  O   UNL     1       9.226   1.497  25.146  0.00  0.00    -0.504 OA
ATOM      9  H   UNL     1      10.036   2.048  25.058  0.00  0.00    +0.292 HD
ENDBRANCH   3   8
BRANCH   4  10
ATOM     10  C   UNL     1       8.217  -1.089  25.859  0.00  0.00    +0.262 C 
ATOM     11  O   UNL     1       8.894  -1.101  26.883  0.00  0.00    -0.296 OA
ENDBRANCH   4  10
BRANCH   5  12
ATOM     12  C   UNL     1       8.489  -3.278  23.748  0.00  0.00    +0.210 C 
BRANCH  12  13
ATOM     13  O   UNL     1       9.313  -3.902  24.717  0.00  0.00    -0.282 OA
BRANCH  13  14
ATOM     14  P   UNL     1       8.506  -4.990  25.793  0.00  0.00    +0.473 P 
ATOM     15  O   UNL     1       7.784  -5.963  26.757  0.00  0.00    -0.228 OA
BRANCH  14  16
ATOM     16  O   UNL     1       9.287  -4.167  26.974  0.00  0.00    -0.303 OA
ATOM     17  H   UNL     1       9.519  -3.263  26.696  0.00  0.00    +0.222 HD
ENDBRANCH  14  16
BRANCH  14  18
ATOM     18  O   UNL     1       9.762  -5.997  25.508  0.00  0.00    -0.303 OA
ATOM     19  H   UNL     1      10.110  -5.744  24.631  0.00  0.00    +0.222 HD
ENDBRANCH  14  18
ENDBRANCH  13  14
ENDBRANCH  12  13
ENDBRANCH   5  12
TORSDOF 7
ENDMDL
MODEL 3
REMARK VINA RESULT:      -5.2      2.581      5.026
REMARK  Name = 
REMARK  8 active torsions:
REMARK  status: ('A' for Active; 'I' for Inactive)
REMARK    1  A    between atoms: C_1  and  C_2
REMARK    2  A    between atoms: C_5  and  C_6
REMARK    3  A    between atoms: C_6  and  O_7
REMARK    4  A    between atoms: O_7  and  P_8
REMARK    5  A    between atoms: P_8  and  O_9
REMARK    6  A    between atoms: P_8  and  O_10
REMARK    7  A    between atoms: C_12  and  C_13
REMARK    8  A    between atoms: C_15  and  O_16
REMARK                            x       y       z     vdW  Elec       q    Type
REMARK                         _______ _______ _______ _____ _____    ______ ____
ROOT
ATOM      1  C   UNL     1       9.825   4.137  23.740  0.00  0.00    +0.069 C 
ATOM      2  C   UNL     1       9.332   2.722  23.800  0.00  0.00    +0.080 A 
ATOM      3  C   UNL     1       9.567   1.828  22.758  0.00  0.00    +0.148 A 
ATOM      4  C   UNL     1       9.082   0.513  22.868  0.00  0.00    +0.064 A 
ATOM      5  C   UNL     1       8.354   0.123  24.006  0.00  0.00    +0.010 A 
ATOM      6  C   UNL     1       8.204   1.093  24.996  0.00  0.00    +0.117 A 
ATOM      7  N   UNL     1       8.664   2.361  24.918  0.00  0.00    -0.256 NA
ENDROOT
BRANCH   3   8
ATOM      8  O   UNL     1      10.269   2.278  21.670  0.00  0.00    -0.504 OA
ATOM      9  H   UNL     1      10.957   1.614  21.440  0.00  0.00    +0.292 HD
ENDBRANCH   3   8
BRANCH   4  10
ATOM     10  C   UNL     1       9.365  -0.440  21.768  0.00  0.00    +0.262 C 
ATOM     11  O   UNL     1      10.187  -1.343  21.900  0.00  0.00    -0.296 OA
ENDBRANCH   4  10
BRANCH   5  12
ATOM     12  C   UNL     1       7.778  -1.252  24.247  0.00  0.00    +0.210 C 
BRANCH  12  13
ATOM     13  O   UNL     1       8.729  -2.028  24.957  0.00  0.00    -0.282 OA
BRANCH  13  14
ATOM     14  P   UNL     1       8.788  -3.704  24.534  0.00  0.00    +0.473 P 
ATOM     15  O   UNL     1       8.842  -5.204  24.156  0.00  0.00    -0.228 OA
BRANCH  14  16
ATOM     16  O   UNL     1      10.292  -3.360  23.984  0.00  0.00    -0.303 OA
ATOM     17  H   UNL     1      10.289  -2.610  23.363  0.00  0.00    +0.222 HD
ENDBRANCH  14  16
BRANCH  14  18
ATOM     18  O   UNL     1       8.053  -3.245  23.147  0.00  0.00    -0.303 OA
ATOM     19  H   UNL     1       7.097  -3.365  23.303  0.00  0.00    +0.222 HD
ENDBRANCH  14  18
ENDBRANCH  13  14
ENDBRANCH  12  13
ENDBRANCH   5  12
TORSDOF 7
ENDMDL
MODEL 4
REMARK VINA RESULT:      -5.1      3.099      4.191
REMARK  Name = 
REMARK  8 active torsions:
REMARK  status: ('A' for Active; 'I' for Inactive)
REMARK    1  A    between atoms: C_1  and  C_2
REMARK    2  A    between atoms: C_5  and  C_6
REMARK    3  A    between atoms: C_6  and  O_7
REMARK    4  A    between atoms: O_7  and  P_8
REMARK    5  A    between atoms: P_8  and  O_9
REMARK    6  A    between atoms: P_8  and  O_10
REMARK    7  A    between atoms: C_12  and  C_13
REMARK    8  A    between atoms: C_15  and  O_16
REMARK                            x       y       z     vdW  Elec       q    Type
REMARK                         _______ _______ _______ _____ _____    ______ ____
ROOT
ATOM      1  C   UNL     1       5.282  -6.422  26.334  0.00  0.00    +0.069 C 
ATOM      2  C   UNL     1       6.038  -5.532  25.395  0.00  0.00    +0.080 A 
ATOM      3  C   UNL     1       7.386  -5.244  25.597  0.00  0.00    +0.148 A 
ATOM      4  C   UNL     1       8.046  -4.402  24.683  0.00  0.00    +0.064 A 
ATOM      5  C   UNL     1       7.342  -3.849  23.601  0.00  0.00    +0.010 A 
ATOM      6  C   UNL     1       6.006  -4.228  23.482  0.00  0.00    +0.117 A 
ATOM      7  N   UNL     1       5.349  -5.038  24.342  0.00  0.00    -0.256 NA
ENDROOT
BRANCH   3   8
ATOM      8  O   UNL     1       8.008  -5.803  26.683  0.00  0.00    -0.504 OA
ATOM      9  H   UNL     1       8.447  -5.091  27.200  0.00  0.00    +0.292 HD
ENDBRANCH   3   8
BRANCH   4  10
ATOM     10  C   UNL     1       9.489  -4.129  24.889  0.00  0.00    +0.262 C 
ATOM     11  O   UNL     1      10.295  -5.039  25.052  0.00  0.00    -0.296 OA
ENDBRANCH   4  10
BRANCH   5  12
ATOM     12  C   UNL     1       7.929  -2.933  22.553  0.00  0.00    +0.210 C 
BRANCH  12  13
ATOM     13  O   UNL     1       7.864  -1.597  23.024  0.00  0.00    -0.282 OA
BRANCH  13  14
ATOM     14  P   UNL     1       8.990  -0.498  22.305  0.00  0.00    +0.473 P 
ATOM     15  O   UNL     1       9.999   0.485  21.663  0.00  0.00    -0.228 OA
BRANCH  14  16
ATOM     16  O   UNL     1       9.658  -1.842  21.650  0.00  0.00    -0.303 OA
ATOM     17  H   UNL     1      10.223  -2.316  22.286  0.00  0.00    +0.222 HD
ENDBRANCH  14  16
BRANCH  14  18
ATOM     18  O   UNL     1       9.818  -0.635  23.709  0.00  0.00    -0.303 OA
ATOM     19  H   UNL     1      10.387   0.157  23.759  0.00  0.00    +0.222 HD
ENDBRANCH  14  18
ENDBRANCH  13  14
ENDBRANCH  12  13
ENDBRANCH   5  12
TORSDOF 7
ENDMDL
MODEL 5
REMARK VINA RESULT:      -5.1      2.266      2.847
REMARK  Name = 
REMARK  8 active torsions:
REMARK  status: ('A' for Active; 'I' for Inactive)
REMARK    1  A    between atoms: C_1  and  C_2
REMARK    2  A    between atoms: C_5  and  C_6
REMARK    3  A    between atoms: C_6  and  O_7
REMARK    4  A    between atoms: O_7  and  P_8
REMARK    5  A    between atoms: P_8  and  O_9
REMARK    6  A    between atoms: P_8  and  O_10
REMARK    7  A    between atoms: C_12  and  C_13
REMARK    8  A    between atoms: C_15  and  O_16
REMARK                            x       y       z     vdW  Elec       q    Type
REMARK                         _______ _______ _______ _____ _____    ______ ____
ROOT
ATOM      1  C   UNL     1       8.953  -5.326  25.521  0.00  0.00    +0.069 C 
ATOM      2  C   UNL     1       8.839  -4.243  24.491  0.00  0.00    +0.080 A 
ATOM      3  C   UNL     1       7.687  -4.091  23.723  0.00  0.00    +0.148 A 
ATOM      4  C   UNL     1       7.635  -3.056  22.772  0.00  0.00    +0.064 A 
ATOM      5  C   UNL     1       8.743  -2.210  22.590  0.00  0.00    +0.010 A 
ATOM      6  C   UNL     1       9.830  -2.438  23.433  0.00  0.00    +0.117 A 
ATOM      7  N   UNL     1       9.904  -3.420  24.358  0.00  0.00    -0.256 NA
ENDROOT
BRANCH   3   8
ATOM      8  O   UNL     1       6.650  -4.961  23.939  0.00  0.00    -0.504 OA
ATOM      9  H   UNL     1       7.002  -5.879  23.947  0.00  0.00    +0.292 HD
ENDBRANCH   3   8
BRANCH   4  10
ATOM     10  C   UNL     1       6.392  -2.882  21.983  0.00  0.00    +0.262 C 
ATOM     11  O   UNL     1       5.804  -3.844  21.496  0.00  0.00    -0.296 OA
ENDBRANCH   4  10
BRANCH   5  12
ATOM     12  C   UNL     1       8.818  -1.067  21.606  0.00  0.00    +0.210 C 
BRANCH  12  13
ATOM     13  O   UNL     1       9.512   0.012  22.209  0.00  0.00    -0.282 OA
BRANCH  13  14
ATOM     14  P   UNL     1       8.732   1.552  22.102  0.00  0.00    +0.473 P 
ATOM     15  O   UNL     1       8.035   2.931  22.007  0.00  0.00    -0.228 OA
BRANCH  14  16
ATOM     16  O   UNL     1      10.193   2.091  21.595  0.00  0.00    -0.303 OA
ATOM     17  H   UNL     1      10.814   1.359  21.430  0.00  0.00    +0.222 HD
ENDBRANCH  14  16
BRANCH  14  18
ATOM     18  O   UNL     1       9.101   1.702  23.688  0.00  0.00    -0.303 OA
ATOM     19  H   UNL     1       9.765   1.010  23.872  0.00  0.00    +0.222 HD
ENDBRANCH  14  18
ENDBRANCH  13  14
ENDBRANCH  12  13
ENDBRANCH   5  12
TORSDOF 7
ENDMDL
MODEL 6
REMARK VINA RESULT:      -5.1      5.780      7.151
REMARK  Name = 
REMARK  8 active torsions:
REMARK  status: ('A' for Active; 'I' for Inactive)
REMARK    1  A    between atoms: C_1  and  C_2
REMARK    2  A    between atoms: C_5  and  C_6
REMARK    3  A    between atoms: C_6  and  O_7
REMARK    4  A    between atoms: O_7  and  P_8
REMARK    5  A    between atoms: P_8  and  O_9
REMARK    6  A    between atoms: P_8  and  O_10
REMARK    7  A    between atoms: C_12  and  C_13
REMARK    8  A    between atoms: C_15  and  O_16
REMARK                            x       y       z     vdW  Elec       q    Type
REMARK                         _______ _______ _______ _____ _____    ______ ____
ROOT
ATOM      1  C   UNL     1       6.112  -6.444  29.458  0.00  0.00    +0.069 C 
ATOM      2  C   UNL     1       6.068  -5.948  28.044  0.00  0.00    +0.080 A 
ATOM      3  C   UNL     1       5.143  -6.447  27.130  0.00  0.00    +0.148 A 
ATOM      4  C   UNL     1       5.147  -5.945  25.816  0.00  0.00    +0.064 A 
ATOM      5  C   UNL     1       6.086  -4.971  25.437  0.00  0.00    +0.010 A 
ATOM      6  C   UNL     1       6.944  -4.526  26.441  0.00  0.00    +0.117 A 
ATOM      7  N   UNL     1       6.959  -4.987  27.711  0.00  0.00    -0.256 NA
ENDROOT
BRANCH   3   8
ATOM      8  O   UNL     1       4.266  -7.408  27.561  0.00  0.00    -0.504 OA
ATOM      9  H   UNL     1       3.355  -7.148  27.298  0.00  0.00    +0.292 HD
ENDBRANCH   3   8
BRANCH   4  10
ATOM     10  C   UNL     1       4.137  -6.459  24.860  0.00  0.00    +0.262 C 
ATOM     11  O   UNL     1       4.092  -7.648  24.555  0.00  0.00    -0.296 OA
ENDBRANCH   4  10
BRANCH   5  12
ATOM     12  C   UNL     1       6.198  -4.352  24.064  0.00  0.00    +0.210 C 
BRANCH  12  13
ATOM     13  O   UNL     1       7.013  -5.181  23.253  0.00  0.00    -0.282 OA
BRANCH  13  14
ATOM     14  P   UNL     1       6.481  -5.380  21.619  0.00  0.00    +0.473 P 
ATOM     15  O   UNL     1       6.005  -5.558  20.157  0.00  0.00    -0.228 OA
BRANCH  14  16
ATOM     16  O   UNL     1       5.158  -4.545  22.103  0.00  0.00    -0.303 OA
ATOM     17  H   UNL     1       4.443  -4.580  21.442  0.00  0.00    +0.222 HD
ENDBRANCH  14  16
BRANCH  14  18
ATOM     18  O   UNL     1       5.895  -6.821  22.123  0.00  0.00    -0.303 OA
ATOM     19  H   UNL     1       4.986  -6.643  22.431  0.00  0.00    +0.222 HD
ENDBRANCH  14  18
ENDBRANCH  13  14
ENDBRANCH  12  13
ENDBRANCH   5  12
TORSDOF 7
ENDMDL
MODEL 7
REMARK VINA RESULT:      -5.0      3.497      6.053
REMARK  Name = 
REMARK  8 active torsions:
REMARK  status: ('A' for Active; 'I' for Inactive)
REMARK    1  A    between atoms: C_1  and  C_2
REMARK    2  A    between atoms: C_5  and  C_6
REMARK    3  A    between atoms: C_6  and  O_7
REMARK    4  A    between atoms: O_7  and  P_8
REMARK    5  A    between atoms: P_8  and  O_9
REMARK    6  A    between atoms: P_8  and  O_10
REMARK    7  A    between atoms: C_12  and  C_13
REMARK    8  A    between atoms: C_15  and  O_16
REMARK                            x       y       z     vdW  Elec       q    Type
REMARK                         _______ _______ _______ _____ _____    ______ ____
ROOT
ATOM      1  C   UNL     1       8.537   1.804  21.652  0.00  0.00    +0.069 C 
ATOM      2  C   UNL     1       8.367   0.389  22.118  0.00  0.00    +0.080 A 
ATOM      3  C   UNL     1       7.264   0.004  22.875  0.00  0.00    +0.148 A 
ATOM      4  C   UNL     1       7.155  -1.338  23.285  0.00  0.00    +0.064 A 
ATOM      5  C   UNL     1       8.162  -2.260  22.950  0.00  0.00    +0.010 A 
ATOM      6  C   UNL     1       9.205  -1.768  22.167  0.00  0.00    +0.117 A 
ATOM      7  N   UNL     1       9.330  -0.488  21.756  0.00  0.00    -0.256 NA
ENDROOT
BRANCH   3   8
ATOM      8  O   UNL     1       6.328   0.957  23.181  0.00  0.00    -0.504 OA
ATOM      9  H   UNL     1       5.464   0.515  23.340  0.00  0.00    +0.292 HD
ENDBRANCH   3   8
BRANCH   4  10
ATOM     10  C   UNL     1       5.960  -1.745  24.062  0.00  0.00    +0.262 C 
ATOM     11  O   UNL     1       5.408  -0.971  24.838  0.00  0.00    -0.296 OA
ENDBRANCH   4  10
BRANCH   5  12
ATOM     12  C   UNL     1       8.168  -3.722  23.328  0.00  0.00    +0.210 C 
BRANCH  12  13
ATOM     13  O   UNL     1       9.236  -3.958  24.230  0.00  0.00    -0.282 OA
BRANCH  13  14
ATOM     14  P   UNL     1       8.776  -4.530  25.796  0.00  0.00    +0.473 P 
ATOM     15  O   UNL     1       8.365  -5.043  27.198  0.00  0.00    -0.228 OA
BRANCH  14  16
ATOM     16  O   UNL     1       9.766  -5.792  25.463  0.00  0.00    -0.303 OA
ATOM     17  H   UNL     1       9.646  -6.525  26.094  0.00  0.00    +0.222 HD
ENDBRANCH  14  16
BRANCH  14  18
ATOM     18  O   UNL     1       7.490  -5.192  25.033  0.00  0.00    -0.303 OA
ATOM     19  H   UNL     1       6.727  -5.044  25.623  0.00  0.00    +0.222 HD
ENDBRANCH  14  18
ENDBRANCH  13  14
ENDBRANCH  12  13
ENDBRANCH   5  12
TORSDOF 7
ENDMDL
MODEL 8
REMARK VINA RESULT:      -5.0      3.015      3.616
REMARK  Name = 
REMARK  8 active torsions:
REMARK  status: ('A' for Active; 'I' for Inactive)
REMARK    1  A    between atoms: C_1  and  C_2
REMARK    2  A    between atoms: C_5  and  C_6
REMARK    3  A    between atoms: C_6  and  O_7
REMARK    4  A    between atoms: O_7  and  P_8
REMARK    5  A    between atoms: P_8  and  O_9
REMARK    6  A    between atoms: P_8  and  O_10
REMARK    7  A    between atoms: C_12  and  C_13
REMARK    8  A    between atoms: C_15  and  O_16
REMARK                            x       y       z     vdW  Elec       q    Type
REMARK                         _______ _______ _______ _____ _____    ______ ____
ROOT
ATOM      1  C   UNL     1       6.408  -6.371  21.944  0.00  0.00    +0.069 C 
ATOM      2  C   UNL     1       6.620  -4.937  22.329  0.00  0.00    +0.080 A 
ATOM      3  C   UNL     1       7.684  -4.555  23.142  0.00  0.00    +0.148 A 
ATOM      4  C   UNL     1       7.834  -3.196  23.471  0.00  0.00    +0.064 A 
ATOM      5  C   UNL     1       6.907  -2.250  23.000  0.00  0.00    +0.010 A 
ATOM      6  C   UNL     1       5.899  -2.743  22.172  0.00  0.00    +0.117 A 
ATOM      7  N   UNL     1       5.735  -4.041  21.837  0.00  0.00    -0.256 NA
ENDROOT
BRANCH   3   8
ATOM      8  O   UNL     1       8.542  -5.530  23.581  0.00  0.00    -0.504 OA
ATOM      9  H   UNL     1       9.408  -5.418  23.128  0.00  0.00    +0.292 HD
ENDBRANCH   3   8
BRANCH   4  10
ATOM     10  C   UNL     1       8.990  -2.794  24.310  0.00  0.00    +0.262 C 
ATOM     11  O   UNL     1      10.145  -2.972  23.934  0.00  0.00    -0.296 OA
ENDBRANCH   4  10
BRANCH   5  12
ATOM     12  C   UNL     1       6.952  -0.767  23.280  0.00  0.00    +0.210 C 
BRANCH  12  13
ATOM     13  O   UNL     1       7.941  -0.175  22.455  0.00  0.00    -0.282 OA
BRANCH  13  14
ATOM     14  P   UNL     1       7.766   1.524  22.184  0.00  0.00    +0.473 P 
ATOM     15  O   UNL     1       7.611   3.045  21.941  0.00  0.00    -0.228 OA
BRANCH  14  16
ATOM     16  O   UNL     1       8.907   1.308  21.029  0.00  0.00    -0.303 OA
ATOM     17  H   UNL     1       9.782   1.117  21.413  0.00  0.00    +0.222 HD
ENDBRANCH  14  16
BRANCH  14  18
ATOM     18  O   UNL     1       8.858   1.696  23.389  0.00  0.00    -0.303 OA
ATOM     19  H   UNL     1       8.542   1.125  24.115  0.00  0.00    +0.222 HD
ENDBRANCH  14  18
ENDBRANCH  13  14
ENDBRANCH  12  13
ENDBRANCH   5  12
TORSDOF 7
ENDMDL
MODEL 9
REMARK VINA RESULT:      -4.9      3.402      5.533
REMARK  Name = 
REMARK  8 active torsions:
REMARK  status: ('A' for Active; 'I' for Inactive)
REMARK    1  A    between atoms: C_1  and  C_2
REMARK    2  A    between atoms: C_5  and  C_6
REMARK    3  A    between atoms: C_6  and  O_7
REMARK    4  A    between atoms: O_7  and  P_8
REMARK    5  A    between atoms: P_8  and  O_9
REMARK    6  A    between atoms: P_8  and  O_10
REMARK    7  A    between atoms: C_12  and  C_13
REMARK    8  A    between atoms: C_15  and  O_16
REMARK                            x       y       z     vdW  Elec       q    Type
REMARK                         _______ _______ _______ _____ _____    ______ ____
ROOT
ATOM      1  C   UNL     1      10.894   1.084  24.381  0.00  0.00    +0.069 C 
ATOM      2  C   UNL     1      10.168  -0.223  24.266  0.00  0.00    +0.080 A 
ATOM      3  C   UNL     1       9.405  -0.723  25.318  0.00  0.00    +0.148 A 
ATOM      4  C   UNL     1       8.745  -1.954  25.155  0.00  0.00    +0.064 A 
ATOM      5  C   UNL     1       8.879  -2.671  23.953  0.00  0.00    +0.010 A 
ATOM      6  C   UNL     1       9.645  -2.061  22.961  0.00  0.00    +0.117 A 
ATOM      7  N   UNL     1      10.285  -0.878  23.090  0.00  0.00    -0.256 NA
ENDROOT
BRANCH   3   8
ATOM      8  O   UNL     1       9.329   0.019  26.469  0.00  0.00    -0.504 OA
ATOM      9  H   UNL     1       8.611  -0.343  27.034  0.00  0.00    +0.292 HD
ENDBRANCH   3   8
BRANCH   4  10
ATOM     10  C   UNL     1       7.907  -2.461  26.268  0.00  0.00    +0.262 C 
ATOM     11  O   UNL     1       7.026  -1.771  26.771  0.00  0.00    -0.296 OA
ENDBRANCH   4  10
BRANCH   5  12
ATOM     12  C   UNL     1       8.228  -3.999  23.650  0.00  0.00    +0.210 C 
BRANCH  12  13
ATOM     13  O   UNL     1       7.543  -3.902  22.414  0.00  0.00    -0.282 OA
BRANCH  13  14
ATOM     14  P   UNL     1       6.064  -4.793  22.309  0.00  0.00    +0.473 P 
ATOM     15  O   UNL     1       4.740  -5.591  22.214  0.00  0.00    -0.228 OA
BRANCH  14  16
ATOM     16  O   UNL     1       6.927  -5.831  21.382  0.00  0.00    -0.303 OA
ATOM     17  H   UNL     1       6.728  -6.761  21.595  0.00  0.00    +0.222 HD
ENDBRANCH  14  16
BRANCH  14  18
ATOM     18  O   UNL     1       5.706  -3.799  21.060  0.00  0.00    -0.303 OA
ATOM     19  H   UNL     1       5.479  -2.940  21.464  0.00  0.00    +0.222 HD
ENDBRANCH  14  18
ENDBRANCH  13  14
ENDBRANCH  12  13
ENDBRANCH   5  12
TORSDOF 7
ENDMDL
