MODEL 1
REMARK VINA RESULT:      -5.7      0.000      0.000
REMARK  Name = 
REMARK  1 active torsions:
REMARK  status: ('A' for Active; 'I' for Inactive)
REMARK    1  A    between atoms: C_2  and  C_4
REMARK                            x       y       z     vdW  Elec       q    Type
REMARK                         _______ _______ _______ _____ _____    ______ ____
ROOT
ATOM      1  C   UNL     1       9.277  -2.501  23.777  0.00  0.00    +0.055 A 
ATOM      2  C   UNL     1       8.880  -2.319  22.460  0.00  0.00    +0.124 A 
ATOM      3  N   UNL     1       9.024  -1.155  21.778  0.00  0.00    -0.254 NA
ATOM      4  C   UNL     1       9.557  -0.105  22.429  0.00  0.00    +0.071 A 
ATOM      5  C   UNL     1       9.990  -0.191  23.772  0.00  0.00    +0.001 A 
ATOM      6  C   UNL     1      10.527   0.938  24.415  0.00  0.00    +0.010 A 
ATOM      7  C   UNL     1      10.625   2.153  23.741  0.00  0.00    +0.001 A 
ATOM      8  C   UNL     1      10.198   2.243  22.421  0.00  0.00    +0.002 A 
ATOM      9  C   UNL     1       9.676   1.115  21.779  0.00  0.00    +0.028 A 
ATOM     10  C   UNL     1       9.846  -1.416  24.440  0.00  0.00    +0.024 A 
ENDROOT
BRANCH   1  14
ATOM     11  N   UNL     1       7.733  -4.138  24.704  0.00  0.00    -0.325 N 
ATOM     12  H   UNL     1       6.979  -3.466  24.697  0.00  0.00    +0.145 HD
ATOM     13  H   UNL     1       7.591  -4.999  25.213  0.00  0.00    +0.145 HD
ATOM     14  C   UNL     1       9.029  -3.804  24.426  0.00  0.00    +0.243 C 
ATOM     15  O   UNL     1       9.951  -4.553  24.723  0.00  0.00    -0.270 OA
ENDBRANCH   1  14
TORSDOF 1
ENDMDL
MODEL 2
REMARK VINA RESULT:      -5.4      2.558      4.824
REMARK  Name = 
REMARK  1 active torsions:
REMARK  status: ('A' for Active; 'I' for Inactive)
REMARK    1  A    between atoms: C_2  and  C_4
REMARK                            x       y       z     vdW  Elec       q    Type
REMARK                         _______ _______ _______ _____ _____    ______ ____
ROOT
ATOM      1  C   UNL     1       9.938   0.475  23.339  0.00  0.00    +0.055 A 
ATOM      2  C   UNL     1      10.337  -0.584  22.537  0.00  0.00    +0.124 A 
ATOM      3  N   UNL     1      10.146  -1.889  22.854  0.00  0.00    -0.254 NA
ATOM      4  C   UNL     1       9.563  -2.173  24.032  0.00  0.00    +0.071 A 
ATOM      5  C   UNL     1       9.124  -1.163  24.919  0.00  0.00    +0.001 A 
ATOM      6  C   UNL     1       8.533  -1.508  26.147  0.00  0.00    +0.010 A 
ATOM      7  C   UNL     1       8.386  -2.846  26.506  0.00  0.00    +0.001 A 
ATOM      8  C   UNL     1       8.819  -3.843  25.639  0.00  0.00    +0.002 A 
ATOM      9  C   UNL     1       9.394  -3.497  24.412  0.00  0.00    +0.028 A 
ATOM     10  C   UNL     1       9.317   0.176  24.549  0.00  0.00    +0.024 A 
ENDROOT
BRANCH   1  14
ATOM     11  N   UNL     1       9.934   2.196  21.617  0.00  0.00    -0.325 N 
ATOM     12  H   UNL     1       9.729   1.513  20.901  0.00  0.00    +0.145 HD
ATOM     13  H   UNL     1      10.215   3.120  21.319  0.00  0.00    +0.145 HD
ATOM     14  C   UNL     1      10.239   1.854  22.905  0.00  0.00    +0.243 C 
ATOM     15  O   UNL     1      10.762   2.661  23.664  0.00  0.00    -0.270 OA
ENDBRANCH   1  14
TORSDOF 1
ENDMDL
MODEL 3
REMARK VINA RESULT:      -5.4      2.636      5.228
REMARK  Name = 
REMARK  1 active torsions:
REMARK  status: ('A' for Active; 'I' for Inactive)
REMARK    1  A    between atoms: C_2  and  C_4
REMARK                            x       y       z     vdW  Elec       q    Type
REMARK                         _______ _______ _______ _____ _____    ______ ____
ROOT
ATOM      1  C   UNL     1       9.103   0.033  22.405  0.00  0.00    +0.055 A 
ATOM      2  C   UNL     1       9.984  -0.142  23.462  0.00  0.00    +0.124 A 
ATOM      3  N   UNL     1      10.106  -1.297  24.164  0.00  0.00    -0.254 NA
ATOM      4  C   UNL     1       9.302  -2.323  23.833  0.00  0.00    +0.071 A 
ATOM      5  C   UNL     1       8.371  -2.241  22.773  0.00  0.00    +0.001 A 
ATOM      6  C   UNL     1       7.541  -3.336  22.474  0.00  0.00    +0.010 A 
ATOM      7  C   UNL     1       7.620  -4.505  23.227  0.00  0.00    +0.001 A 
ATOM      8  C   UNL     1       8.532  -4.590  24.273  0.00  0.00    +0.002 A 
ATOM      9  C   UNL     1       9.366  -3.504  24.559  0.00  0.00    +0.028 A 
ATOM     10  C   UNL     1       8.287  -1.040  22.054  0.00  0.00    +0.024 A 
ENDROOT
BRANCH   1  14
ATOM     11  N   UNL     1      10.172   2.103  21.700  0.00  0.00    -0.325 N 
ATOM     12  H   UNL     1      10.980   1.910  22.274  0.00  0.00    +0.145 HD
ATOM     13  H   UNL     1      10.084   3.031  21.310  0.00  0.00    +0.145 HD
ATOM     14  C   UNL     1       9.031   1.353  21.745  0.00  0.00    +0.243 C 
ATOM     15  O   UNL     1       7.982   1.771  21.270  0.00  0.00    -0.270 OA
ENDBRANCH   1  14
TORSDOF 1
ENDMDL
MODEL 4
REMARK VINA RESULT:      -5.3      1.864      2.524
REMARK  Name = 
REMARK  1 active torsions:
REMARK  status: ('A' for Active; 'I' for Inactive)
REMARK    1  A    between atoms: C_2  and  C_4
REMARK                            x       y       z     vdW  Elec       q    Type
REMARK                         _______ _______ _______ _____ _____    ______ ____
ROOT
ATOM      1  C   UNL     1       8.004  -4.172  24.703  0.00  0.00    +0.055 A 
ATOM      2  C   UNL     1       7.564  -4.267  23.391  0.00  0.00    +0.124 A 
ATOM      3  N   UNL     1       7.897  -3.386  22.414  0.00  0.00    -0.254 NA
ATOM      4  C   UNL     1       8.676  -2.341  22.746  0.00  0.00    +0.071 A 
ATOM      5  C   UNL     1       9.173  -2.157  24.056  0.00  0.00    +0.001 A 
ATOM      6  C   UNL     1       9.973  -1.041  24.359  0.00  0.00    +0.010 A 
ATOM      7  C   UNL     1      10.272  -0.101  23.375  0.00  0.00    +0.001 A 
ATOM      8  C   UNL     1       9.783  -0.276  22.086  0.00  0.00    +0.002 A 
ATOM      9  C   UNL     1       8.998  -1.395  21.784  0.00  0.00    +0.028 A 
ATOM     10  C   UNL     1       8.828  -3.099  25.036  0.00  0.00    +0.024 A 
ENDROOT
BRANCH   1  14
ATOM     11  N   UNL     1       8.465  -5.698  26.542  0.00  0.00    -0.325 N 
ATOM     12  H   UNL     1       9.461  -5.616  26.393  0.00  0.00    +0.145 HD
ATOM     13  H   UNL     1       8.141  -6.432  27.157  0.00  0.00    +0.145 HD
ATOM     14  C   UNL     1       7.539  -5.170  25.687  0.00  0.00    +0.243 C 
ATOM     15  O   UNL     1       6.368  -5.527  25.727  0.00  0.00    -0.270 OA
ENDBRANCH   1  14
TORSDOF 1
ENDMDL
MODEL 5
REMARK VINA RESULT:      -5.3      1.483      2.164
REMARK  Name = 
REMARK  1 active torsions:
REMARK  status: ('A' for Active; 'I' for Inactive)
REMARK    1  A    between atoms: C_2  and  C_4
REMARK                            x       y       z     vdW  Elec       q    Type
REMARK                         _______ _______ _______ _____ _____    ______ ____
ROOT
ATOM      1  C   UNL     1       8.472  -2.752  23.288  0.00  0.00    +0.055 A 
ATOM      2  C   UNL     1       8.850  -2.403  24.576  0.00  0.00    +0.124 A 
ATOM      3  N   UNL     1       9.363  -1.193  24.914  0.00  0.00    -0.254 NA
ATOM      4  C   UNL     1       9.545  -0.289  23.934  0.00  0.00    +0.071 A 
ATOM      5  C   UNL     1       9.193  -0.553  22.590  0.00  0.00    +0.001 A 
ATOM      6  C   UNL     1       9.415   0.417  21.598  0.00  0.00    +0.010 A 
ATOM      7  C   UNL     1       9.995   1.641  21.926  0.00  0.00    +0.001 A 
ATOM      8  C   UNL     1      10.346   1.903  23.245  0.00  0.00    +0.002 A 
ATOM      9  C   UNL     1      10.111   0.941  24.233  0.00  0.00    +0.028 A 
ATOM     10  C   UNL     1       8.644  -1.806  22.280  0.00  0.00    +0.024 A 
ENDROOT
BRANCH   1  14
ATOM     11  N   UNL     1       6.978  -4.265  22.103  0.00  0.00    -0.325 N 
ATOM     12  H   UNL     1       6.435  -3.490  21.749  0.00  0.00    +0.145 HD
ATOM     13  H   UNL     1       6.595  -5.194  22.000  0.00  0.00    +0.145 HD
ATOM     14  C   UNL     1       7.965  -4.116  23.037  0.00  0.00    +0.243 C 
ATOM     15  O   UNL     1       8.397  -5.081  23.656  0.00  0.00    -0.270 OA
ENDBRANCH   1  14
TORSDOF 1
ENDMDL
MODEL 6
REMARK VINA RESULT:      -5.3      2.847      5.149
REMARK  Name = 
REMARK  1 active torsions:
REMARK  status: ('A' for Active; 'I' for Inactive)
REMARK    1  A    between atoms: C_2  and  C_4
REMARK                            x       y       z     vdW  Elec       q    Type
REMARK                         _______ _______ _______ _____ _____    ______ ____
ROOT
ATOM      1  C   UNL     1       9.874   1.049  23.750  0.00  0.00    +0.055 A 
ATOM      2  C   UNL     1       9.084   1.279  24.866  0.00  0.00    +0.124 A 
ATOM      3  N   UNL     1       8.593   0.297  25.663  0.00  0.00    -0.254 NA
ATOM      4  C   UNL     1       8.864  -0.978  25.332  0.00  0.00    +0.071 A 
ATOM      5  C   UNL     1       9.658  -1.314  24.211  0.00  0.00    +0.001 A 
ATOM      6  C   UNL     1       9.902  -2.662  23.897  0.00  0.00    +0.010 A 
ATOM      7  C   UNL     1       9.353  -3.678  24.676  0.00  0.00    +0.001 A 
ATOM      8  C   UNL     1       8.569  -3.353  25.776  0.00  0.00    +0.002 A 
ATOM      9  C   UNL     1       8.339  -2.011  26.096  0.00  0.00    +0.028 A 
ATOM     10  C   UNL     1      10.168  -0.273  23.422  0.00  0.00    +0.024 A 
ENDROOT
BRANCH   1  14
ATOM     11  N   UNL     1       9.992   2.198  21.607  0.00  0.00    -0.325 N 
ATOM     12  H   UNL     1       9.676   1.372  21.120  0.00  0.00    +0.145 HD
ATOM     13  H   UNL     1      10.365   2.957  21.054  0.00  0.00    +0.145 HD
ATOM     14  C   UNL     1      10.315   2.200  22.935  0.00  0.00    +0.243 C 
ATOM     15  O   UNL     1      10.963   3.115  23.425  0.00  0.00    -0.270 OA
ENDBRANCH   1  14
TORSDOF 1
ENDMDL
MODEL 7
REMARK VINA RESULT:      -5.1      2.659      5.376
REMARK  Name = 
REMARK  1 active torsions:
REMARK  status: ('A' for Active; 'I' for Inactive)
REMARK    1  A    between atoms: C_2  and  C_4
REMARK                            x       y       z     vdW  Elec       q    Type
REMARK                         _______ _______ _______ _____ _____    ______ ____
ROOT
ATOM      1  C   UNL     1       9.361  -1.522  22.951  0.00  0.00    +0.055 A 
ATOM      2  C   UNL     1       9.889  -2.439  23.849  0.00  0.00    +0.124 A 
ATOM      3  N   UNL     1       9.324  -3.641  24.126  0.00  0.00    -0.254 NA
ATOM      4  C   UNL     1       8.165  -3.948  23.517  0.00  0.00    +0.071 A 
ATOM      5  C   UNL     1       7.547  -3.079  22.588  0.00  0.00    +0.001 A 
ATOM      6  C   UNL     1       6.328  -3.437  21.988  0.00  0.00    +0.010 A 
ATOM      7  C   UNL     1       5.711  -4.644  22.311  0.00  0.00    +0.001 A 
ATOM      8  C   UNL     1       6.313  -5.500  23.225  0.00  0.00    +0.002 A 
ATOM      9  C   UNL     1       7.534  -5.148  23.812  0.00  0.00    +0.028 A 
ATOM     10  C   UNL     1       8.170  -1.854  22.308  0.00  0.00    +0.024 A 
ENDROOT
BRANCH   1  14
ATOM     11  N   UNL     1      10.754   0.274  23.821  0.00  0.00    -0.325 N 
ATOM     12  H   UNL     1      10.652  -0.070  24.764  0.00  0.00    +0.145 HD
ATOM     13  H   UNL     1      11.153   1.194  23.696  0.00  0.00    +0.145 HD
ATOM     14  C   UNL     1      10.046  -0.227  22.765  0.00  0.00    +0.243 C 
ATOM     15  O   UNL     1       9.968   0.388  21.709  0.00  0.00    -0.270 OA
ENDBRANCH   1  14
TORSDOF 1
ENDMDL
MODEL 8
REMARK VINA RESULT:      -5.1      2.332      5.270
REMARK  Name = 
REMARK  1 active torsions:
REMARK  status: ('A' for Active; 'I' for Inactive)
REMARK    1  A    between atoms: C_2  and  C_4
REMARK                            x       y       z     vdW  Elec       q    Type
REMARK                         _______ _______ _______ _____ _____    ______ ____
ROOT
ATOM      1  C   UNL     1       9.003  -2.180  23.258  0.00  0.00    +0.055 A 
ATOM      2  C   UNL     1       7.921  -2.703  22.566  0.00  0.00    +0.124 A 
ATOM      3  N   UNL     1       7.071  -3.629  23.076  0.00  0.00    -0.254 NA
ATOM      4  C   UNL     1       7.311  -4.090  24.316  0.00  0.00    +0.071 A 
ATOM      5  C   UNL     1       8.390  -3.621  25.100  0.00  0.00    +0.001 A 
ATOM      6  C   UNL     1       8.610  -4.143  26.386  0.00  0.00    +0.010 A 
ATOM      7  C   UNL     1       7.776  -5.136  26.895  0.00  0.00    +0.001 A 
ATOM      8  C   UNL     1       6.716  -5.604  26.127  0.00  0.00    +0.002 A 
ATOM      9  C   UNL     1       6.491  -5.072  24.852  0.00  0.00    +0.028 A 
ATOM     10  C   UNL     1       9.236  -2.646  24.550  0.00  0.00    +0.024 A 
ENDROOT
BRANCH   1  14
ATOM     11  N   UNL     1       9.797  -1.113  21.220  0.00  0.00    -0.325 N 
ATOM     12  H   UNL     1       9.343  -1.810  20.648  0.00  0.00    +0.145 HD
ATOM     13  H   UNL     1      10.458  -0.494  20.770  0.00  0.00    +0.145 HD
ATOM     14  C   UNL     1       9.883  -1.206  22.581  0.00  0.00    +0.243 C 
ATOM     15  O   UNL     1      10.677  -0.519  23.211  0.00  0.00    -0.270 OA
ENDBRANCH   1  14
TORSDOF 1
ENDMDL
MODEL 9
REMARK VINA RESULT:      -5.0      2.390      4.852
REMARK  Name = 
REMARK  1 active torsions:
REMARK  status: ('A' for Active; 'I' for Inactive)
REMARK    1  A    between atoms: C_2  and  C_4
REMARK                            x       y       z     vdW  Elec       q    Type
REMARK                         _______ _______ _______ _____ _____    ______ ____
ROOT
ATOM      1  C   UNL     1       9.358   0.187  23.156  0.00  0.00    +0.055 A 
ATOM      2  C   UNL     1       8.059   0.131  22.674  0.00  0.00    +0.124 A 
ATOM      3  N   UNL     1       7.262  -0.963  22.768  0.00  0.00    -0.254 NA
ATOM      4  C   UNL     1       7.774  -2.070  23.336  0.00  0.00    +0.071 A 
ATOM      5  C   UNL     1       9.089  -2.112  23.855  0.00  0.00    +0.001 A 
ATOM      6  C   UNL     1       9.585  -3.296  24.427  0.00  0.00    +0.010 A 
ATOM      7  C   UNL     1       8.793  -4.441  24.475  0.00  0.00    +0.001 A 
ATOM      8  C   UNL     1       7.502  -4.406  23.963  0.00  0.00    +0.002 A 
ATOM      9  C   UNL     1       7.005  -3.222  23.407  0.00  0.00    +0.028 A 
ATOM     10  C   UNL     1       9.877  -0.956  23.761  0.00  0.00    +0.024 A 
ENDROOT
BRANCH   1  14
ATOM     11  N   UNL     1      10.051   2.043  21.743  0.00  0.00    -0.325 N 
ATOM     12  H   UNL     1       9.667   1.595  20.924  0.00  0.00    +0.145 HD
ATOM     13  H   UNL     1      10.652   2.844  21.603  0.00  0.00    +0.145 HD
ATOM     14  C   UNL     1      10.142   1.423  22.957  0.00  0.00    +0.243 C 
ATOM     15  O   UNL     1      10.865   1.867  23.840  0.00  0.00    -0.270 OA
ENDBRANCH   1  14
TORSDOF 1
ENDMDL
