MODEL 1
REMARK VINA RESULT:      -7.6      0.000      0.000
REMARK  Name = 
REMARK  7 active torsions:
REMARK  status: ('A' for Active; 'I' for Inactive)
REMARK    1  A    between atoms: O_1  and  N_2
REMARK    2  A    between atoms: C_3  and  C_5
REMARK    3  A    between atoms: C_5  and  C_6
REMARK    4  A    between atoms: C_6  and  S_7
REMARK    5  A    between atoms: S_7  and  C_10
REMARK    6  A    between atoms: C_13  and  O_14
REMARK    7  A    between atoms: O_14  and  C_15
REMARK                            x       y       z     vdW  Elec       q    Type
REMARK                         _______ _______ _______ _____ _____    ______ ____
ROOT
ATOM      1  S   UNL     1       9.832  -0.257  24.112  0.00  0.00    -0.002 S 
ATOM      2  O   UNL     1      10.579   0.361  25.190  0.00  0.00    -0.169 OA
ATOM      3  O   UNL     1      10.479  -0.624  22.864  0.00  0.00    -0.169 OA
ENDROOT
BRANCH   1   4
ATOM      4  C   UNL     1       9.149  -1.761  24.774  0.00  0.00    +0.088 A 
ATOM      5  C   UNL     1       9.595  -2.987  24.279  0.00  0.00    +0.030 A 
ATOM      6  C   UNL     1       9.053  -4.165  24.790  0.00  0.00    +0.048 A 
ATOM      7  C   UNL     1       8.019  -4.113  25.734  0.00  0.00    +0.129 A 
ATOM      8  C   UNL     1       7.601  -2.880  26.240  0.00  0.00    +0.048 A 
ATOM      9  C   UNL     1       8.161  -1.697  25.759  0.00  0.00    +0.030 A 
BRANCH   7  10
ATOM     10  O   UNL     1       7.389  -5.214  26.269  0.00  0.00    -0.456 OA
BRANCH  10  11
ATOM     11  C   UNL     1       6.257  -5.715  25.672  0.00  0.00    +0.129 A 
ATOM     12  C   UNL     1       5.942  -5.552  24.319  0.00  0.00    +0.048 A 
ATOM     13  C   UNL     1       4.794  -6.150  23.794  0.00  0.00    +0.023 A 
ATOM     14  C   UNL     1       3.934  -6.854  24.634  0.00  0.00    +0.041 A 
ATOM     15 CL   UNL     1       2.535  -7.614  23.982  0.00  0.00    -0.084 Cl
ATOM     16  C   UNL     1       4.200  -6.949  26.000  0.00  0.00    +0.023 A 
ATOM     17  C   UNL     1       5.363  -6.377  26.518  0.00  0.00    +0.048 A 
ENDBRANCH  10  11
ENDBRANCH   7  10
ENDBRANCH   1   4
BRANCH   1  18
ATOM     18  C   UNL     1       8.365   0.702  23.778  0.00  0.00    +0.188 C 
BRANCH  18  19
ATOM     19  C   UNL     1       8.525   2.236  23.637  0.00  0.00    +0.073 C 
ATOM     20  C   UNL     1       7.340   2.828  22.823  0.00  0.00    +0.046 C 
ATOM     21  C   UNL     1       7.330   4.355  22.797  0.00  0.00    +0.161 C 
ATOM     22  O   UNL     1       7.389   4.886  24.118  0.00  0.00    -0.380 OA
ATOM     23  C   UNL     1       8.576   4.500  24.801  0.00  0.00    +0.161 C 
ATOM     24  C   UNL     1       8.608   2.987  24.983  0.00  0.00    +0.046 C 
BRANCH  19  27
ATOM     25  N   UNL     1       9.947   1.962  21.555  0.00  0.00    -0.197 N 
ATOM     26  H   UNL     1      10.805   2.170  21.051  0.00  0.00    +0.182 HD
ATOM     27  C   UNL     1       9.832   2.442  22.824  0.00  0.00    +0.243 C 
ATOM     28  O   UNL     1      10.795   3.063  23.281  0.00  0.00    -0.273 OA
BRANCH  25  29
ATOM     29  O   UNL     1       8.889   1.358  20.868  0.00  0.00    -0.295 OA
ATOM     30  H   UNL     1       9.307   0.617  20.391  0.00  0.00    +0.241 HD
ENDBRANCH  25  29
ENDBRANCH  19  27
ENDBRANCH  18  19
ENDBRANCH   1  18
TORSDOF 7
ENDMDL
MODEL 2
REMARK VINA RESULT:      -7.6      3.804      8.068
REMARK  Name = 
REMARK  7 active torsions:
REMARK  status: ('A' for Active; 'I' for Inactive)
REMARK    1  A    between atoms: O_1  and  N_2
REMARK    2  A    between atoms: C_3  and  C_5
REMARK    3  A    between atoms: C_5  and  C_6
REMARK    4  A    between atoms: C_6  and  S_7
REMARK    5  A    between atoms: S_7  and  C_10
REMARK    6  A    between atoms: C_13  and  O_14
REMARK    7  A    between atoms: O_14  and  C_15
REMARK                            x       y       z     vdW  Elec       q    Type
REMARK                         _______ _______ _______ _____ _____    ______ ____
ROOT
ATOM      1  S   UNL     1       8.975  -4.043  24.906  0.00  0.00    -0.002 S 
ATOM      2  O   UNL     1      10.217  -4.792  24.899  0.00  0.00    -0.169 OA
ATOM      3  O   UNL     1       8.186  -3.907  26.118  0.00  0.00    -0.169 OA
ENDROOT
BRANCH   1   4
ATOM      4  C   UNL     1       9.387  -2.388  24.397  0.00  0.00    +0.088 A 
ATOM      5  C   UNL     1       9.934  -2.182  23.131  0.00  0.00    +0.030 A 
ATOM      6  C   UNL     1      10.267  -0.886  22.736  0.00  0.00    +0.048 A 
ATOM      7  C   UNL     1      10.120   0.182  23.630  0.00  0.00    +0.129 A 
ATOM      8  C   UNL     1       9.545  -0.036  24.885  0.00  0.00    +0.048 A 
ATOM      9  C   UNL     1       9.179  -1.323  25.276  0.00  0.00    +0.030 A 
BRANCH   7  10
ATOM     10  O   UNL     1      10.456   1.487  23.354  0.00  0.00    -0.456 OA
BRANCH  10  11
ATOM     11  C   UNL     1       9.472   2.411  23.095  0.00  0.00    +0.129 A 
ATOM     12  C   UNL     1       8.485   2.257  22.117  0.00  0.00    +0.048 A 
ATOM     13  C   UNL     1       7.491   3.227  21.969  0.00  0.00    +0.023 A 
ATOM     14  C   UNL     1       7.524   4.376  22.757  0.00  0.00    +0.041 A 
ATOM     15 CL   UNL     1       6.284   5.558  22.596  0.00  0.00    -0.084 Cl
ATOM     16  C   UNL     1       8.552   4.574  23.677  0.00  0.00    +0.023 A 
ATOM     17  C   UNL     1       9.527   3.589  23.845  0.00  0.00    +0.048 A 
ENDBRANCH  10  11
ENDBRANCH   7  10
ENDBRANCH   1   4
BRANCH   1  18
ATOM     18  C   UNL     1       7.939  -4.598  23.564  0.00  0.00    +0.188 C 
BRANCH  18  19
ATOM     19  C   UNL     1       6.408  -4.416  23.714  0.00  0.00    +0.073 C 
ATOM     20  C   UNL     1       5.801  -5.603  24.513  0.00  0.00    +0.046 C 
ATOM     21  C   UNL     1       4.327  -5.405  24.861  0.00  0.00    +0.161 C 
ATOM     22  O   UNL     1       4.123  -4.158  25.519  0.00  0.00    -0.380 OA
ATOM     23  C   UNL     1       4.501  -3.052  24.707  0.00  0.00    +0.161 C 
ATOM     24  C   UNL     1       5.996  -3.103  24.413  0.00  0.00    +0.046 C 
BRANCH  19  27
ATOM     25  N   UNL     1       5.856  -5.611  21.546  0.00  0.00    -0.197 N 
ATOM     26  H   UNL     1       5.427  -5.593  20.625  0.00  0.00    +0.182 HD
ATOM     27  C   UNL     1       5.844  -4.456  22.268  0.00  0.00    +0.243 C 
ATOM     28  O   UNL     1       5.344  -3.463  21.734  0.00  0.00    -0.273 OA
BRANCH  25  29
ATOM     29  O   UNL     1       6.269  -6.837  22.075  0.00  0.00    -0.295 OA
ATOM     30  H   UNL     1       6.850  -6.592  22.820  0.00  0.00    +0.241 HD
ENDBRANCH  25  29
ENDBRANCH  19  27
ENDBRANCH  18  19
ENDBRANCH   1  18
TORSDOF 7
ENDMDL
MODEL 3
REMARK VINA RESULT:      -7.5      4.327      8.946
REMARK  Name = 
REMARK  7 active torsions:
REMARK  status: ('A' for Active; 'I' for Inactive)
REMARK    1  A    between atoms: O_1  and  N_2
REMARK    2  A    between atoms: C_3  and  C_5
REMARK    3  A    between atoms: C_5  and  C_6
REMARK    4  A    between atoms: C_6  and  S_7
REMARK    5  A    between atoms: S_7  and  C_10
REMARK    6  A    between atoms: C_13  and  O_14
REMARK    7  A    between atoms: O_14  and  C_15
REMARK                            x       y       z     vdW  Elec       q    Type
REMARK                         _______ _______ _______ _____ _____    ______ ____
ROOT
ATOM      1  S   UNL     1       6.459  -4.954  26.369  0.00  0.00    -0.002 S 
ATOM      2  O   UNL     1       7.273  -5.870  27.144  0.00  0.00    -0.169 OA
ATOM      3  O   UNL     1       5.652  -3.934  27.017  0.00  0.00    -0.169 OA
ENDROOT
BRANCH   1   4
ATOM      4  C   UNL     1       7.574  -4.085  25.287  0.00  0.00    +0.088 A 
ATOM      5  C   UNL     1       8.944  -4.327  25.386  0.00  0.00    +0.030 A 
ATOM      6  C   UNL     1       9.819  -3.639  24.546  0.00  0.00    +0.048 A 
ATOM      7  C   UNL     1       9.330  -2.664  23.667  0.00  0.00    +0.129 A 
ATOM      8  C   UNL     1       7.953  -2.452  23.560  0.00  0.00    +0.048 A 
ATOM      9  C   UNL     1       7.068  -3.159  24.373  0.00  0.00    +0.030 A 
BRANCH   7  10
ATOM     10  O   UNL     1      10.111  -1.902  22.829  0.00  0.00    -0.456 OA
BRANCH  10  11
ATOM     11  C   UNL     1      10.108  -0.532  22.943  0.00  0.00    +0.129 A 
ATOM     12  C   UNL     1       9.813   0.345  21.894  0.00  0.00    +0.048 A 
ATOM     13  C   UNL     1       9.778   1.722  22.125  0.00  0.00    +0.023 A 
ATOM     14  C   UNL     1      10.100   2.221  23.386  0.00  0.00    +0.041 A 
ATOM     15 CL   UNL     1      10.031   3.914  23.677  0.00  0.00    -0.084 Cl
ATOM     16  C   UNL     1      10.476   1.356  24.413  0.00  0.00    +0.023 A 
ATOM     17  C   UNL     1      10.480  -0.022  24.189  0.00  0.00    +0.048 A 
ENDBRANCH  10  11
ENDBRANCH   7  10
ENDBRANCH   1   4
BRANCH   1  18
ATOM     18  C   UNL     1       5.462  -5.876  25.212  0.00  0.00    +0.188 C 
BRANCH  18  19
ATOM     19  C   UNL     1       3.967  -6.088  25.560  0.00  0.00    +0.073 C 
ATOM     20  C   UNL     1       3.828  -6.707  26.979  0.00  0.00    +0.046 C 
ATOM     21  C   UNL     1       2.381  -6.777  27.466  0.00  0.00    +0.161 C 
ATOM     22  O   UNL     1       1.753  -5.501  27.375  0.00  0.00    -0.380 OA
ATOM     23  C   UNL     1       1.707  -5.017  26.037  0.00  0.00    +0.161 C 
ATOM     24  C   UNL     1       3.121  -4.799  25.510  0.00  0.00    +0.046 C 
BRANCH  19  27
ATOM     25  N   UNL     1       3.215  -6.748  23.230  0.00  0.00    -0.197 N 
ATOM     26  H   UNL     1       2.923  -7.473  22.580  0.00  0.00    +0.182 HD
ATOM     27  C   UNL     1       3.445  -7.116  24.520  0.00  0.00    +0.243 C 
ATOM     28  O   UNL     1       3.245  -8.298  24.813  0.00  0.00    -0.273 OA
BRANCH  25  29
ATOM     29  O   UNL     1       3.525  -5.479  22.731  0.00  0.00    -0.295 OA
ATOM     30  H   UNL     1       3.792  -4.972  23.521  0.00  0.00    +0.241 HD
ENDBRANCH  25  29
ENDBRANCH  19  27
ENDBRANCH  18  19
ENDBRANCH   1  18
TORSDOF 7
ENDMDL
MODEL 4
REMARK VINA RESULT:      -7.4      2.270      3.563
REMARK  Name = 
REMARK  7 active torsions:
REMARK  status: ('A' for Active; 'I' for Inactive)
REMARK    1  A    between atoms: O_1  and  N_2
REMARK    2  A    between atoms: C_3  and  C_5
REMARK    3  A    between atoms: C_5  and  C_6
REMARK    4  A    between atoms: C_6  and  S_7
REMARK    5  A    between atoms: S_7  and  C_10
REMARK    6  A    between atoms: C_13  and  O_14
REMARK    7  A    between atoms: O_14  and  C_15
REMARK                            x       y       z     vdW  Elec       q    Type
REMARK                         _______ _______ _______ _____ _____    ______ ____
ROOT
ATOM      1  S   UNL     1       9.261   2.325  22.855  0.00  0.00    -0.002 S 
ATOM      2  O   UNL     1      10.559   2.971  22.840  0.00  0.00    -0.169 OA
ATOM      3  O   UNL     1       8.397   2.346  21.687  0.00  0.00    -0.169 OA
ENDROOT
BRANCH   1   4
ATOM      4  C   UNL     1       9.560   0.608  23.216  0.00  0.00    +0.088 A 
ATOM      5  C   UNL     1       9.864  -0.264  22.170  0.00  0.00    +0.030 A 
ATOM      6  C   UNL     1      10.088  -1.611  22.450  0.00  0.00    +0.048 A 
ATOM      7  C   UNL     1       9.936  -2.093  23.757  0.00  0.00    +0.129 A 
ATOM      8  C   UNL     1       9.658  -1.204  24.798  0.00  0.00    +0.048 A 
ATOM      9  C   UNL     1       9.465   0.151  24.532  0.00  0.00    +0.030 A 
BRANCH   7  10
ATOM     10  O   UNL     1      10.093  -3.408  24.131  0.00  0.00    -0.456 OA
BRANCH  10  11
ATOM     11  C   UNL     1       9.044  -4.091  24.699  0.00  0.00    +0.129 A 
ATOM     12  C   UNL     1       9.042  -4.583  26.008  0.00  0.00    +0.048 A 
ATOM     13  C   UNL     1       7.903  -5.214  26.514  0.00  0.00    +0.023 A 
ATOM     14  C   UNL     1       6.795  -5.406  25.691  0.00  0.00    +0.041 A 
ATOM     15 CL   UNL     1       5.383  -6.157  26.322  0.00  0.00    -0.084 Cl
ATOM     16  C   UNL     1       6.822  -4.991  24.360  0.00  0.00    +0.023 A 
ATOM     17  C   UNL     1       7.949  -4.333  23.865  0.00  0.00    +0.048 A 
ENDBRANCH  10  11
ENDBRANCH   7  10
ENDBRANCH   1   4
BRANCH   1  18
ATOM     18  C   UNL     1       8.351   2.854  24.296  0.00  0.00    +0.188 C 
BRANCH  18  19
ATOM     19  C   UNL     1       7.990   4.356  24.407  0.00  0.00    +0.073 C 
ATOM     20  C   UNL     1       7.968   4.794  25.899  0.00  0.00    +0.046 C 
ATOM     21  C   UNL     1       7.800   6.302  26.082  0.00  0.00    +0.161 C 
ATOM     22  O   UNL     1       8.776   7.017  25.329  0.00  0.00    -0.380 OA
ATOM     23  C   UNL     1       8.671   6.763  23.932  0.00  0.00    +0.161 C 
ATOM     24  C   UNL     1       8.950   5.292  23.644  0.00  0.00    +0.046 C 
BRANCH  19  27
ATOM     25  N   UNL     1       6.344   4.761  22.521  0.00  0.00    -0.197 N 
ATOM     26  H   UNL     1       5.382   4.778  22.191  0.00  0.00    +0.182 HD
ATOM     27  C   UNL     1       6.551   4.478  23.837  0.00  0.00    +0.243 C 
ATOM     28  O   UNL     1       5.553   4.299  24.539  0.00  0.00    -0.273 OA
BRANCH  25  29
ATOM     29  O   UNL     1       7.381   4.856  21.588  0.00  0.00    -0.295 OA
ATOM     30  H   UNL     1       7.517   5.816  21.481  0.00  0.00    +0.241 HD
ENDBRANCH  25  29
ENDBRANCH  19  27
ENDBRANCH  18  19
ENDBRANCH   1  18
TORSDOF 7
ENDMDL
MODEL 5
REMARK VINA RESULT:      -7.3      3.936      8.602
REMARK  Name = 
REMARK  7 active torsions:
REMARK  status: ('A' for Active; 'I' for Inactive)
REMARK    1  A    between atoms: O_1  and  N_2
REMARK    2  A    between atoms: C_3  and  C_5
REMARK    3  A    between atoms: C_5  and  C_6
REMARK    4  A    between atoms: C_6  and  S_7
REMARK    5  A    between atoms: S_7  and  C_10
REMARK    6  A    between atoms: C_13  and  O_14
REMARK    7  A    between atoms: O_14  and  C_15
REMARK                            x       y       z     vdW  Elec       q    Type
REMARK                         _______ _______ _______ _____ _____    ______ ____
ROOT
ATOM      1  S   UNL     1       8.421  -4.466  24.929  0.00  0.00    -0.002 S 
ATOM      2  O   UNL     1       9.598  -5.306  24.824  0.00  0.00    -0.169 OA
ATOM      3  O   UNL     1       7.972  -3.958  26.214  0.00  0.00    -0.169 OA
ENDROOT
BRANCH   1   4
ATOM      4  C   UNL     1       8.735  -3.035  23.917  0.00  0.00    +0.088 A 
ATOM      5  C   UNL     1      10.051  -2.612  23.727  0.00  0.00    +0.030 A 
ATOM      6  C   UNL     1      10.297  -1.486  22.943  0.00  0.00    +0.048 A 
ATOM      7  C   UNL     1       9.229  -0.748  22.416  0.00  0.00    +0.129 A 
ATOM      8  C   UNL     1       7.918  -1.199  22.592  0.00  0.00    +0.048 A 
ATOM      9  C   UNL     1       7.664  -2.343  23.347  0.00  0.00    +0.030 A 
BRANCH   7  10
ATOM     10  O   UNL     1       9.362   0.398  21.667  0.00  0.00    -0.456 OA
BRANCH  10  11
ATOM     11  C   UNL     1       9.163   1.628  22.250  0.00  0.00    +0.129 A 
ATOM     12  C   UNL     1      10.013   2.193  23.205  0.00  0.00    +0.048 A 
ATOM     13  C   UNL     1       9.755   3.475  23.696  0.00  0.00    +0.023 A 
ATOM     14  C   UNL     1       8.617   4.161  23.276  0.00  0.00    +0.041 A 
ATOM     15 CL   UNL     1       8.315   5.751  23.859  0.00  0.00    -0.084 Cl
ATOM     16  C   UNL     1       7.722   3.568  22.387  0.00  0.00    +0.023 A 
ATOM     17  C   UNL     1       7.996   2.300  21.874  0.00  0.00    +0.048 A 
ENDBRANCH  10  11
ENDBRANCH   7  10
ENDBRANCH   1   4
BRANCH   1  18
ATOM     18  C   UNL     1       7.060  -5.237  24.070  0.00  0.00    +0.188 C 
BRANCH  18  19
ATOM     19  C   UNL     1       5.711  -5.358  24.821  0.00  0.00    +0.073 C 
ATOM     20  C   UNL     1       5.931  -5.997  26.222  0.00  0.00    +0.046 C 
ATOM     21  C   UNL     1       4.677  -5.982  27.094  0.00  0.00    +0.161 C 
ATOM     22  O   UNL     1       4.137  -4.667  27.185  0.00  0.00    -0.380 OA
ATOM     23  C   UNL     1       3.753  -4.152  25.914  0.00  0.00    +0.161 C 
ATOM     24  C   UNL     1       4.975  -4.015  25.014  0.00  0.00    +0.046 C 
BRANCH  19  27
ATOM     25  N   UNL     1       4.454  -5.985  22.710  0.00  0.00    -0.197 N 
ATOM     26  H   UNL     1       3.935  -6.678  22.177  0.00  0.00    +0.182 HD
ATOM     27  C   UNL     1       4.849  -6.327  23.967  0.00  0.00    +0.243 C 
ATOM     28  O   UNL     1       4.517  -7.441  24.379  0.00  0.00    -0.273 OA
BRANCH  25  29
ATOM     29  O   UNL     1       4.870  -4.814  22.071  0.00  0.00    -0.295 OA
ATOM     30  H   UNL     1       4.050  -4.297  21.962  0.00  0.00    +0.241 HD
ENDBRANCH  25  29
ENDBRANCH  19  27
ENDBRANCH  18  19
ENDBRANCH   1  18
TORSDOF 7
ENDMDL
MODEL 6
REMARK VINA RESULT:      -7.3      3.894      8.158
REMARK  Name = 
REMARK  7 active torsions:
REMARK  status: ('A' for Active; 'I' for Inactive)
REMARK    1  A    between atoms: O_1  and  N_2
REMARK    2  A    between atoms: C_3  and  C_5
REMARK    3  A    between atoms: C_5  and  C_6
REMARK    4  A    between atoms: C_6  and  S_7
REMARK    5  A    between atoms: S_7  and  C_10
REMARK    6  A    between atoms: C_13  and  O_14
REMARK    7  A    between atoms: O_14  and  C_15
REMARK                            x       y       z     vdW  Elec       q    Type
REMARK                         _______ _______ _______ _____ _____    ______ ____
ROOT
ATOM      1  S   UNL     1       8.743  -4.331  25.272  0.00  0.00    -0.002 S 
ATOM      2  O   UNL     1       9.004  -5.225  24.160  0.00  0.00    -0.169 OA
ATOM      3  O   UNL     1       9.356  -4.548  26.571  0.00  0.00    -0.169 OA
ENDROOT
BRANCH   1   4
ATOM      4  C   UNL     1       9.265  -2.712  24.745  0.00  0.00    +0.088 A 
ATOM      5  C   UNL     1       8.945  -1.605  25.531  0.00  0.00    +0.030 A 
ATOM      6  C   UNL     1       9.344  -0.336  25.114  0.00  0.00    +0.048 A 
ATOM      7  C   UNL     1       9.993  -0.171  23.883  0.00  0.00    +0.129 A 
ATOM      8  C   UNL     1      10.331  -1.292  23.120  0.00  0.00    +0.048 A 
ATOM      9  C   UNL     1       9.964  -2.568  23.545  0.00  0.00    +0.030 A 
BRANCH   7  10
ATOM     10  O   UNL     1      10.390   1.039  23.362  0.00  0.00    -0.456 OA
BRANCH  10  11
ATOM     11  C   UNL     1       9.455   2.005  23.078  0.00  0.00    +0.129 A 
ATOM     12  C   UNL     1       8.507   1.907  22.055  0.00  0.00    +0.048 A 
ATOM     13  C   UNL     1       7.559   2.918  21.882  0.00  0.00    +0.023 A 
ATOM     14  C   UNL     1       7.602   4.052  22.692  0.00  0.00    +0.041 A 
ATOM     15 CL   UNL     1       6.418   5.284  22.498  0.00  0.00    -0.084 Cl
ATOM     16  C   UNL     1       8.596   4.193  23.659  0.00  0.00    +0.023 A 
ATOM     17  C   UNL     1       9.524   3.168  23.851  0.00  0.00    +0.048 A 
ENDBRANCH  10  11
ENDBRANCH   7  10
ENDBRANCH   1   4
BRANCH   1  18
ATOM     18  C   UNL     1       6.983  -4.111  25.457  0.00  0.00    +0.188 C 
BRANCH  18  19
ATOM     19  C   UNL     1       6.103  -4.245  24.190  0.00  0.00    +0.073 C 
ATOM     20  C   UNL     1       6.251  -2.982  23.295  0.00  0.00    +0.046 C 
ATOM     21  C   UNL     1       5.558  -3.118  21.941  0.00  0.00    +0.161 C 
ATOM     22  O   UNL     1       5.981  -4.301  21.270  0.00  0.00    -0.380 OA
ATOM     23  C   UNL     1       5.670  -5.479  22.005  0.00  0.00    +0.161 C 
ATOM     24  C   UNL     1       6.424  -5.486  23.330  0.00  0.00    +0.046 C 
BRANCH  19  27
ATOM     25  N   UNL     1       4.155  -5.449  25.279  0.00  0.00    -0.197 N 
ATOM     26  H   UNL     1       3.207  -5.422  25.647  0.00  0.00    +0.182 HD
ATOM     27  C   UNL     1       4.641  -4.313  24.708  0.00  0.00    +0.243 C 
ATOM     28  O   UNL     1       3.881  -3.343  24.647  0.00  0.00    -0.273 OA
BRANCH  25  29
ATOM     29  O   UNL     1       4.945  -6.575  25.531  0.00  0.00    -0.295 OA
ATOM     30  H   UNL     1       4.442  -7.073  26.203  0.00  0.00    +0.241 HD
ENDBRANCH  25  29
ENDBRANCH  19  27
ENDBRANCH  18  19
ENDBRANCH   1  18
TORSDOF 7
ENDMDL
MODEL 7
REMARK VINA RESULT:      -7.3      3.703      8.787
REMARK  Name = 
REMARK  7 active torsions:
REMARK  status: ('A' for Active; 'I' for Inactive)
REMARK    1  A    between atoms: O_1  and  N_2
REMARK    2  A    between atoms: C_3  and  C_5
REMARK    3  A    between atoms: C_5  and  C_6
REMARK    4  A    between atoms: C_6  and  S_7
REMARK    5  A    between atoms: S_7  and  C_10
REMARK    6  A    between atoms: C_13  and  O_14
REMARK    7  A    between atoms: O_14  and  C_15
REMARK                            x       y       z     vdW  Elec       q    Type
REMARK                         _______ _______ _______ _____ _____    ______ ____
ROOT
ATOM      1  S   UNL     1       9.228  -2.140  23.368  0.00  0.00    -0.002 S 
ATOM      2  O   UNL     1       8.156  -2.331  22.412  0.00  0.00    -0.169 OA
ATOM      3  O   UNL     1      10.542  -2.722  23.150  0.00  0.00    -0.169 OA
ENDROOT
BRANCH   1   4
ATOM      4  C   UNL     1       9.482  -0.383  23.492  0.00  0.00    +0.088 A 
ATOM      5  C   UNL     1       9.195   0.263  24.695  0.00  0.00    +0.030 A 
ATOM      6  C   UNL     1       9.384   1.641  24.790  0.00  0.00    +0.048 A 
ATOM      7  C   UNL     1       9.786   2.376  23.667  0.00  0.00    +0.129 A 
ATOM      8  C   UNL     1      10.095   1.712  22.477  0.00  0.00    +0.048 A 
ATOM      9  C   UNL     1       9.941   0.329  22.382  0.00  0.00    +0.030 A 
BRANCH   7  10
ATOM     10  O   UNL     1       9.960   3.740  23.643  0.00  0.00    -0.456 OA
BRANCH  10  11
ATOM     11  C   UNL     1       8.903   4.563  23.332  0.00  0.00    +0.129 A 
ATOM     12  C   UNL     1       8.945   5.959  23.400  0.00  0.00    +0.048 A 
ATOM     13  C   UNL     1       7.836   6.710  23.006  0.00  0.00    +0.023 A 
ATOM     14  C   UNL     1       6.668   6.063  22.607  0.00  0.00    +0.041 A 
ATOM     15 CL   UNL     1       5.311   6.988  22.096  0.00  0.00    -0.084 Cl
ATOM     16  C   UNL     1       6.592   4.671  22.617  0.00  0.00    +0.023 A 
ATOM     17  C   UNL     1       7.712   3.921  22.981  0.00  0.00    +0.048 A 
ENDBRANCH  10  11
ENDBRANCH   7  10
ENDBRANCH   1   4
BRANCH   1  18
ATOM     18  C   UNL     1       8.646  -2.548  25.004  0.00  0.00    +0.188 C 
BRANCH  18  19
ATOM     19  C   UNL     1       7.795  -3.832  25.166  0.00  0.00    +0.073 C 
ATOM     20  C   UNL     1       7.460  -4.070  26.666  0.00  0.00    +0.046 C 
ATOM     21  C   UNL     1       6.472  -5.213  26.889  0.00  0.00    +0.161 C 
ATOM     22  O   UNL     1       5.299  -5.032  26.101  0.00  0.00    -0.380 OA
ATOM     23  C   UNL     1       5.585  -5.008  24.706  0.00  0.00    +0.161 C 
ATOM     24  C   UNL     1       6.472  -3.814  24.373  0.00  0.00    +0.046 C 
BRANCH  19  27
ATOM     25  N   UNL     1       9.744  -5.433  25.433  0.00  0.00    -0.197 N 
ATOM     26  H   UNL     1      10.273  -6.229  25.087  0.00  0.00    +0.182 HD
ATOM     27  C   UNL     1       8.703  -4.992  24.675  0.00  0.00    +0.243 C 
ATOM     28  O   UNL     1       8.501  -5.570  23.604  0.00  0.00    -0.273 OA
BRANCH  25  29
ATOM     29  O   UNL     1      10.003  -4.959  26.723  0.00  0.00    -0.295 OA
ATOM     30  H   UNL     1       9.961  -5.758  27.283  0.00  0.00    +0.241 HD
ENDBRANCH  25  29
ENDBRANCH  19  27
ENDBRANCH  18  19
ENDBRANCH   1  18
TORSDOF 7
ENDMDL
MODEL 8
REMARK VINA RESULT:      -7.3      4.593      8.941
REMARK  Name = 
REMARK  7 active torsions:
REMARK  status: ('A' for Active; 'I' for Inactive)
REMARK    1  A    between atoms: O_1  and  N_2
REMARK    2  A    between atoms: C_3  and  C_5
REMARK    3  A    between atoms: C_5  and  C_6
REMARK    4  A    between atoms: C_6  and  S_7
REMARK    5  A    between atoms: S_7  and  C_10
REMARK    6  A    between atoms: C_13  and  O_14
REMARK    7  A    between atoms: O_14  and  C_15
REMARK                            x       y       z     vdW  Elec       q    Type
REMARK                         _______ _______ _______ _____ _____    ______ ____
ROOT
ATOM      1  S   UNL     1       6.712  -5.257  26.241  0.00  0.00    -0.002 S 
ATOM      2  O   UNL     1       5.714  -5.884  25.398  0.00  0.00    -0.169 OA
ATOM      3  O   UNL     1       7.683  -6.051  26.975  0.00  0.00    -0.169 OA
ENDROOT
BRANCH   1   4
ATOM      4  C   UNL     1       7.656  -4.181  25.183  0.00  0.00    +0.088 A 
ATOM      5  C   UNL     1       6.984  -3.306  24.329  0.00  0.00    +0.030 A 
ATOM      6  C   UNL     1       7.723  -2.471  23.492  0.00  0.00    +0.048 A 
ATOM      7  C   UNL     1       9.120  -2.563  23.460  0.00  0.00    +0.129 A 
ATOM      8  C   UNL     1       9.780  -3.424  24.340  0.00  0.00    +0.048 A 
ATOM      9  C   UNL     1       9.051  -4.240  25.204  0.00  0.00    +0.030 A 
BRANCH   7  10
ATOM     10  O   UNL     1       9.937  -1.816  22.642  0.00  0.00    -0.456 OA
BRANCH  10  11
ATOM     11  C   UNL     1      10.001  -0.452  22.797  0.00  0.00    +0.129 A 
ATOM     12  C   UNL     1       9.697   0.470  21.790  0.00  0.00    +0.048 A 
ATOM     13  C   UNL     1       9.736   1.839  22.063  0.00  0.00    +0.023 A 
ATOM     14  C   UNL     1      10.139   2.283  23.321  0.00  0.00    +0.041 A 
ATOM     15 CL   UNL     1      10.160   3.968  23.665  0.00  0.00    -0.084 Cl
ATOM     16  C   UNL     1      10.523   1.371  24.303  0.00  0.00    +0.023 A 
ATOM     17  C   UNL     1      10.454   0.002  24.039  0.00  0.00    +0.048 A 
ENDBRANCH  10  11
ENDBRANCH   7  10
ENDBRANCH   1   4
BRANCH   1  18
ATOM     18  C   UNL     1       5.920  -4.096  27.340  0.00  0.00    +0.188 C 
BRANCH  18  19
ATOM     19  C   UNL     1       4.825  -4.639  28.292  0.00  0.00    +0.073 C 
ATOM     20  C   UNL     1       4.233  -3.482  29.145  0.00  0.00    +0.046 C 
ATOM     21  C   UNL     1       3.023  -3.904  29.976  0.00  0.00    +0.161 C 
ATOM     22  O   UNL     1       2.035  -4.524  29.157  0.00  0.00    -0.380 OA
ATOM     23  C   UNL     1       2.522  -5.701  28.522  0.00  0.00    +0.161 C 
ATOM     24  C   UNL     1       3.661  -5.350  27.571  0.00  0.00    +0.046 C 
BRANCH  19  27
ATOM     25  N   UNL     1       5.661  -6.947  28.926  0.00  0.00    -0.197 N 
ATOM     26  H   UNL     1       6.194  -7.539  29.557  0.00  0.00    +0.182 HD
ATOM     27  C   UNL     1       5.556  -5.627  29.240  0.00  0.00    +0.243 C 
ATOM     28  O   UNL     1       6.087  -5.253  30.289  0.00  0.00    -0.273 OA
BRANCH  25  29
ATOM     29  O   UNL     1       5.223  -7.480  27.709  0.00  0.00    -0.295 OA
ATOM     30  H   UNL     1       4.256  -7.346  27.725  0.00  0.00    +0.241 HD
ENDBRANCH  25  29
ENDBRANCH  19  27
ENDBRANCH  18  19
ENDBRANCH   1  18
TORSDOF 7
ENDMDL
MODEL 9
REMARK VINA RESULT:      -7.2      3.601      8.008
REMARK  Name = 
REMARK  7 active torsions:
REMARK  status: ('A' for Active; 'I' for Inactive)
REMARK    1  A    between atoms: O_1  and  N_2
REMARK    2  A    between atoms: C_3  and  C_5
REMARK    3  A    between atoms: C_5  and  C_6
REMARK    4  A    between atoms: C_6  and  S_7
REMARK    5  A    between atoms: S_7  and  C_10
REMARK    6  A    between atoms: C_13  and  O_14
REMARK    7  A    between atoms: O_14  and  C_15
REMARK                            x       y       z     vdW  Elec       q    Type
REMARK                         _______ _______ _______ _____ _____    ______ ____
ROOT
ATOM      1  S   UNL     1       8.572  -4.221  25.266  0.00  0.00    -0.002 S 
ATOM      2  O   UNL     1       8.776  -5.065  24.105  0.00  0.00    -0.169 OA
ATOM      3  O   UNL     1       9.199  -4.530  26.540  0.00  0.00    -0.169 OA
ENDROOT
BRANCH   1   4
ATOM      4  C   UNL     1       9.149  -2.599  24.814  0.00  0.00    +0.088 A 
ATOM      5  C   UNL     1       8.826  -1.511  25.626  0.00  0.00    +0.030 A 
ATOM      6  C   UNL     1       9.269  -0.239  25.266  0.00  0.00    +0.048 A 
ATOM      7  C   UNL     1       9.965  -0.049  24.066  0.00  0.00    +0.129 A 
ATOM      8  C   UNL     1      10.305  -1.151  23.277  0.00  0.00    +0.048 A 
ATOM      9  C   UNL     1       9.894  -2.432  23.645  0.00  0.00    +0.030 A 
BRANCH   7  10
ATOM     10  O   UNL     1      10.408   1.168  23.601  0.00  0.00    -0.456 OA
BRANCH  10  11
ATOM     11  C   UNL     1       9.503   2.141  23.250  0.00  0.00    +0.129 A 
ATOM     12  C   UNL     1       8.547   1.999  22.238  0.00  0.00    +0.048 A 
ATOM     13  C   UNL     1       7.631   3.025  21.996  0.00  0.00    +0.023 A 
ATOM     14  C   UNL     1       7.714   4.213  22.721  0.00  0.00    +0.041 A 
ATOM     15 CL   UNL     1       6.568   5.465  22.442  0.00  0.00    -0.084 Cl
ATOM     16  C   UNL     1       8.716   4.391  23.673  0.00  0.00    +0.023 A 
ATOM     17  C   UNL     1       9.612   3.354  23.936  0.00  0.00    +0.048 A 
ENDBRANCH  10  11
ENDBRANCH   7  10
ENDBRANCH   1   4
BRANCH   1  18
ATOM     18  C   UNL     1       6.826  -3.942  25.500  0.00  0.00    +0.188 C 
BRANCH  18  19
ATOM     19  C   UNL     1       5.892  -4.174  24.286  0.00  0.00    +0.073 C 
ATOM     20  C   UNL     1       6.291  -5.480  23.541  0.00  0.00    +0.046 C 
ATOM     21  C   UNL     1       5.304  -5.873  22.443  0.00  0.00    +0.161 C 
ATOM     22  O   UNL     1       3.974  -5.932  22.952  0.00  0.00    -0.380 OA
ATOM     23  C   UNL     1       3.536  -4.678  23.462  0.00  0.00    +0.161 C 
ATOM     24  C   UNL     1       4.395  -4.265  24.652  0.00  0.00    +0.046 C 
BRANCH  19  27
ATOM     25  N   UNL     1       5.745  -1.715  23.684  0.00  0.00    -0.197 N 
ATOM     26  H   UNL     1       5.980  -0.956  23.049  0.00  0.00    +0.182 HD
ATOM     27  C   UNL     1       6.142  -2.970  23.337  0.00  0.00    +0.243 C 
ATOM     28  O   UNL     1       6.727  -3.099  22.259  0.00  0.00    -0.273 OA
BRANCH  25  29
ATOM     29  O   UNL     1       5.193  -1.405  24.931  0.00  0.00    -0.295 OA
ATOM     30  H   UNL     1       4.448  -0.812  24.720  0.00  0.00    +0.241 HD
ENDBRANCH  25  29
ENDBRANCH  19  27
ENDBRANCH  18  19
ENDBRANCH   1  18
TORSDOF 7
ENDMDL
