MODEL 1
REMARK VINA RESULT:      -5.1      0.000      0.000
REMARK  Name = 
REMARK  9 active torsions:
REMARK  status: ('A' for Active; 'I' for Inactive)
REMARK    1  A    between atoms: C_1  and  C_2
REMARK    2  A    between atoms: C_2  and  C_3
REMARK    3  A    between atoms: C_2  and  S_4
REMARK    4  A    between atoms: S_4  and  C_5
REMARK    5  A    between atoms: C_8  and  C_10
REMARK    6  A    between atoms: C_10  and  O_11
REMARK    7  A    between atoms: C_12  and  O_14
REMARK    8  A    between atoms: C_15  and  O_17
REMARK    9  A    between atoms: C_18  and  O_20
REMARK                            x       y       z     vdW  Elec       q    Type
REMARK                         _______ _______ _______ _____ _____    ______ ____
ROOT
ATOM      1  C   UNL     1       8.514  -2.363  23.317  0.00  0.00    +0.207 C 
ATOM      2  C   UNL     1       9.049  -1.185  22.478  0.00  0.00    +0.184 C 
ATOM      3  C   UNL     1      10.019  -0.355  23.332  0.00  0.00    +0.177 C 
ATOM      4  C   UNL     1       9.406   0.022  24.684  0.00  0.00    +0.176 C 
ATOM      5  C   UNL     1       8.943  -1.255  25.389  0.00  0.00    +0.176 C 
ATOM      6  O   UNL     1       7.983  -1.953  24.580  0.00  0.00    -0.355 OA
ENDROOT
BRANCH   2   7
ATOM      7  O   UNL     1       9.742  -1.689  21.322  0.00  0.00    -0.386 OA
ATOM      8  H   UNL     1       9.666  -2.662  21.326  0.00  0.00    +0.210 HD
ENDBRANCH   2   7
BRANCH   3   9
ATOM      9  O   UNL     1      10.416   0.828  22.623  0.00  0.00    -0.386 OA
ATOM     10  H   UNL     1      10.784   1.440  23.285  0.00  0.00    +0.210 HD
ENDBRANCH   3   9
BRANCH   4  11
ATOM     11  O   UNL     1      10.376   0.756  25.441  0.00  0.00    -0.386 OA
ATOM     12  H   UNL     1      10.675   0.210  26.190  0.00  0.00    +0.210 HD
ENDBRANCH   4  11
BRANCH   1  13
ATOM     13  S   UNL     1       7.215  -3.269  22.386  0.00  0.00    -0.124 S 
BRANCH  13  15
ATOM     14  C   UNL     1       6.515  -5.151  24.220  0.00  0.00    +0.019 C 
ATOM     15  C   UNL     1       7.460  -4.963  23.035  0.00  0.00    +0.043 C 
ATOM     16  C   UNL     1       7.187  -6.028  21.974  0.00  0.00    +0.019 C 
ENDBRANCH  13  15
ENDBRANCH   1  13
BRANCH   5  17
ATOM     17  C   UNL     1       8.291  -0.953  26.744  0.00  0.00    +0.190 C 
BRANCH  17  18
ATOM     18  O   UNL     1       9.283  -0.471  27.637  0.00  0.00    -0.392 OA
ATOM     19  H   UNL     1       9.551  -1.229  28.184  0.00  0.00    +0.210 HD
ENDBRANCH  17  18
ENDBRANCH   5  17
TORSDOF 7
ENDMDL
MODEL 2
REMARK VINA RESULT:      -4.9      2.994      5.483
REMARK  Name = 
REMARK  9 active torsions:
REMARK  status: ('A' for Active; 'I' for Inactive)
REMARK    1  A    between atoms: C_1  and  C_2
REMARK    2  A    between atoms: C_2  and  C_3
REMARK    3  A    between atoms: C_2  and  S_4
REMARK    4  A    between atoms: S_4  and  C_5
REMARK    5  A    between atoms: C_8  and  C_10
REMARK    6  A    between atoms: C_10  and  O_11
REMARK    7  A    between atoms: C_12  and  O_14
REMARK    8  A    between atoms: C_15  and  O_17
REMARK    9  A    between atoms: C_18  and  O_20
REMARK                            x       y       z     vdW  Elec       q    Type
REMARK                         _______ _______ _______ _____ _____    ______ ____
ROOT
ATOM      1  C   UNL     1       8.742  -3.552  23.762  0.00  0.00    +0.207 C 
ATOM      2  C   UNL     1       9.010  -4.287  25.092  0.00  0.00    +0.184 C 
ATOM      3  C   UNL     1       7.925  -5.354  25.307  0.00  0.00    +0.177 C 
ATOM      4  C   UNL     1       6.517  -4.773  25.144  0.00  0.00    +0.176 C 
ATOM      5  C   UNL     1       6.417  -4.097  23.775  0.00  0.00    +0.176 C 
ATOM      6  O   UNL     1       7.404  -3.060  23.656  0.00  0.00    -0.355 OA
ENDROOT
BRANCH   2   7
ATOM      7  O   UNL     1      10.300  -4.921  25.042  0.00  0.00    -0.386 OA
ATOM      8  H   UNL     1      10.176  -5.832  24.716  0.00  0.00    +0.210 HD
ENDBRANCH   2   7
BRANCH   3   9
ATOM      9  O   UNL     1       8.067  -5.950  26.604  0.00  0.00    -0.386 OA
ATOM     10  H   UNL     1       8.586  -5.326  27.143  0.00  0.00    +0.210 HD
ENDBRANCH   3   9
BRANCH   4  11
ATOM     11  O   UNL     1       5.562  -5.828  25.318  0.00  0.00    -0.386 OA
ATOM     12  H   UNL     1       5.536  -6.082  26.258  0.00  0.00    +0.210 HD
ENDBRANCH   4  11
BRANCH   1  13
ATOM     13  S   UNL     1       9.913  -2.151  23.564  0.00  0.00    -0.124 S 
BRANCH  13  15
ATOM     14  C   UNL     1       8.606   0.223  23.792  0.00  0.00    +0.019 C 
ATOM     15  C   UNL     1       8.816  -0.908  22.787  0.00  0.00    +0.043 C 
ATOM     16  C   UNL     1       9.406  -0.354  21.491  0.00  0.00    +0.019 C 
ENDBRANCH  13  15
ENDBRANCH   1  13
BRANCH   5  17
ATOM     17  C   UNL     1       5.036  -3.466  23.552  0.00  0.00    +0.190 C 
BRANCH  17  18
ATOM     18  O   UNL     1       4.211  -4.393  22.863  0.00  0.00    -0.392 OA
ATOM     19  H   UNL     1       3.293  -4.163  23.090  0.00  0.00    +0.210 HD
ENDBRANCH  17  18
ENDBRANCH   5  17
TORSDOF 7
ENDMDL
MODEL 3
REMARK VINA RESULT:      -4.9      2.748      5.133
REMARK  Name = 
REMARK  9 active torsions:
REMARK  status: ('A' for Active; 'I' for Inactive)
REMARK    1  A    between atoms: C_1  and  C_2
REMARK    2  A    between atoms: C_2  and  C_3
REMARK    3  A    between atoms: C_2  and  S_4
REMARK    4  A    between atoms: S_4  and  C_5
REMARK    5  A    between atoms: C_8  and  C_10
REMARK    6  A    between atoms: C_10  and  O_11
REMARK    7  A    between atoms: C_12  and  O_14
REMARK    8  A    between atoms: C_15  and  O_17
REMARK    9  A    between atoms: C_18  and  O_20
REMARK                            x       y       z     vdW  Elec       q    Type
REMARK                         _______ _______ _______ _____ _____    ______ ____
ROOT
ATOM      1  C   UNL     1       8.716  -1.951  23.561  0.00  0.00    +0.207 C 
ATOM      2  C   UNL     1       7.336  -2.368  23.011  0.00  0.00    +0.184 C 
ATOM      3  C   UNL     1       6.639  -3.279  24.033  0.00  0.00    +0.177 C 
ATOM      4  C   UNL     1       7.547  -4.429  24.480  0.00  0.00    +0.176 C 
ATOM      5  C   UNL     1       8.859  -3.845  25.009  0.00  0.00    +0.176 C 
ATOM      6  O   UNL     1       9.504  -3.064  23.992  0.00  0.00    -0.355 OA
ENDROOT
BRANCH   2   7
ATOM      7  O   UNL     1       6.531  -1.197  22.789  0.00  0.00    -0.386 OA
ATOM      8  H   UNL     1       6.048  -1.002  23.614  0.00  0.00    +0.210 HD
ENDBRANCH   2   7
BRANCH   3   9
ATOM      9  O   UNL     1       5.420  -3.798  23.482  0.00  0.00    -0.386 OA
ATOM     10  H   UNL     1       5.671  -4.349  22.719  0.00  0.00    +0.210 HD
ENDBRANCH   3   9
BRANCH   4  11
ATOM     11  O   UNL     1       6.850  -5.212  25.458  0.00  0.00    -0.386 OA
ATOM     12  H   UNL     1       7.270  -5.081  26.328  0.00  0.00    +0.210 HD
ENDBRANCH   4  11
BRANCH   1  13
ATOM     13  S   UNL     1       9.649  -1.010  22.289  0.00  0.00    -0.124 S 
BRANCH  13  15
ATOM     14  C   UNL     1      10.774   0.595  24.175  0.00  0.00    +0.019 C 
ATOM     15  C   UNL     1       9.714   0.642  23.077  0.00  0.00    +0.043 C 
ATOM     16  C   UNL     1      10.049   1.742  22.072  0.00  0.00    +0.019 C 
ENDBRANCH  13  15
ENDBRANCH   1  13
BRANCH   5  17
ATOM     17  C   UNL     1       9.833  -4.944  25.453  0.00  0.00    +0.190 C 
BRANCH  17  18
ATOM     18  O   UNL     1       9.685  -6.066  24.596  0.00  0.00    -0.392 OA
ATOM     19  H   UNL     1      10.340  -6.724  24.890  0.00  0.00    +0.210 HD
ENDBRANCH  17  18
ENDBRANCH   5  17
TORSDOF 7
ENDMDL
MODEL 4
REMARK VINA RESULT:      -4.9      3.182      4.801
REMARK  Name = 
REMARK  9 active torsions:
REMARK  status: ('A' for Active; 'I' for Inactive)
REMARK    1  A    between atoms: C_1  and  C_2
REMARK    2  A    between atoms: C_2  and  C_3
REMARK    3  A    between atoms: C_2  and  S_4
REMARK    4  A    between atoms: S_4  and  C_5
REMARK    5  A    between atoms: C_8  and  C_10
REMARK    6  A    between atoms: C_10  and  O_11
REMARK    7  A    between atoms: C_12  and  O_14
REMARK    8  A    between atoms: C_15  and  O_17
REMARK    9  A    between atoms: C_18  and  O_20
REMARK                            x       y       z     vdW  Elec       q    Type
REMARK                         _______ _______ _______ _____ _____    ______ ____
ROOT
ATOM      1  C   UNL     1       6.666  -4.201  26.224  0.00  0.00    +0.207 C 
ATOM      2  C   UNL     1       7.726  -5.321  26.194  0.00  0.00    +0.184 C 
ATOM      3  C   UNL     1       9.070  -4.732  25.737  0.00  0.00    +0.177 C 
ATOM      4  C   UNL     1       8.925  -3.925  24.443  0.00  0.00    +0.176 C 
ATOM      5  C   UNL     1       7.852  -2.854  24.647  0.00  0.00    +0.176 C 
ATOM      6  O   UNL     1       6.600  -3.463  25.001  0.00  0.00    -0.355 OA
ENDROOT
BRANCH   2   7
ATOM      7  O   UNL     1       7.874  -5.881  27.512  0.00  0.00    -0.386 OA
ATOM      8  H   UNL     1       6.984  -6.083  27.855  0.00  0.00    +0.210 HD
ENDBRANCH   2   7
BRANCH   3   9
ATOM      9  O   UNL     1      10.034  -5.780  25.561  0.00  0.00    -0.386 OA
ATOM     10  H   UNL     1      10.913  -5.370  25.652  0.00  0.00    +0.210 HD
ENDBRANCH   3   9
BRANCH   4  11
ATOM     11  O   UNL     1      10.204  -3.376  24.099  0.00  0.00    -0.386 OA
ATOM     12  H   UNL     1      10.071  -2.566  23.573  0.00  0.00    +0.210 HD
ENDBRANCH   4  11
BRANCH   1  13
ATOM     13  S   UNL     1       5.009  -4.903  26.591  0.00  0.00    -0.124 S 
BRANCH  13  15
ATOM     14  C   UNL     1       4.221  -7.142  25.263  0.00  0.00    +0.019 C 
ATOM     15  C   UNL     1       4.620  -5.694  24.986  0.00  0.00    +0.043 C 
ATOM     16  C   UNL     1       3.493  -4.972  24.250  0.00  0.00    +0.019 C 
ENDBRANCH  13  15
ENDBRANCH   1  13
BRANCH   5  17
ATOM     17  C   UNL     1       7.632  -2.020  23.379  0.00  0.00    +0.190 C 
BRANCH  17  18
ATOM     18  O   UNL     1       8.022  -2.785  22.249  0.00  0.00    -0.392 OA
ATOM     19  H   UNL     1       8.402  -2.157  21.610  0.00  0.00    +0.210 HD
ENDBRANCH  17  18
ENDBRANCH   5  17
TORSDOF 7
ENDMDL
MODEL 5
REMARK VINA RESULT:      -4.9      2.445      3.823
REMARK  Name = 
REMARK  9 active torsions:
REMARK  status: ('A' for Active; 'I' for Inactive)
REMARK    1  A    between atoms: C_1  and  C_2
REMARK    2  A    between atoms: C_2  and  C_3
REMARK    3  A    between atoms: C_2  and  S_4
REMARK    4  A    between atoms: S_4  and  C_5
REMARK    5  A    between atoms: C_8  and  C_10
REMARK    6  A    between atoms: C_10  and  O_11
REMARK    7  A    between atoms: C_12  and  O_14
REMARK    8  A    between atoms: C_15  and  O_17
REMARK    9  A    between atoms: C_18  and  O_20
REMARK                            x       y       z     vdW  Elec       q    Type
REMARK                         _______ _______ _______ _____ _____    ______ ____
ROOT
ATOM      1  C   UNL     1       9.565  -0.330  24.916  0.00  0.00    +0.207 C 
ATOM      2  C   UNL     1       9.388  -1.024  23.550  0.00  0.00    +0.184 C 
ATOM      3  C   UNL     1      10.028  -0.156  22.455  0.00  0.00    +0.177 C 
ATOM      4  C   UNL     1       9.544   1.296  22.527  0.00  0.00    +0.176 C 
ATOM      5  C   UNL     1       9.806   1.834  23.935  0.00  0.00    +0.176 C 
ATOM      6  O   UNL     1       9.125   1.031  24.912  0.00  0.00    -0.355 OA
ENDROOT
BRANCH   2   7
ATOM      7  O   UNL     1      10.030  -2.311  23.574  0.00  0.00    -0.386 OA
ATOM      8  H   UNL     1      10.993  -2.166  23.623  0.00  0.00    +0.210 HD
ENDBRANCH   2   7
BRANCH   3   9
ATOM      9  O   UNL     1       9.747  -0.707  21.160  0.00  0.00    -0.386 OA
ATOM     10  H   UNL     1       9.930  -1.662  21.218  0.00  0.00    +0.210 HD
ENDBRANCH   3   9
BRANCH   4  11
ATOM     11  O   UNL     1      10.209   2.053  21.507  0.00  0.00    -0.386 OA
ATOM     12  H   UNL     1      11.164   2.072  21.697  0.00  0.00    +0.210 HD
ENDBRANCH   4  11
BRANCH   1  13
ATOM     13  S   UNL     1       8.655  -1.250  26.219  0.00  0.00    -0.124 S 
BRANCH  13  15
ATOM     14  C   UNL     1       6.806  -3.142  25.587  0.00  0.00    +0.019 C 
ATOM     15  C   UNL     1       7.118  -1.671  25.318  0.00  0.00    +0.043 C 
ATOM     16  C   UNL     1       5.942  -0.798  25.753  0.00  0.00    +0.019 C 
ENDBRANCH  13  15
ENDBRANCH   1  13
BRANCH   5  17
ATOM     17  C   UNL     1       9.320   3.282  24.090  0.00  0.00    +0.190 C 
BRANCH  17  18
ATOM     18  O   UNL     1      10.181   4.138  23.356  0.00  0.00    -0.392 OA
ATOM     19  H   UNL     1       9.859   4.129  22.437  0.00  0.00    +0.210 HD
ENDBRANCH  17  18
ENDBRANCH   5  17
TORSDOF 7
ENDMDL
MODEL 6
REMARK VINA RESULT:      -4.9      1.295      3.396
REMARK  Name = 
REMARK  9 active torsions:
REMARK  status: ('A' for Active; 'I' for Inactive)
REMARK    1  A    between atoms: C_1  and  C_2
REMARK    2  A    between atoms: C_2  and  C_3
REMARK    3  A    between atoms: C_2  and  S_4
REMARK    4  A    between atoms: S_4  and  C_5
REMARK    5  A    between atoms: C_8  and  C_10
REMARK    6  A    between atoms: C_10  and  O_11
REMARK    7  A    between atoms: C_12  and  O_14
REMARK    8  A    between atoms: C_15  and  O_17
REMARK    9  A    between atoms: C_18  and  O_20
REMARK                            x       y       z     vdW  Elec       q    Type
REMARK                         _______ _______ _______ _____ _____    ______ ____
ROOT
ATOM      1  C   UNL     1       7.835  -2.575  24.388  0.00  0.00    +0.207 C 
ATOM      2  C   UNL     1       8.231  -2.302  25.853  0.00  0.00    +0.184 C 
ATOM      3  C   UNL     1       8.664  -0.834  25.995  0.00  0.00    +0.177 C 
ATOM      4  C   UNL     1       9.709  -0.447  24.944  0.00  0.00    +0.176 C 
ATOM      5  C   UNL     1       9.155  -0.767  23.555  0.00  0.00    +0.176 C 
ATOM      6  O   UNL     1       8.836  -2.164  23.453  0.00  0.00    -0.355 OA
ENDROOT
BRANCH   2   7
ATOM      7  O   UNL     1       7.105  -2.553  26.713  0.00  0.00    -0.386 OA
ATOM      8  H   UNL     1       7.086  -1.857  27.395  0.00  0.00    +0.210 HD
ENDBRANCH   2   7
BRANCH   3   9
ATOM      9  O   UNL     1       9.175  -0.595  27.313  0.00  0.00    -0.386 OA
ATOM     10  H   UNL     1       8.467  -0.837  27.936  0.00  0.00    +0.210 HD
ENDBRANCH   3   9
BRANCH   4  11
ATOM     11  O   UNL     1      10.035   0.939  25.110  0.00  0.00    -0.386 OA
ATOM     12  H   UNL     1       9.294   1.481  24.782  0.00  0.00    +0.210 HD
ENDBRANCH   4  11
BRANCH   1  13
ATOM     13  S   UNL     1       7.487  -4.362  24.146  0.00  0.00    -0.124 S 
BRANCH  13  15
ATOM     14  C   UNL     1       7.091  -5.870  21.917  0.00  0.00    +0.019 C 
ATOM     15  C   UNL     1       7.217  -4.407  22.335  0.00  0.00    +0.043 C 
ATOM     16  C   UNL     1       5.964  -3.636  21.924  0.00  0.00    +0.019 C 
ENDBRANCH  13  15
ENDBRANCH   1  13
BRANCH   5  17
ATOM     17  C   UNL     1      10.162  -0.428  22.448  0.00  0.00    +0.190 C 
BRANCH  17  18
ATOM     18  O   UNL     1      10.197  -1.495  21.513  0.00  0.00    -0.392 OA
ATOM     19  H   UNL     1       9.444  -2.073  21.729  0.00  0.00    +0.210 HD
ENDBRANCH  17  18
ENDBRANCH   5  17
TORSDOF 7
ENDMDL
MODEL 7
REMARK VINA RESULT:      -4.8      3.634      6.122
REMARK  Name = 
REMARK  9 active torsions:
REMARK  status: ('A' for Active; 'I' for Inactive)
REMARK    1  A    between atoms: C_1  and  C_2
REMARK    2  A    between atoms: C_2  and  C_3
REMARK    3  A    between atoms: C_2  and  S_4
REMARK    4  A    between atoms: S_4  and  C_5
REMARK    5  A    between atoms: C_8  and  C_10
REMARK    6  A    between atoms: C_10  and  O_11
REMARK    7  A    between atoms: C_12  and  O_14
REMARK    8  A    between atoms: C_15  and  O_17
REMARK    9  A    between atoms: C_18  and  O_20
REMARK                            x       y       z     vdW  Elec       q    Type
REMARK                         _______ _______ _______ _____ _____    ______ ____
ROOT
ATOM      1  C   UNL     1       6.125  -4.394  24.062  0.00  0.00    +0.207 C 
ATOM      2  C   UNL     1       5.590  -5.718  23.479  0.00  0.00    +0.184 C 
ATOM      3  C   UNL     1       4.676  -6.394  24.513  0.00  0.00    +0.177 C 
ATOM      4  C   UNL     1       5.352  -6.501  25.884  0.00  0.00    +0.176 C 
ATOM      5  C   UNL     1       5.807  -5.107  26.320  0.00  0.00    +0.176 C 
ATOM      6  O   UNL     1       6.716  -4.553  25.355  0.00  0.00    -0.355 OA
ENDROOT
BRANCH   2   7
ATOM      7  O   UNL     1       4.839  -5.450  22.281  0.00  0.00    -0.386 OA
ATOM      8  H   UNL     1       4.748  -4.483  22.193  0.00  0.00    +0.210 HD
ENDBRANCH   2   7
BRANCH   3   9
ATOM      9  O   UNL     1       4.285  -7.695  24.052  0.00  0.00    -0.386 OA
ATOM     10  H   UNL     1       4.116  -7.613  23.096  0.00  0.00    +0.210 HD
ENDBRANCH   3   9
BRANCH   4  11
ATOM     11  O   UNL     1       4.432  -7.102  26.804  0.00  0.00    -0.386 OA
ATOM     12  H   UNL     1       3.598  -6.598  26.794  0.00  0.00    +0.210 HD
ENDBRANCH   4  11
BRANCH   1  13
ATOM     13  S   UNL     1       7.362  -3.652  22.925  0.00  0.00    -0.124 S 
BRANCH  13  15
ATOM     14  C   UNL     1       9.703  -2.761  23.984  0.00  0.00    +0.019 C 
ATOM     15  C   UNL     1       8.202  -2.488  24.062  0.00  0.00    +0.043 C 
ATOM     16  C   UNL     1       7.916  -1.031  23.703  0.00  0.00    +0.019 C 
ENDBRANCH  13  15
ENDBRANCH   1  13
BRANCH   5  17
ATOM     17  C   UNL     1       6.520  -5.140  27.679  0.00  0.00    +0.190 C 
BRANCH  17  18
ATOM     18  O   UNL     1       7.686  -5.941  27.569  0.00  0.00    -0.392 OA
ATOM     19  H   UNL     1       7.822  -6.349  28.442  0.00  0.00    +0.210 HD
ENDBRANCH  17  18
ENDBRANCH   5  17
TORSDOF 7
ENDMDL
MODEL 8
REMARK VINA RESULT:      -4.7      2.991      3.982
REMARK  Name = 
REMARK  9 active torsions:
REMARK  status: ('A' for Active; 'I' for Inactive)
REMARK    1  A    between atoms: C_1  and  C_2
REMARK    2  A    between atoms: C_2  and  C_3
REMARK    3  A    between atoms: C_2  and  S_4
REMARK    4  A    between atoms: S_4  and  C_5
REMARK    5  A    between atoms: C_8  and  C_10
REMARK    6  A    between atoms: C_10  and  O_11
REMARK    7  A    between atoms: C_12  and  O_14
REMARK    8  A    between atoms: C_15  and  O_17
REMARK    9  A    between atoms: C_18  and  O_20
REMARK                            x       y       z     vdW  Elec       q    Type
REMARK                         _______ _______ _______ _____ _____    ______ ____
ROOT
ATOM      1  C   UNL     1       6.124  -4.722  23.394  0.00  0.00    +0.207 C 
ATOM      2  C   UNL     1       6.335  -3.315  22.799  0.00  0.00    +0.184 C 
ATOM      3  C   UNL     1       7.841  -3.055  22.638  0.00  0.00    +0.177 C 
ATOM      4  C   UNL     1       8.609  -3.348  23.930  0.00  0.00    +0.176 C 
ATOM      5  C   UNL     1       8.302  -4.780  24.373  0.00  0.00    +0.176 C 
ATOM      6  O   UNL     1       6.891  -4.947  24.580  0.00  0.00    -0.355 OA
ENDROOT
BRANCH   2   7
ATOM      7  O   UNL     1       5.696  -3.233  21.513  0.00  0.00    -0.386 OA
ATOM      8  H   UNL     1       4.841  -2.779  21.629  0.00  0.00    +0.210 HD
ENDBRANCH   2   7
BRANCH   3   9
ATOM      9  O   UNL     1       8.067  -1.700  22.225  0.00  0.00    -0.386 OA
ATOM     10  H   UNL     1       7.194  -1.269  22.190  0.00  0.00    +0.210 HD
ENDBRANCH   3   9
BRANCH   4  11
ATOM     11  O   UNL     1      10.006  -3.123  23.696  0.00  0.00    -0.386 OA
ATOM     12  H   UNL     1      10.241  -3.474  22.817  0.00  0.00    +0.210 HD
ENDBRANCH   4  11
BRANCH   1  13
ATOM     13  S   UNL     1       4.347  -4.994  23.768  0.00  0.00    -0.124 S 
BRANCH  13  15
ATOM     14  C   UNL     1       3.433  -4.936  26.330  0.00  0.00    +0.019 C 
ATOM     15  C   UNL     1       4.463  -5.664  25.468  0.00  0.00    +0.043 C 
ATOM     16  C   UNL     1       4.209  -7.170  25.509  0.00  0.00    +0.019 C 
ENDBRANCH  13  15
ENDBRANCH   1  13
BRANCH   5  17
ATOM     17  C   UNL     1       9.020  -5.137  25.681  0.00  0.00    +0.190 C 
BRANCH  17  18
ATOM     18  O   UNL     1      10.343  -5.555  25.383  0.00  0.00    -0.392 OA
ATOM     19  H   UNL     1      10.335  -6.528  25.407  0.00  0.00    +0.210 HD
ENDBRANCH  17  18
ENDBRANCH   5  17
TORSDOF 7
ENDMDL
MODEL 9
REMARK VINA RESULT:      -4.6      3.162      5.313
REMARK  Name = 
REMARK  9 active torsions:
REMARK  status: ('A' for Active; 'I' for Inactive)
REMARK    1  A    between atoms: C_1  and  C_2
REMARK    2  A    between atoms: C_2  and  C_3
REMARK    3  A    between atoms: C_2  and  S_4
REMARK    4  A    between atoms: S_4  and  C_5
REMARK    5  A    between atoms: C_8  and  C_10
REMARK    6  A    between atoms: C_10  and  O_11
REMARK    7  A    between atoms: C_12  and  O_14
REMARK    8  A    between atoms: C_15  and  O_17
REMARK    9  A    between atoms: C_18  and  O_20
REMARK                            x       y       z     vdW  Elec       q    Type
REMARK                         _______ _______ _______ _____ _____    ______ ____
ROOT
ATOM      1  C   UNL     1       9.142   1.567  23.607  0.00  0.00    +0.207 C 
ATOM      2  C   UNL     1       9.887   0.776  22.512  0.00  0.00    +0.184 C 
ATOM      3  C   UNL     1       9.485  -0.705  22.596  0.00  0.00    +0.177 C 
ATOM      4  C   UNL     1       9.630  -1.252  24.019  0.00  0.00    +0.176 C 
ATOM      5  C   UNL     1       8.823  -0.367  24.972  0.00  0.00    +0.176 C 
ATOM      6  O   UNL     1       9.288   0.990  24.908  0.00  0.00    -0.355 OA
ENDROOT
BRANCH   2   7
ATOM      7  O   UNL     1       9.532   1.294  21.217  0.00  0.00    -0.386 OA
ATOM      8  H   UNL     1       8.916   0.664  20.799  0.00  0.00    +0.210 HD
ENDBRANCH   2   7
BRANCH   3   9
ATOM      9  O   UNL     1      10.274  -1.483  21.685  0.00  0.00    -0.386 OA
ATOM     10  H   UNL     1      10.353  -2.373  22.073  0.00  0.00    +0.210 HD
ENDBRANCH   3   9
BRANCH   4  11
ATOM     11  O   UNL     1       9.203  -2.620  24.031  0.00  0.00    -0.386 OA
ATOM     12  H   UNL     1       8.396  -2.696  24.573  0.00  0.00    +0.210 HD
ENDBRANCH   4  11
BRANCH   1  13
ATOM     13  S   UNL     1       9.734   3.305  23.651  0.00  0.00    -0.124 S 
BRANCH  13  15
ATOM     14  C   UNL     1       8.460   5.690  23.365  0.00  0.00    +0.019 C 
ATOM     15  C   UNL     1       8.146   4.203  23.504  0.00  0.00    +0.043 C 
ATOM     16  C   UNL     1       7.327   3.726  22.305  0.00  0.00    +0.019 C 
ENDBRANCH  13  15
ENDBRANCH   1  13
BRANCH   5  17
ATOM     17  C   UNL     1       8.942  -0.841  26.427  0.00  0.00    +0.190 C 
BRANCH  17  18
ATOM     18  O   UNL     1       8.108  -1.973  26.613  0.00  0.00    -0.392 OA
ATOM     19  H   UNL     1       8.639  -2.629  27.098  0.00  0.00    +0.210 HD
ENDBRANCH  17  18
ENDBRANCH   5  17
TORSDOF 7
ENDMDL
