MODEL 1
REMARK VINA RESULT:      -7.1      0.000      0.000
REMARK  Name = 
REMARK  4 active torsions:
REMARK  status: ('A' for Active; 'I' for Inactive)
REMARK    1  A    between atoms: C_2  and  O_3
REMARK    2  A    between atoms: C_15  and  O_16
REMARK    3  A    between atoms: C_17  and  O_18
REMARK    4  A    between atoms: C_24  and  C_25
REMARK                            x       y       z     vdW  Elec       q    Type
REMARK                         _______ _______ _______ _____ _____    ______ ____
ROOT
ATOM      1  C   UNL     1       6.025  -5.814  22.893  0.00  0.00    +0.121 C 
ATOM      2  C   UNL     1       5.878  -4.422  23.677  0.00  0.00    -0.003 C 
ATOM      3  C   UNL     1       4.823  -3.793  22.687  0.00  0.00    +0.014 C 
ATOM      4  C   UNL     1       7.406  -4.394  24.221  0.00  0.00    +0.001 C 
ATOM      5  C   UNL     1       8.112  -3.126  23.817  0.00  0.00    +0.000 C 
ATOM      6  C   UNL     1       7.472  -1.856  24.416  0.00  0.00    +0.023 C 
ATOM      7  C   UNL     1       5.924  -1.989  24.459  0.00  0.00    +0.009 C 
ATOM      8  C   UNL     1       8.121  -0.672  23.663  0.00  0.00    -0.037 A 
ATOM      9  C   UNL     1       7.478   0.569  23.501  0.00  0.00    +0.053 A 
ATOM     10  C   UNL     1       8.095   1.579  22.749  0.00  0.00    +0.158 A 
ATOM     11  C   UNL     1       9.362   1.390  22.196  0.00  0.00    +0.158 A 
ATOM     12  C   UNL     1      10.035   0.192  22.365  0.00  0.00    +0.053 A 
ATOM     13  C   UNL     1       9.438  -0.821  23.114  0.00  0.00    -0.040 A 
ATOM     14  C   UNL     1      10.238  -2.098  23.226  0.00  0.00    +0.036 C 
ATOM     15  C   UNL     1       9.600  -3.066  24.200  0.00  0.00    +0.009 C 
ATOM     16  C   UNL     1       8.122  -5.690  23.820  0.00  0.00    +0.007 C 
ATOM     17  C   UNL     1       5.401  -3.485  24.858  0.00  0.00    +0.010 C 
ATOM     18  C   UNL     1       7.509  -5.921  22.496  0.00  0.00    +0.032 C 
ENDROOT
BRANCH   1  19
ATOM     19  O   UNL     1       5.425  -5.858  21.576  0.00  0.00    -0.391 OA
ATOM     20  H   UNL     1       6.089  -6.131  20.927  0.00  0.00    +0.210 HD
ENDBRANCH   1  19
BRANCH  11  21
ATOM     21  O   UNL     1       9.942   2.367  21.433  0.00  0.00    -0.503 OA
ATOM     22  H   UNL     1       9.183   2.903  21.135  0.00  0.00    +0.292 HD
ENDBRANCH  11  21
BRANCH  10  23
ATOM     23  O   UNL     1       7.527   2.792  22.532  0.00  0.00    -0.503 OA
ATOM     24  H   UNL     1       7.356   2.850  21.571  0.00  0.00    +0.292 HD
ENDBRANCH  10  23
TORSDOF 3
ENDMDL
MODEL 2
REMARK VINA RESULT:      -6.9      1.161      6.360
REMARK  Name = 
REMARK  4 active torsions:
REMARK  status: ('A' for Active; 'I' for Inactive)
REMARK    1  A    between atoms: C_2  and  O_3
REMARK    2  A    between atoms: C_15  and  O_16
REMARK    3  A    between atoms: C_17  and  O_18
REMARK    4  A    between atoms: C_24  and  C_25
REMARK                            x       y       z     vdW  Elec       q    Type
REMARK                         _______ _______ _______ _____ _____    ______ ____
ROOT
ATOM      1  C   UNL     1       9.332   1.846  22.830  0.00  0.00    +0.121 C 
ATOM      2  C   UNL     1       9.613   0.280  23.040  0.00  0.00    -0.003 C 
ATOM      3  C   UNL     1       9.667  -0.078  21.504  0.00  0.00    +0.014 C 
ATOM      4  C   UNL     1       8.780   0.162  24.426  0.00  0.00    +0.001 C 
ATOM      5  C   UNL     1       7.714  -0.900  24.341  0.00  0.00    +0.000 C 
ATOM      6  C   UNL     1       8.284  -2.316  24.116  0.00  0.00    +0.023 C 
ATOM      7  C   UNL     1       9.514  -2.270  23.169  0.00  0.00    +0.009 C 
ATOM      8  C   UNL     1       7.067  -3.198  23.754  0.00  0.00    -0.037 A 
ATOM      9  C   UNL     1       7.179  -4.365  22.975  0.00  0.00    +0.053 A 
ATOM     10  C   UNL     1       6.025  -5.082  22.626  0.00  0.00    +0.158 A 
ATOM     11  C   UNL     1       4.767  -4.683  23.080  0.00  0.00    +0.158 A 
ATOM     12  C   UNL     1       4.627  -3.558  23.875  0.00  0.00    +0.053 A 
ATOM     13  C   UNL     1       5.764  -2.836  24.236  0.00  0.00    -0.040 A 
ATOM     14  C   UNL     1       5.510  -1.615  25.087  0.00  0.00    +0.036 C 
ATOM     15  C   UNL     1       6.806  -1.003  25.577  0.00  0.00    +0.009 C 
ATOM     16  C   UNL     1       8.280   1.548  24.850  0.00  0.00    +0.007 C 
ATOM     17  C   UNL     1      10.489  -0.982  23.414  0.00  0.00    +0.010 C 
ATOM     18  C   UNL     1       7.987   2.130  23.524  0.00  0.00    +0.032 C 
ENDROOT
BRANCH   1  19
ATOM     19  O   UNL     1       8.991   2.247  21.481  0.00  0.00    -0.391 OA
ATOM     20  H   UNL     1       9.748   2.090  20.897  0.00  0.00    +0.210 HD
ENDBRANCH   1  19
BRANCH  11  21
ATOM     21  O   UNL     1       3.642  -5.367  22.706  0.00  0.00    -0.503 OA
ATOM     22  H   UNL     1       3.140  -4.711  22.187  0.00  0.00    +0.292 HD
ENDBRANCH  11  21
BRANCH  10  23
ATOM     23  O   UNL     1       6.053  -6.202  21.862  0.00  0.00    -0.503 OA
ATOM     24  H   UNL     1       6.438  -6.908  22.418  0.00  0.00    +0.292 HD
ENDBRANCH  10  23
TORSDOF 3
ENDMDL
MODEL 3
REMARK VINA RESULT:      -6.8      3.971      6.331
REMARK  Name = 
REMARK  4 active torsions:
REMARK  status: ('A' for Active; 'I' for Inactive)
REMARK    1  A    between atoms: C_2  and  O_3
REMARK    2  A    between atoms: C_15  and  O_16
REMARK    3  A    between atoms: C_17  and  O_18
REMARK    4  A    between atoms: C_24  and  C_25
REMARK                            x       y       z     vdW  Elec       q    Type
REMARK                         _______ _______ _______ _____ _____    ______ ____
ROOT
ATOM      1  C   UNL     1       7.650  -0.441  25.209  0.00  0.00    +0.121 C 
ATOM      2  C   UNL     1       8.583   0.135  24.037  0.00  0.00    -0.003 C 
ATOM      3  C   UNL     1       9.933  -0.450  24.607  0.00  0.00    +0.014 C 
ATOM      4  C   UNL     1       7.691   1.463  23.773  0.00  0.00    +0.001 C 
ATOM      5  C   UNL     1       8.516   2.717  23.900  0.00  0.00    +0.000 C 
ATOM      6  C   UNL     1       9.649   2.806  22.856  0.00  0.00    +0.023 C 
ATOM      7  C   UNL     1      10.268   1.405  22.595  0.00  0.00    +0.009 C 
ATOM      8  C   UNL     1      10.552   3.970  23.325  0.00  0.00    -0.037 A 
ATOM      9  C   UNL     1      11.920   4.047  23.005  0.00  0.00    +0.053 A 
ATOM     10  C   UNL     1      12.697   5.094  23.520  0.00  0.00    +0.158 A 
ATOM     11  C   UNL     1      12.124   6.093  24.309  0.00  0.00    +0.158 A 
ATOM     12  C   UNL     1      10.774   6.064  24.614  0.00  0.00    +0.053 A 
ATOM     13  C   UNL     1       9.986   5.032  24.107  0.00  0.00    -0.040 A 
ATOM     14  C   UNL     1       8.531   5.074  24.510  0.00  0.00    +0.036 C 
ATOM     15  C   UNL     1       7.722   4.028  23.771  0.00  0.00    +0.009 C 
ATOM     16  C   UNL     1       6.433   1.425  24.651  0.00  0.00    +0.007 C 
ATOM     17  C   UNL     1       9.171   0.193  22.570  0.00  0.00    +0.010 C 
ATOM     18  C   UNL     1       6.987   0.785  25.862  0.00  0.00    +0.032 C 
ENDROOT
BRANCH   1  19
ATOM     19  O   UNL     1       8.348  -0.974  26.360  0.00  0.00    -0.391 OA
ATOM     20  H   UNL     1       8.669  -1.866  26.159  0.00  0.00    +0.210 HD
ENDBRANCH   1  19
BRANCH  11  21
ATOM     21  O   UNL     1      12.896   7.093  24.837  0.00  0.00    -0.503 OA
ATOM     22  H   UNL     1      12.957   7.740  24.109  0.00  0.00    +0.292 HD
ENDBRANCH  11  21
BRANCH  10  23
ATOM     23  O   UNL     1      14.025   5.222  23.273  0.00  0.00    -0.503 OA
ATOM     24  H   UNL     1      14.239   4.577  22.569  0.00  0.00    +0.292 HD
ENDBRANCH  10  23
TORSDOF 3
ENDMDL
MODEL 4
REMARK VINA RESULT:      -6.8      1.655      6.320
REMARK  Name = 
REMARK  4 active torsions:
REMARK  status: ('A' for Active; 'I' for Inactive)
REMARK    1  A    between atoms: C_2  and  O_3
REMARK    2  A    between atoms: C_15  and  O_16
REMARK    3  A    between atoms: C_17  and  O_18
REMARK    4  A    between atoms: C_24  and  C_25
REMARK                            x       y       z     vdW  Elec       q    Type
REMARK                         _______ _______ _______ _____ _____    ______ ____
ROOT
ATOM      1  C   UNL     1       8.398   1.087  24.744  0.00  0.00    +0.121 C 
ATOM      2  C   UNL     1       8.804  -0.172  23.837  0.00  0.00    -0.003 C 
ATOM      3  C   UNL     1       7.819   0.164  22.650  0.00  0.00    +0.014 C 
ATOM      4  C   UNL     1       9.132  -1.156  25.083  0.00  0.00    +0.001 C 
ATOM      5  C   UNL     1       8.328  -2.429  25.008  0.00  0.00    +0.000 C 
ATOM      6  C   UNL     1       8.647  -3.277  23.759  0.00  0.00    +0.023 C 
ATOM      7  C   UNL     1       8.911  -2.365  22.528  0.00  0.00    +0.009 C 
ATOM      8  C   UNL     1       7.538  -4.352  23.695  0.00  0.00    -0.037 A 
ATOM      9  C   UNL     1       7.137  -4.959  22.491  0.00  0.00    +0.053 A 
ATOM     10  C   UNL     1       6.078  -5.879  22.495  0.00  0.00    +0.158 A 
ATOM     11  C   UNL     1       5.444  -6.239  23.685  0.00  0.00    +0.158 A 
ATOM     12  C   UNL     1       5.837  -5.684  24.891  0.00  0.00    +0.053 A 
ATOM     13  C   UNL     1       6.892  -4.772  24.906  0.00  0.00    -0.040 A 
ATOM     14  C   UNL     1       7.235  -4.205  26.264  0.00  0.00    +0.036 C 
ATOM     15  C   UNL     1       8.499  -3.371  26.211  0.00  0.00    +0.009 C 
ATOM     16  C   UNL     1       8.999  -0.384  26.402  0.00  0.00    +0.007 C 
ATOM     17  C   UNL     1       9.748  -1.006  22.881  0.00  0.00    +0.010 C 
ATOM     18  C   UNL     1       7.866   0.502  26.065  0.00  0.00    +0.032 C 
ENDROOT
BRANCH   1  19
ATOM     19  O   UNL     1       7.222   1.815  24.317  0.00  0.00    -0.391 OA
ATOM     20  H   UNL     1       7.069   2.561  24.915  0.00  0.00    +0.210 HD
ENDBRANCH   1  19
BRANCH  11  21
ATOM     21  O   UNL     1       4.388  -7.109  23.676  0.00  0.00    -0.503 OA
ATOM     22  H   UNL     1       4.760  -7.912  23.262  0.00  0.00    +0.292 HD
ENDBRANCH  11  21
BRANCH  10  23
ATOM     23  O   UNL     1       5.623  -6.488  21.371  0.00  0.00    -0.503 OA
ATOM     24  H   UNL     1       6.411  -6.817  20.896  0.00  0.00    +0.292 HD
ENDBRANCH  10  23
TORSDOF 3
ENDMDL
MODEL 5
REMARK VINA RESULT:      -6.8      1.412      1.535
REMARK  Name = 
REMARK  4 active torsions:
REMARK  status: ('A' for Active; 'I' for Inactive)
REMARK    1  A    between atoms: C_2  and  O_3
REMARK    2  A    between atoms: C_15  and  O_16
REMARK    3  A    between atoms: C_17  and  O_18
REMARK    4  A    between atoms: C_24  and  C_25
REMARK                            x       y       z     vdW  Elec       q    Type
REMARK                         _______ _______ _______ _____ _____    ______ ____
ROOT
ATOM      1  C   UNL     1       5.600  -4.713  23.605  0.00  0.00    +0.121 C 
ATOM      2  C   UNL     1       6.092  -3.669  24.719  0.00  0.00    -0.003 C 
ATOM      3  C   UNL     1       4.894  -2.659  24.530  0.00  0.00    +0.014 C 
ATOM      4  C   UNL     1       7.674  -3.945  24.496  0.00  0.00    +0.001 C 
ATOM      5  C   UNL     1       8.418  -2.672  24.181  0.00  0.00    +0.000 C 
ATOM      6  C   UNL     1       8.369  -1.641  25.328  0.00  0.00    +0.023 C 
ATOM      7  C   UNL     1       6.983  -1.663  26.029  0.00  0.00    +0.009 C 
ATOM      8  C   UNL     1       8.903  -0.323  24.720  0.00  0.00    -0.037 A 
ATOM      9  C   UNL     1       8.540   0.943  25.215  0.00  0.00    +0.053 A 
ATOM     10  C   UNL     1       9.007   2.100  24.574  0.00  0.00    +0.158 A 
ATOM     11  C   UNL     1       9.867   2.017  23.479  0.00  0.00    +0.158 A 
ATOM     12  C   UNL     1      10.270   0.786  22.989  0.00  0.00    +0.053 A 
ATOM     13  C   UNL     1       9.819  -0.375  23.617  0.00  0.00    -0.040 A 
ATOM     14  C   UNL     1      10.294  -1.669  22.999  0.00  0.00    +0.036 C 
ATOM     15  C   UNL     1       9.907  -2.862  23.848  0.00  0.00    +0.009 C 
ATOM     16  C   UNL     1       7.864  -5.074  23.476  0.00  0.00    +0.007 C 
ATOM     17  C   UNL     1       6.350  -3.161  26.194  0.00  0.00    +0.010 C 
ATOM     18  C   UNL     1       6.734  -4.790  22.567  0.00  0.00    +0.032 C 
ENDROOT
BRANCH   1  19
ATOM     19  O   UNL     1       4.526  -4.256  22.748  0.00  0.00    -0.391 OA
ATOM     20  H   UNL     1       3.909  -3.716  23.264  0.00  0.00    +0.210 HD
ENDBRANCH   1  19
BRANCH  11  21
ATOM     21  O   UNL     1      10.290   3.149  22.838  0.00  0.00    -0.503 OA
ATOM     22  H   UNL     1      10.731   2.805  22.037  0.00  0.00    +0.292 HD
ENDBRANCH  11  21
BRANCH  10  23
ATOM     23  O   UNL     1       8.682   3.353  24.981  0.00  0.00    -0.503 OA
ATOM     24  H   UNL     1       9.409   3.652  25.563  0.00  0.00    +0.292 HD
ENDBRANCH  10  23
TORSDOF 3
ENDMDL
MODEL 6
REMARK VINA RESULT:      -6.7      2.290      6.272
REMARK  Name = 
REMARK  4 active torsions:
REMARK  status: ('A' for Active; 'I' for Inactive)
REMARK    1  A    between atoms: C_2  and  O_3
REMARK    2  A    between atoms: C_15  and  O_16
REMARK    3  A    between atoms: C_17  and  O_18
REMARK    4  A    between atoms: C_24  and  C_25
REMARK                            x       y       z     vdW  Elec       q    Type
REMARK                         _______ _______ _______ _____ _____    ______ ____
ROOT
ATOM      1  C   UNL     1       8.981   3.287  23.440  0.00  0.00    +0.121 C 
ATOM      2  C   UNL     1       7.873   2.134  23.307  0.00  0.00    -0.003 C 
ATOM      3  C   UNL     1       7.231   2.366  24.729  0.00  0.00    +0.014 C 
ATOM      4  C   UNL     1       8.777   1.163  22.375  0.00  0.00    +0.001 C 
ATOM      5  C   UNL     1       8.918  -0.209  22.980  0.00  0.00    +0.000 C 
ATOM      6  C   UNL     1       7.574  -0.955  23.116  0.00  0.00    +0.023 C 
ATOM      7  C   UNL     1       6.435   0.030  23.500  0.00  0.00    +0.009 C 
ATOM      8  C   UNL     1       7.869  -2.177  24.015  0.00  0.00    -0.037 A 
ATOM      9  C   UNL     1       6.883  -2.792  24.809  0.00  0.00    +0.053 A 
ATOM     10  C   UNL     1       7.234  -3.855  25.653  0.00  0.00    +0.158 A 
ATOM     11  C   UNL     1       8.539  -4.348  25.684  0.00  0.00    +0.158 A 
ATOM     12  C   UNL     1       9.525  -3.786  24.890  0.00  0.00    +0.053 A 
ATOM     13  C   UNL     1       9.193  -2.731  24.041  0.00  0.00    -0.040 A 
ATOM     14  C   UNL     1      10.337  -2.171  23.230  0.00  0.00    +0.036 C 
ATOM     15  C   UNL     1       9.851  -1.160  22.212  0.00  0.00    +0.009 C 
ATOM     16  C   UNL     1      10.100   1.859  22.032  0.00  0.00    +0.007 C 
ATOM     17  C   UNL     1       6.540   1.483  22.758  0.00  0.00    +0.010 C 
ATOM     18  C   UNL     1      10.342   2.582  23.298  0.00  0.00    +0.032 C 
ENDROOT
BRANCH   1  19
ATOM     19  O   UNL     1       9.143   3.850  24.764  0.00  0.00    -0.391 OA
ATOM     20  H   UNL     1       8.311   3.773  25.252  0.00  0.00    +0.210 HD
ENDBRANCH   1  19
BRANCH  11  21
ATOM     21  O   UNL     1       8.881  -5.362  26.536  0.00  0.00    -0.503 OA
ATOM     22  H   UNL     1       8.777  -6.164  25.988  0.00  0.00    +0.292 HD
ENDBRANCH  11  21
BRANCH  10  23
ATOM     23  O   UNL     1       6.343  -4.483  26.462  0.00  0.00    -0.503 OA
ATOM     24  H   UNL     1       6.501  -4.141  27.365  0.00  0.00    +0.292 HD
ENDBRANCH  10  23
TORSDOF 3
ENDMDL
MODEL 7
REMARK VINA RESULT:      -6.6      2.057      6.658
REMARK  Name = 
REMARK  4 active torsions:
REMARK  status: ('A' for Active; 'I' for Inactive)
REMARK    1  A    between atoms: C_2  and  O_3
REMARK    2  A    between atoms: C_15  and  O_16
REMARK    3  A    between atoms: C_17  and  O_18
REMARK    4  A    between atoms: C_24  and  C_25
REMARK                            x       y       z     vdW  Elec       q    Type
REMARK                         _______ _______ _______ _____ _____    ______ ____
ROOT
ATOM      1  C   UNL     1       8.723   3.071  22.873  0.00  0.00    +0.121 C 
ATOM      2  C   UNL     1       9.614   1.851  23.413  0.00  0.00    -0.003 C 
ATOM      3  C   UNL     1       9.825   1.172  22.005  0.00  0.00    +0.014 C 
ATOM      4  C   UNL     1       8.887   1.764  24.860  0.00  0.00    +0.001 C 
ATOM      5  C   UNL     1       8.345   0.382  25.123  0.00  0.00    +0.000 C 
ATOM      6  C   UNL     1       9.443  -0.700  25.183  0.00  0.00    +0.023 C 
ATOM      7  C   UNL     1      10.559  -0.409  24.141  0.00  0.00    +0.009 C 
ATOM      8  C   UNL     1       8.693  -2.051  25.150  0.00  0.00    -0.037 A 
ATOM      9  C   UNL     1       9.278  -3.233  24.657  0.00  0.00    +0.053 A 
ATOM     10  C   UNL     1       8.518  -4.410  24.592  0.00  0.00    +0.158 A 
ATOM     11  C   UNL     1       7.202  -4.442  25.055  0.00  0.00    +0.158 A 
ATOM     12  C   UNL     1       6.609  -3.304  25.576  0.00  0.00    +0.053 A 
ATOM     13  C   UNL     1       7.351  -2.127  25.652  0.00  0.00    -0.040 A 
ATOM     14  C   UNL     1       6.614  -0.934  26.216  0.00  0.00    +0.036 C 
ATOM     15  C   UNL     1       7.545   0.241  26.428  0.00  0.00    +0.009 C 
ATOM     16  C   UNL     1       7.862   2.897  24.994  0.00  0.00    +0.007 C 
ATOM     17  C   UNL     1      10.924   1.177  23.989  0.00  0.00    +0.010 C 
ATOM     18  C   UNL     1       7.372   2.963  23.602  0.00  0.00    +0.032 C 
ENDROOT
BRANCH   1  19
ATOM     19  O   UNL     1       8.264   2.953  21.505  0.00  0.00    -0.391 OA
ATOM     20  H   UNL     1       7.300   2.857  21.495  0.00  0.00    +0.210 HD
ENDBRANCH   1  19
BRANCH  11  21
ATOM     21  O   UNL     1       6.456  -5.585  24.957  0.00  0.00    -0.503 OA
ATOM     22  H   UNL     1       6.997  -6.249  25.425  0.00  0.00    +0.292 HD
ENDBRANCH  11  21
BRANCH  10  23
ATOM     23  O   UNL     1       9.007  -5.580  24.110  0.00  0.00    -0.503 OA
ATOM     24  H   UNL     1       9.930  -5.405  23.840  0.00  0.00    +0.292 HD
ENDBRANCH  10  23
TORSDOF 3
ENDMDL
MODEL 8
REMARK VINA RESULT:      -6.6      1.807      2.231
REMARK  Name = 
REMARK  4 active torsions:
REMARK  status: ('A' for Active; 'I' for Inactive)
REMARK    1  A    between atoms: C_2  and  O_3
REMARK    2  A    between atoms: C_15  and  O_16
REMARK    3  A    between atoms: C_17  and  O_18
REMARK    4  A    between atoms: C_24  and  C_25
REMARK                            x       y       z     vdW  Elec       q    Type
REMARK                         _______ _______ _______ _____ _____    ______ ____
ROOT
ATOM      1  C   UNL     1       7.948  -5.332  24.566  0.00  0.00    +0.121 C 
ATOM      2  C   UNL     1       7.105  -4.019  24.189  0.00  0.00    -0.003 C 
ATOM      3  C   UNL     1       7.334  -4.126  22.631  0.00  0.00    +0.014 C 
ATOM      4  C   UNL     1       7.456  -3.218  25.554  0.00  0.00    +0.001 C 
ATOM      5  C   UNL     1       8.079  -1.877  25.263  0.00  0.00    +0.000 C 
ATOM      6  C   UNL     1       7.140  -0.925  24.494  0.00  0.00    +0.023 C 
ATOM      7  C   UNL     1       6.291  -1.710  23.456  0.00  0.00    +0.009 C 
ATOM      8  C   UNL     1       8.033   0.248  24.027  0.00  0.00    -0.037 A 
ATOM      9  C   UNL     1       7.737   1.022  22.890  0.00  0.00    +0.053 A 
ATOM     10  C   UNL     1       8.625   2.028  22.483  0.00  0.00    +0.158 A 
ATOM     11  C   UNL     1       9.779   2.307  23.217  0.00  0.00    +0.158 A 
ATOM     12  C   UNL     1      10.082   1.584  24.358  0.00  0.00    +0.053 A 
ATOM     13  C   UNL     1       9.207   0.584  24.780  0.00  0.00    -0.040 A 
ATOM     14  C   UNL     1       9.632  -0.163  26.023  0.00  0.00    +0.036 C 
ATOM     15  C   UNL     1       8.542  -1.098  26.505  0.00  0.00    +0.009 C 
ATOM     16  C   UNL     1       8.270  -4.120  26.490  0.00  0.00    +0.007 C 
ATOM     17  C   UNL     1       5.786  -3.172  23.986  0.00  0.00    +0.010 C 
ATOM     18  C   UNL     1       9.079  -4.855  25.495  0.00  0.00    +0.032 C 
ENDROOT
BRANCH   1  19
ATOM     19  O   UNL     1       8.743  -5.895  23.495  0.00  0.00    -0.391 OA
ATOM     20  H   UNL     1       9.556  -6.273  23.861  0.00  0.00    +0.210 HD
ENDBRANCH   1  19
BRANCH  11  21
ATOM     21  O   UNL     1      10.659   3.266  22.794  0.00  0.00    -0.503 OA
ATOM     22  H   UNL     1      10.083   4.024  22.581  0.00  0.00    +0.292 HD
ENDBRANCH  11  21
BRANCH  10  23
ATOM     23  O   UNL     1       8.417   2.801  21.387  0.00  0.00    -0.503 OA
ATOM     24  H   UNL     1       9.295   2.951  20.984  0.00  0.00    +0.292 HD
ENDBRANCH  10  23
TORSDOF 3
ENDMDL
MODEL 9
REMARK VINA RESULT:      -6.6      2.679      6.197
REMARK  Name = 
REMARK  4 active torsions:
REMARK  status: ('A' for Active; 'I' for Inactive)
REMARK    1  A    between atoms: C_2  and  O_3
REMARK    2  A    between atoms: C_15  and  O_16
REMARK    3  A    between atoms: C_17  and  O_18
REMARK    4  A    between atoms: C_24  and  C_25
REMARK                            x       y       z     vdW  Elec       q    Type
REMARK                         _______ _______ _______ _____ _____    ______ ____
ROOT
ATOM      1  C   UNL     1       9.504   1.114  23.154  0.00  0.00    +0.121 C 
ATOM      2  C   UNL     1       8.091   0.605  23.718  0.00  0.00    -0.003 C 
ATOM      3  C   UNL     1       8.284   1.181  25.174  0.00  0.00    +0.014 C 
ATOM      4  C   UNL     1       8.026  -0.721  22.788  0.00  0.00    +0.001 C 
ATOM      5  C   UNL     1       7.854  -1.969  23.615  0.00  0.00    +0.000 C 
ATOM      6  C   UNL     1       6.530  -1.994  24.408  0.00  0.00    +0.023 C 
ATOM      7  C   UNL     1       6.173  -0.574  24.928  0.00  0.00    +0.009 C 
ATOM      8  C   UNL     1       6.669  -3.166  25.407  0.00  0.00    -0.037 A 
ATOM      9  C   UNL     1       5.973  -3.209  26.629  0.00  0.00    +0.053 A 
ATOM     10  C   UNL     1       6.198  -4.269  27.520  0.00  0.00    +0.158 A 
ATOM     11  C   UNL     1       7.067  -5.311  27.192  0.00  0.00    +0.158 A 
ATOM     12  C   UNL     1       7.742  -5.314  25.983  0.00  0.00    +0.053 A 
ATOM     13  C   UNL     1       7.527  -4.271  25.084  0.00  0.00    -0.040 A 
ATOM     14  C   UNL     1       8.322  -4.350  23.802  0.00  0.00    +0.036 C 
ATOM     15  C   UNL     1       7.891  -3.282  22.817  0.00  0.00    +0.009 C 
ATOM     16  C   UNL     1       9.223  -0.741  21.829  0.00  0.00    +0.007 C 
ATOM     17  C   UNL     1       6.516   0.623  23.869  0.00  0.00    +0.010 C 
ATOM     18  C   UNL     1      10.258  -0.150  22.702  0.00  0.00    +0.032 C 
ENDROOT
BRANCH   1  19
ATOM     19  O   UNL     1      10.436   1.603  24.148  0.00  0.00    -0.391 OA
ATOM     20  H   UNL     1       9.946   1.936  24.914  0.00  0.00    +0.210 HD
ENDBRANCH   1  19
BRANCH  11  21
ATOM     21  O   UNL     1       7.307  -6.323  28.081  0.00  0.00    -0.503 OA
ATOM     22  H   UNL     1       7.737  -5.869  28.831  0.00  0.00    +0.292 HD
ENDBRANCH  11  21
BRANCH  10  23
ATOM     23  O   UNL     1       5.580  -4.367  28.724  0.00  0.00    -0.503 OA
ATOM     24  H   UNL     1       4.919  -3.647  28.755  0.00  0.00    +0.292 HD
ENDBRANCH  10  23
TORSDOF 3
ENDMDL
