MODEL 1
REMARK VINA RESULT:      -5.4      0.000      0.000
REMARK  Name = 
REMARK  5 active torsions:
REMARK  status: ('A' for Active; 'I' for Inactive)
REMARK    1  A    between atoms: O_1  and  C_2
REMARK    2  A    between atoms: C_2  and  C_4
REMARK    3  A    between atoms: C_4  and  C_6
REMARK    4  A    between atoms: C_6  and  C_7
REMARK    5  A    between atoms: C_10  and  O_11
REMARK                            x       y       z     vdW  Elec       q    Type
REMARK                         _______ _______ _______ _____ _____    ______ ____
ROOT
ATOM      1  C   UNL     1       9.920  -1.506  23.397  0.00  0.00    -0.039 A 
ATOM      2  C   UNL     1       9.525  -1.386  22.057  0.00  0.00    +0.007 A 
ATOM      3  C   UNL     1       9.530  -0.139  21.428  0.00  0.00    +0.045 A 
ATOM      4  C   UNL     1       9.922   0.989  22.138  0.00  0.00    +0.117 A 
ATOM      5  C   UNL     1      10.310   0.893  23.470  0.00  0.00    +0.045 A 
ATOM      6  C   UNL     1      10.307  -0.355  24.099  0.00  0.00    +0.007 A 
ENDROOT
BRANCH   4   7
ATOM      7  O   UNL     1       9.908   2.186  21.486  0.00  0.00    -0.507 OA
ATOM      8  H   UNL     1      10.565   2.770  21.898  0.00  0.00    +0.292 HD
ENDBRANCH   4   7
BRANCH   1   9
ATOM      9  C   UNL     1       9.906  -2.852  24.080  0.00  0.00    +0.121 C 
BRANCH   9  10
ATOM     10  C   UNL     1       8.522  -3.398  24.320  0.00  0.00    +0.243 C 
ATOM     11  O   UNL     1       7.519  -2.782  24.670  0.00  0.00    -0.285 OA
BRANCH  10  12
ATOM     12  C   UNL     1       8.359  -4.898  24.109  0.00  0.00    +0.373 C 
ATOM     13  O   UNL     1       7.362  -5.398  23.629  0.00  0.00    -0.242 OA
BRANCH  12  14
ATOM     14  O   UNL     1       9.457  -5.557  24.522  0.00  0.00    -0.475 OA
ATOM     15  H   UNL     1       9.592  -5.386  25.486  0.00  0.00    +0.295 HD
ENDBRANCH  12  14
ENDBRANCH  10  12
ENDBRANCH   9  10
ENDBRANCH   1   9
TORSDOF 5
ENDMDL
MODEL 2
REMARK VINA RESULT:      -5.0      0.907      2.073
REMARK  Name = 
REMARK  5 active torsions:
REMARK  status: ('A' for Active; 'I' for Inactive)
REMARK    1  A    between atoms: O_1  and  C_2
REMARK    2  A    between atoms: C_2  and  C_4
REMARK    3  A    between atoms: C_4  and  C_6
REMARK    4  A    between atoms: C_6  and  C_7
REMARK    5  A    between atoms: C_10  and  O_11
REMARK                            x       y       z     vdW  Elec       q    Type
REMARK                         _______ _______ _______ _____ _____    ______ ____
ROOT
ATOM      1  C   UNL     1       9.875  -1.470  23.362  0.00  0.00    -0.039 A 
ATOM      2  C   UNL     1      10.309  -0.332  24.056  0.00  0.00    +0.007 A 
ATOM      3  C   UNL     1      10.331   0.914  23.426  0.00  0.00    +0.045 A 
ATOM      4  C   UNL     1       9.928   1.024  22.102  0.00  0.00    +0.117 A 
ATOM      5  C   UNL     1       9.501  -0.093  21.392  0.00  0.00    +0.045 A 
ATOM      6  C   UNL     1       9.476  -1.341  22.022  0.00  0.00    +0.007 A 
ENDROOT
BRANCH   4   7
ATOM      7  O   UNL     1       9.970   2.259  21.526  0.00  0.00    -0.507 OA
ATOM      8  H   UNL     1       9.154   2.390  21.016  0.00  0.00    +0.292 HD
ENDBRANCH   4   7
BRANCH   1   9
ATOM      9  C   UNL     1       9.859  -2.819  24.038  0.00  0.00    +0.121 C 
BRANCH   9  10
ATOM     10  C   UNL     1       8.487  -3.436  24.135  0.00  0.00    +0.243 C 
ATOM     11  O   UNL     1       7.977  -4.260  23.381  0.00  0.00    -0.285 OA
BRANCH  10  12
ATOM     12  C   UNL     1       7.634  -2.968  25.307  0.00  0.00    +0.373 C 
ATOM     13  O   UNL     1       6.424  -2.880  25.257  0.00  0.00    -0.242 OA
BRANCH  12  14
ATOM     14  O   UNL     1       8.407  -2.681  26.371  0.00  0.00    -0.475 OA
ATOM     15  H   UNL     1       7.837  -2.324  27.096  0.00  0.00    +0.295 HD
ENDBRANCH  12  14
ENDBRANCH  10  12
ENDBRANCH   9  10
ENDBRANCH   1   9
TORSDOF 5
ENDMDL
MODEL 3
REMARK VINA RESULT:      -5.0      2.061      2.528
REMARK  Name = 
REMARK  5 active torsions:
REMARK  status: ('A' for Active; 'I' for Inactive)
REMARK    1  A    between atoms: O_1  and  C_2
REMARK    2  A    between atoms: C_2  and  C_4
REMARK    3  A    between atoms: C_4  and  C_6
REMARK    4  A    between atoms: C_6  and  C_7
REMARK    5  A    between atoms: C_10  and  O_11
REMARK                            x       y       z     vdW  Elec       q    Type
REMARK                         _______ _______ _______ _____ _____    ______ ____
ROOT
ATOM      1  C   UNL     1       7.646  -1.415  22.724  0.00  0.00    -0.039 A 
ATOM      2  C   UNL     1       7.134  -0.130  22.953  0.00  0.00    +0.007 A 
ATOM      3  C   UNL     1       7.804   0.995  22.467  0.00  0.00    +0.045 A 
ATOM      4  C   UNL     1       8.989   0.838  21.760  0.00  0.00    +0.117 A 
ATOM      5  C   UNL     1       9.519  -0.426  21.527  0.00  0.00    +0.045 A 
ATOM      6  C   UNL     1       8.848  -1.553  22.011  0.00  0.00    +0.007 A 
ENDROOT
BRANCH   4   7
ATOM      7  O   UNL     1       9.611   1.964  21.308  0.00  0.00    -0.507 OA
ATOM      8  H   UNL     1       9.820   1.845  20.367  0.00  0.00    +0.292 HD
ENDBRANCH   4   7
BRANCH   1   9
ATOM      9  C   UNL     1       6.928  -2.631  23.256  0.00  0.00    +0.121 C 
BRANCH   9  10
ATOM     10  C   UNL     1       6.473  -3.587  22.184  0.00  0.00    +0.243 C 
ATOM     11  O   UNL     1       5.616  -3.402  21.323  0.00  0.00    -0.285 OA
BRANCH  10  12
ATOM     12  C   UNL     1       7.157  -4.948  22.180  0.00  0.00    +0.373 C 
ATOM     13  O   UNL     1       7.050  -5.744  21.270  0.00  0.00    -0.242 OA
BRANCH  12  14
ATOM     14  O   UNL     1       7.876  -5.121  23.304  0.00  0.00    -0.475 OA
ATOM     15  H   UNL     1       8.066  -6.084  23.420  0.00  0.00    +0.295 HD
ENDBRANCH  12  14
ENDBRANCH  10  12
ENDBRANCH   9  10
ENDBRANCH   1   9
TORSDOF 5
ENDMDL
MODEL 4
REMARK VINA RESULT:      -4.9      2.709      5.930
REMARK  Name = 
REMARK  5 active torsions:
REMARK  status: ('A' for Active; 'I' for Inactive)
REMARK    1  A    between atoms: O_1  and  C_2
REMARK    2  A    between atoms: C_2  and  C_4
REMARK    3  A    between atoms: C_4  and  C_6
REMARK    4  A    between atoms: C_6  and  C_7
REMARK    5  A    between atoms: C_10  and  O_11
REMARK                            x       y       z     vdW  Elec       q    Type
REMARK                         _______ _______ _______ _____ _____    ______ ____
ROOT
ATOM      1  C   UNL     1       6.930  -3.887  22.790  0.00  0.00    -0.039 A 
ATOM      2  C   UNL     1       7.073  -5.043  22.010  0.00  0.00    +0.007 A 
ATOM      3  C   UNL     1       6.322  -6.185  22.295  0.00  0.00    +0.045 A 
ATOM      4  C   UNL     1       5.435  -6.177  23.364  0.00  0.00    +0.117 A 
ATOM      5  C   UNL     1       5.284  -5.044  24.156  0.00  0.00    +0.045 A 
ATOM      6  C   UNL     1       6.033  -3.900  23.870  0.00  0.00    +0.007 A 
ENDROOT
BRANCH   4   7
ATOM      7  O   UNL     1       4.726  -7.316  23.609  0.00  0.00    -0.507 OA
ATOM      8  H   UNL     1       4.598  -7.400  24.568  0.00  0.00    +0.292 HD
ENDBRANCH   4   7
BRANCH   1   9
ATOM      9  C   UNL     1       7.748  -2.655  22.489  0.00  0.00    +0.121 C 
BRANCH   9  10
ATOM     10  C   UNL     1       9.092  -2.634  23.170  0.00  0.00    +0.243 C 
ATOM     11  O   UNL     1       9.520  -3.415  24.016  0.00  0.00    -0.285 OA
BRANCH  10  12
ATOM     12  C   UNL     1      10.023  -1.501  22.759  0.00  0.00    +0.373 C 
ATOM     13  O   UNL     1      10.480  -0.697  23.544  0.00  0.00    -0.242 OA
BRANCH  12  14
ATOM     14  O   UNL     1      10.254  -1.534  21.433  0.00  0.00    -0.475 OA
ATOM     15  H   UNL     1       9.390  -1.603  20.958  0.00  0.00    +0.295 HD
ENDBRANCH  12  14
ENDBRANCH  10  12
ENDBRANCH   9  10
ENDBRANCH   1   9
TORSDOF 5
ENDMDL
MODEL 5
REMARK VINA RESULT:      -4.9      1.869      2.606
REMARK  Name = 
REMARK  5 active torsions:
REMARK  status: ('A' for Active; 'I' for Inactive)
REMARK    1  A    between atoms: O_1  and  C_2
REMARK    2  A    between atoms: C_2  and  C_4
REMARK    3  A    between atoms: C_4  and  C_6
REMARK    4  A    between atoms: C_6  and  C_7
REMARK    5  A    between atoms: C_10  and  O_11
REMARK                            x       y       z     vdW  Elec       q    Type
REMARK                         _______ _______ _______ _____ _____    ______ ____
ROOT
ATOM      1  C   UNL     1       9.947  -0.491  23.059  0.00  0.00    -0.039 A 
ATOM      2  C   UNL     1       9.704   0.254  21.897  0.00  0.00    +0.007 A 
ATOM      3  C   UNL     1       9.939   1.630  21.877  0.00  0.00    +0.045 A 
ATOM      4  C   UNL     1      10.409   2.265  23.019  0.00  0.00    +0.117 A 
ATOM      5  C   UNL     1      10.650   1.547  24.186  0.00  0.00    +0.045 A 
ATOM      6  C   UNL     1      10.417   0.169  24.205  0.00  0.00    +0.007 A 
ENDROOT
BRANCH   4   7
ATOM      7  O   UNL     1      10.620   3.610  22.956  0.00  0.00    -0.507 OA
ATOM      8  H   UNL     1      11.449   3.771  22.476  0.00  0.00    +0.292 HD
ENDBRANCH   4   7
BRANCH   1   9
ATOM      9  C   UNL     1       9.685  -1.977  23.084  0.00  0.00    +0.121 C 
BRANCH   9  10
ATOM     10  C   UNL     1       8.234  -2.342  22.898  0.00  0.00    +0.243 C 
ATOM     11  O   UNL     1       7.754  -3.129  22.087  0.00  0.00    -0.285 OA
BRANCH  10  12
ATOM     12  C   UNL     1       7.253  -1.641  23.827  0.00  0.00    +0.373 C 
ATOM     13  O   UNL     1       7.288  -1.746  25.036  0.00  0.00    -0.242 OA
BRANCH  12  14
ATOM     14  O   UNL     1       6.372  -0.908  23.120  0.00  0.00    -0.475 OA
ATOM     15  H   UNL     1       5.712  -0.513  23.740  0.00  0.00    +0.295 HD
ENDBRANCH  12  14
ENDBRANCH  10  12
ENDBRANCH   9  10
ENDBRANCH   1   9
TORSDOF 5
ENDMDL
MODEL 6
REMARK VINA RESULT:      -4.8      2.128      5.536
REMARK  Name = 
REMARK  5 active torsions:
REMARK  status: ('A' for Active; 'I' for Inactive)
REMARK    1  A    between atoms: O_1  and  C_2
REMARK    2  A    between atoms: C_2  and  C_4
REMARK    3  A    between atoms: C_4  and  C_6
REMARK    4  A    between atoms: C_6  and  C_7
REMARK    5  A    between atoms: C_10  and  O_11
REMARK                            x       y       z     vdW  Elec       q    Type
REMARK                         _______ _______ _______ _____ _____    ______ ____
ROOT
ATOM      1  C   UNL     1       8.142  -3.280  24.153  0.00  0.00    -0.039 A 
ATOM      2  C   UNL     1       6.937  -3.565  24.810  0.00  0.00    +0.007 A 
ATOM      3  C   UNL     1       6.918  -4.419  25.914  0.00  0.00    +0.045 A 
ATOM      4  C   UNL     1       8.101  -4.996  26.359  0.00  0.00    +0.117 A 
ATOM      5  C   UNL     1       9.307  -4.733  25.718  0.00  0.00    +0.045 A 
ATOM      6  C   UNL     1       9.327  -3.876  24.614  0.00  0.00    +0.007 A 
ENDROOT
BRANCH   4   7
ATOM      7  O   UNL     1       8.036  -5.826  27.438  0.00  0.00    -0.507 OA
ATOM      8  H   UNL     1       7.573  -6.639  27.175  0.00  0.00    +0.292 HD
ENDBRANCH   4   7
BRANCH   1   9
ATOM      9  C   UNL     1       8.162  -2.364  22.954  0.00  0.00    +0.121 C 
BRANCH   9  10
ATOM     10  C   UNL     1       8.869  -1.056  23.198  0.00  0.00    +0.243 C 
ATOM     11  O   UNL     1       8.801  -0.337  24.192  0.00  0.00    -0.285 OA
BRANCH  10  12
ATOM     12  C   UNL     1       9.767  -0.570  22.069  0.00  0.00    +0.373 C 
ATOM     13  O   UNL     1       9.900   0.602  21.781  0.00  0.00    -0.242 OA
BRANCH  12  14
ATOM     14  O   UNL     1      10.372  -1.609  21.463  0.00  0.00    -0.475 OA
ATOM     15  H   UNL     1      10.876  -1.276  20.680  0.00  0.00    +0.295 HD
ENDBRANCH  12  14
ENDBRANCH  10  12
ENDBRANCH   9  10
ENDBRANCH   1   9
TORSDOF 5
ENDMDL
MODEL 7
REMARK VINA RESULT:      -4.8      1.868      5.709
REMARK  Name = 
REMARK  5 active torsions:
REMARK  status: ('A' for Active; 'I' for Inactive)
REMARK    1  A    between atoms: O_1  and  C_2
REMARK    2  A    between atoms: C_2  and  C_4
REMARK    3  A    between atoms: C_4  and  C_6
REMARK    4  A    between atoms: C_6  and  C_7
REMARK    5  A    between atoms: C_10  and  O_11
REMARK                            x       y       z     vdW  Elec       q    Type
REMARK                         _______ _______ _______ _____ _____    ______ ____
ROOT
ATOM      1  C   UNL     1       8.287  -2.689  23.935  0.00  0.00    -0.039 A 
ATOM      2  C   UNL     1       8.580  -2.460  25.286  0.00  0.00    +0.007 A 
ATOM      3  C   UNL     1       8.604  -3.520  26.194  0.00  0.00    +0.045 A 
ATOM      4  C   UNL     1       8.328  -4.809  25.756  0.00  0.00    +0.117 A 
ATOM      5  C   UNL     1       8.028  -5.059  24.421  0.00  0.00    +0.045 A 
ATOM      6  C   UNL     1       8.006  -3.998  23.511  0.00  0.00    +0.007 A 
ENDROOT
BRANCH   4   7
ATOM      7  O   UNL     1       8.359  -5.813  26.677  0.00  0.00    -0.507 OA
ATOM      8  H   UNL     1       8.384  -5.418  27.564  0.00  0.00    +0.292 HD
ENDBRANCH   4   7
BRANCH   1   9
ATOM      9  C   UNL     1       8.252  -1.543  22.954  0.00  0.00    +0.121 C 
BRANCH   9  10
ATOM     10  C   UNL     1       9.613  -1.113  22.470  0.00  0.00    +0.243 C 
ATOM     11  O   UNL     1      10.601  -1.818  22.277  0.00  0.00    -0.285 OA
BRANCH  10  12
ATOM     12  C   UNL     1       9.777   0.376  22.198  0.00  0.00    +0.373 C 
ATOM     13  O   UNL     1      10.364   1.129  22.947  0.00  0.00    -0.242 OA
BRANCH  12  14
ATOM     14  O   UNL     1       9.191   0.713  21.033  0.00  0.00    -0.475 OA
ATOM     15  H   UNL     1       8.220   0.821  21.181  0.00  0.00    +0.295 HD
ENDBRANCH  12  14
ENDBRANCH  10  12
ENDBRANCH   9  10
ENDBRANCH   1   9
TORSDOF 5
ENDMDL
MODEL 8
REMARK VINA RESULT:      -4.7      2.888      4.418
REMARK  Name = 
REMARK  5 active torsions:
REMARK  status: ('A' for Active; 'I' for Inactive)
REMARK    1  A    between atoms: O_1  and  C_2
REMARK    2  A    between atoms: C_2  and  C_4
REMARK    3  A    between atoms: C_4  and  C_6
REMARK    4  A    between atoms: C_6  and  C_7
REMARK    5  A    between atoms: C_10  and  O_11
REMARK                            x       y       z     vdW  Elec       q    Type
REMARK                         _______ _______ _______ _____ _____    ______ ____
ROOT
ATOM      1  C   UNL     1       7.375  -4.828  22.951  0.00  0.00    -0.039 A 
ATOM      2  C   UNL     1       7.405  -3.601  22.274  0.00  0.00    +0.007 A 
ATOM      3  C   UNL     1       8.259  -2.581  22.697  0.00  0.00    +0.045 A 
ATOM      4  C   UNL     1       9.077  -2.781  23.802  0.00  0.00    +0.117 A 
ATOM      5  C   UNL     1       9.058  -3.987  24.493  0.00  0.00    +0.045 A 
ATOM      6  C   UNL     1       8.205  -5.010  24.069  0.00  0.00    +0.007 A 
ENDROOT
BRANCH   4   7
ATOM      7  O   UNL     1       9.892  -1.756  24.182  0.00  0.00    -0.507 OA
ATOM      8  H   UNL     1      10.631  -2.123  24.694  0.00  0.00    +0.292 HD
ENDBRANCH   4   7
BRANCH   1   9
ATOM      9  C   UNL     1       6.446  -5.928  22.500  0.00  0.00    +0.121 C 
BRANCH   9  10
ATOM     10  C   UNL     1       5.047  -5.807  23.049  0.00  0.00    +0.243 C 
ATOM     11  O   UNL     1       4.128  -5.115  22.621  0.00  0.00    -0.285 OA
BRANCH  10  12
ATOM     12  C   UNL     1       4.750  -6.641  24.288  0.00  0.00    +0.373 C 
ATOM     13  O   UNL     1       5.155  -6.355  25.396  0.00  0.00    -0.242 OA
BRANCH  12  14
ATOM     14  O   UNL     1       3.990  -7.707  23.972  0.00  0.00    -0.475 OA
ATOM     15  H   UNL     1       3.053  -7.519  24.221  0.00  0.00    +0.295 HD
ENDBRANCH  12  14
ENDBRANCH  10  12
ENDBRANCH   9  10
ENDBRANCH   1   9
TORSDOF 5
ENDMDL
MODEL 9
REMARK VINA RESULT:      -4.7      2.521      5.314
REMARK  Name = 
REMARK  5 active torsions:
REMARK  status: ('A' for Active; 'I' for Inactive)
REMARK    1  A    between atoms: O_1  and  C_2
REMARK    2  A    between atoms: C_2  and  C_4
REMARK    3  A    between atoms: C_4  and  C_6
REMARK    4  A    between atoms: C_6  and  C_7
REMARK    5  A    between atoms: C_10  and  O_11
REMARK                            x       y       z     vdW  Elec       q    Type
REMARK                         _______ _______ _______ _____ _____    ______ ____
ROOT
ATOM      1  C   UNL     1       7.500  -3.099  23.303  0.00  0.00    -0.039 A 
ATOM      2  C   UNL     1       6.443  -2.892  22.405  0.00  0.00    +0.007 A 
ATOM      3  C   UNL     1       5.851  -3.972  21.749  0.00  0.00    +0.045 A 
ATOM      4  C   UNL     1       6.319  -5.260  21.981  0.00  0.00    +0.117 A 
ATOM      5  C   UNL     1       7.371  -5.487  22.862  0.00  0.00    +0.045 A 
ATOM      6  C   UNL     1       7.962  -4.406  23.521  0.00  0.00    +0.007 A 
ENDROOT
BRANCH   4   7
ATOM      7  O   UNL     1       5.714  -6.284  21.316  0.00  0.00    -0.507 OA
ATOM      8  H   UNL     1       4.852  -6.455  21.729  0.00  0.00    +0.292 HD
ENDBRANCH   4   7
BRANCH   1   9
ATOM      9  C   UNL     1       8.146  -1.931  24.006  0.00  0.00    +0.121 C 
BRANCH   9  10
ATOM     10  C   UNL     1       8.625  -0.848  23.073  0.00  0.00    +0.243 C 
ATOM     11  O   UNL     1       8.212   0.305  22.983  0.00  0.00    -0.285 OA
BRANCH  10  12
ATOM     12  C   UNL     1       9.752  -1.242  22.127  0.00  0.00    +0.373 C 
ATOM     13  O   UNL     1      10.709  -1.904  22.472  0.00  0.00    -0.242 OA
BRANCH  12  14
ATOM     14  O   UNL     1       9.523  -0.760  20.891  0.00  0.00    -0.475 OA
ATOM     15  H   UNL     1       9.112  -1.470  20.340  0.00  0.00    +0.295 HD
ENDBRANCH  12  14
ENDBRANCH  10  12
ENDBRANCH   9  10
ENDBRANCH   1   9
TORSDOF 5
ENDMDL
