MODEL 1
REMARK VINA RESULT:      -7.8      0.000      0.000
REMARK  Name = 
REMARK  5 active torsions:
REMARK  status: ('A' for Active; 'I' for Inactive)
REMARK    1  A    between atoms: N_5  and  C_6
REMARK    2  A    between atoms: C_6  and  C_7
REMARK    3  A    between atoms: C_7  and  C_8
REMARK    4  A    between atoms: C_11  and  O_12
REMARK    5  A    between atoms: C_18  and  C_21
REMARK                            x       y       z     vdW  Elec       q    Type
REMARK                         _______ _______ _______ _____ _____    ______ ____
ROOT
ATOM      1  N   UNL     1       9.029  -0.399  26.060  0.00  0.00    -0.327 N 
ATOM      2  H   UNL     1       9.218   0.452  26.583  0.00  0.00    +0.145 HD
ATOM      3  H   UNL     1       8.429  -1.092  26.489  0.00  0.00    +0.145 HD
ATOM      4  C   UNL     1       9.047  -0.349  24.690  0.00  0.00    +0.220 A 
ATOM      5  N   UNL     1       9.612   0.749  24.042  0.00  0.00    -0.164 N 
ATOM      6  C   UNL     1       9.653   0.794  22.679  0.00  0.00    +0.259 A 
ATOM      7  N   UNL     1      10.191   1.931  22.322  0.00  0.00    -0.186 NA
ATOM      8  C   UNL     1      10.466   2.561  23.519  0.00  0.00    +0.219 A 
ATOM      9  N   UNL     1       9.181  -0.232  21.940  0.00  0.00    -0.177 NA
ATOM     10  C   UNL     1       8.649  -1.233  22.591  0.00  0.00    +0.221 A 
ATOM     11  N   UNL     1       8.186  -2.268  21.828  0.00  0.00    -0.313 N 
ATOM     12  H   UNL     1       8.276  -2.059  20.839  0.00  0.00    +0.149 HD
ATOM     13  N   UNL     1      10.118   1.864  24.618  0.00  0.00    -0.137 NA
ATOM     14  N   UNL     1       8.545  -1.306  23.964  0.00  0.00    -0.181 NA
ENDROOT
BRANCH   8  15
ATOM     15  C   UNL     1      11.103   3.917  23.514  0.00  0.00    +0.173 A 
ATOM     16  O   UNL     1      12.390   4.233  23.168  0.00  0.00    -0.460 OA
ATOM     17  C   UNL     1      12.524   5.580  23.307  0.00  0.00    +0.196 A 
ATOM     18  C   UNL     1      11.350   6.146  23.740  0.00  0.00    +0.042 A 
ATOM     19  C   UNL     1      10.435   5.078  23.874  0.00  0.00    +0.053 A 
ENDBRANCH   8  15
BRANCH  11  20
ATOM     20  C   UNL     1       7.008  -3.039  22.192  0.00  0.00    +0.109 C 
BRANCH  20  21
ATOM     21  C   UNL     1       7.390  -4.507  22.444  0.00  0.00    +0.054 C 
BRANCH  21  22
ATOM     22  C   UNL     1       7.453  -4.839  23.916  0.00  0.00    -0.046 A 
ATOM     23  C   UNL     1       6.289  -5.214  24.600  0.00  0.00    +0.007 A 
ATOM     24  C   UNL     1       6.343  -5.569  25.949  0.00  0.00    +0.045 A 
ATOM     25  C   UNL     1       7.561  -5.554  26.616  0.00  0.00    +0.117 A 
ATOM     26  C   UNL     1       8.726  -5.167  25.962  0.00  0.00    +0.045 A 
ATOM     27  C   UNL     1       8.672  -4.810  24.612  0.00  0.00    +0.007 A 
BRANCH  25  28
ATOM     28  O   UNL     1       7.572  -5.940  27.924  0.00  0.00    -0.507 OA
ATOM     29  H   UNL     1       7.077  -5.286  28.444  0.00  0.00    +0.292 HD
ENDBRANCH  25  28
ENDBRANCH  21  22
ENDBRANCH  20  21
ENDBRANCH  11  20
TORSDOF 5
ENDMDL
MODEL 2
REMARK VINA RESULT:      -7.8      3.623      9.643
REMARK  Name = 
REMARK  5 active torsions:
REMARK  status: ('A' for Active; 'I' for Inactive)
REMARK    1  A    between atoms: N_5  and  C_6
REMARK    2  A    between atoms: C_6  and  C_7
REMARK    3  A    between atoms: C_7  and  C_8
REMARK    4  A    between atoms: C_11  and  O_12
REMARK    5  A    between atoms: C_18  and  C_21
REMARK                            x       y       z     vdW  Elec       q    Type
REMARK                         _______ _______ _______ _____ _____    ______ ____
ROOT
ATOM      1  N   UNL     1       7.564  -5.979  27.122  0.00  0.00    -0.327 N 
ATOM      2  H   UNL     1       7.099  -6.860  27.322  0.00  0.00    +0.145 HD
ATOM      3  H   UNL     1       8.505  -5.853  27.471  0.00  0.00    +0.145 HD
ATOM      4  C   UNL     1       7.221  -5.296  25.984  0.00  0.00    +0.220 A 
ATOM      5  N   UNL     1       6.059  -5.637  25.292  0.00  0.00    -0.164 N 
ATOM      6  C   UNL     1       5.701  -4.946  24.172  0.00  0.00    +0.259 A 
ATOM      7  N   UNL     1       4.607  -5.479  23.693  0.00  0.00    -0.186 NA
ATOM      8  C   UNL     1       4.328  -6.512  24.566  0.00  0.00    +0.219 A 
ATOM      9  N   UNL     1       6.442  -3.906  23.736  0.00  0.00    -0.177 NA
ATOM     10  C   UNL     1       7.528  -3.632  24.409  0.00  0.00    +0.221 A 
ATOM     11  N   UNL     1       8.262  -2.569  23.960  0.00  0.00    -0.313 N 
ATOM     12  H   UNL     1       7.864  -2.187  23.109  0.00  0.00    +0.149 HD
ATOM     13  N   UNL     1       5.209  -6.651  25.575  0.00  0.00    -0.137 NA
ATOM     14  N   UNL     1       7.956  -4.327  25.521  0.00  0.00    -0.181 NA
ENDROOT
BRANCH   8  15
ATOM     15  C   UNL     1       3.121  -7.369  24.339  0.00  0.00    +0.173 A 
ATOM     16  O   UNL     1       2.809  -8.550  24.960  0.00  0.00    -0.460 OA
ATOM     17  C   UNL     1       1.621  -8.971  24.446  0.00  0.00    +0.196 A 
ATOM     18  C   UNL     1       1.156  -8.089  23.501  0.00  0.00    +0.042 A 
ATOM     19  C   UNL     1       2.120  -7.058  23.432  0.00  0.00    +0.053 A 
ENDBRANCH   8  15
BRANCH  11  20
ATOM     20  C   UNL     1       9.714  -2.536  24.034  0.00  0.00    +0.109 C 
BRANCH  20  21
ATOM     21  C   UNL     1      10.295  -1.851  22.786  0.00  0.00    +0.054 C 
BRANCH  21  22
ATOM     22  C   UNL     1      10.226  -0.345  22.876  0.00  0.00    -0.046 A 
ATOM     23  C   UNL     1      10.669   0.310  24.034  0.00  0.00    +0.007 A 
ATOM     24  C   UNL     1      10.654   1.703  24.108  0.00  0.00    +0.045 A 
ATOM     25  C   UNL     1      10.203   2.447  23.026  0.00  0.00    +0.117 A 
ATOM     26  C   UNL     1       9.742   1.818  21.874  0.00  0.00    +0.045 A 
ATOM     27  C   UNL     1       9.754   0.422  21.799  0.00  0.00    +0.007 A 
BRANCH  25  28
ATOM     28  O   UNL     1      10.238   3.805  23.131  0.00  0.00    -0.507 OA
ATOM     29  H   UNL     1      11.121   4.114  22.866  0.00  0.00    +0.292 HD
ENDBRANCH  25  28
ENDBRANCH  21  22
ENDBRANCH  20  21
ENDBRANCH  11  20
TORSDOF 5
ENDMDL
MODEL 3
REMARK VINA RESULT:      -7.8      1.881      3.113
REMARK  Name = 
REMARK  5 active torsions:
REMARK  status: ('A' for Active; 'I' for Inactive)
REMARK    1  A    between atoms: N_5  and  C_6
REMARK    2  A    between atoms: C_6  and  C_7
REMARK    3  A    between atoms: C_7  and  C_8
REMARK    4  A    between atoms: C_11  and  O_12
REMARK    5  A    between atoms: C_18  and  C_21
REMARK                            x       y       z     vdW  Elec       q    Type
REMARK                         _______ _______ _______ _____ _____    ______ ____
ROOT
ATOM      1  N   UNL     1       9.762  -1.225  21.395  0.00  0.00    -0.327 N 
ATOM      2  H   UNL     1      10.269  -0.529  20.857  0.00  0.00    +0.145 HD
ATOM      3  H   UNL     1       9.801  -2.186  21.079  0.00  0.00    +0.145 HD
ATOM      4  C   UNL     1       9.577  -1.015  22.737  0.00  0.00    +0.220 A 
ATOM      5  N   UNL     1       9.800   0.251  23.280  0.00  0.00    -0.164 N 
ATOM      6  C   UNL     1       9.596   0.472  24.610  0.00  0.00    +0.259 A 
ATOM      7  N   UNL     1       9.908   1.714  24.873  0.00  0.00    -0.186 NA
ATOM      8  C   UNL     1      10.307   2.223  23.652  0.00  0.00    +0.219 A 
ATOM      9  N   UNL     1       9.145  -0.515  25.413  0.00  0.00    -0.177 NA
ATOM     10  C   UNL     1       8.963  -1.687  24.863  0.00  0.00    +0.221 A 
ATOM     11  N   UNL     1       8.496  -2.672  25.687  0.00  0.00    -0.313 N 
ATOM     12  H   UNL     1       8.422  -2.340  26.643  0.00  0.00    +0.149 HD
ATOM     13  N   UNL     1      10.261   1.346  22.632  0.00  0.00    -0.137 NA
ATOM     14  N   UNL     1       9.196  -1.971  23.534  0.00  0.00    -0.181 NA
ENDROOT
BRANCH   8  15
ATOM     15  C   UNL     1      10.746   3.652  23.553  0.00  0.00    +0.173 A 
ATOM     16  O   UNL     1      11.990   4.120  23.219  0.00  0.00    -0.460 OA
ATOM     17  C   UNL     1      11.928   5.479  23.250  0.00  0.00    +0.196 A 
ATOM     18  C   UNL     1      10.670   5.904  23.600  0.00  0.00    +0.042 A 
ATOM     19  C   UNL     1       9.909   4.729  23.796  0.00  0.00    +0.053 A 
ENDBRANCH   8  15
BRANCH  11  20
ATOM     20  C   UNL     1       8.896  -4.063  25.544  0.00  0.00    +0.109 C 
BRANCH  20  21
ATOM     21  C   UNL     1       7.673  -4.985  25.681  0.00  0.00    +0.054 C 
BRANCH  21  22
ATOM     22  C   UNL     1       7.037  -5.294  24.346  0.00  0.00    -0.046 A 
ATOM     23  C   UNL     1       7.821  -5.321  23.185  0.00  0.00    +0.007 A 
ATOM     24  C   UNL     1       7.252  -5.652  21.954  0.00  0.00    +0.045 A 
ATOM     25  C   UNL     1       5.900  -5.962  21.881  0.00  0.00    +0.117 A 
ATOM     26  C   UNL     1       5.099  -5.923  23.017  0.00  0.00    +0.045 A 
ATOM     27  C   UNL     1       5.668  -5.589  24.250  0.00  0.00    +0.007 A 
BRANCH  25  28
ATOM     28  O   UNL     1       5.396  -6.312  20.664  0.00  0.00    -0.507 OA
ATOM     29  H   UNL     1       4.864  -5.572  20.324  0.00  0.00    +0.292 HD
ENDBRANCH  25  28
ENDBRANCH  21  22
ENDBRANCH  20  21
ENDBRANCH  11  20
TORSDOF 5
ENDMDL
MODEL 4
REMARK VINA RESULT:      -7.2      2.511      8.609
REMARK  Name = 
REMARK  5 active torsions:
REMARK  status: ('A' for Active; 'I' for Inactive)
REMARK    1  A    between atoms: N_5  and  C_6
REMARK    2  A    between atoms: C_6  and  C_7
REMARK    3  A    between atoms: C_7  and  C_8
REMARK    4  A    between atoms: C_11  and  O_12
REMARK    5  A    between atoms: C_18  and  C_21
REMARK                            x       y       z     vdW  Elec       q    Type
REMARK                         _______ _______ _______ _____ _____    ______ ____
ROOT
ATOM      1  N   UNL     1       5.633  -2.614  22.537  0.00  0.00    -0.327 N 
ATOM      2  H   UNL     1       4.839  -2.936  23.083  0.00  0.00    +0.145 HD
ATOM      3  H   UNL     1       5.474  -1.881  21.858  0.00  0.00    +0.145 HD
ATOM      4  C   UNL     1       6.886  -2.696  23.087  0.00  0.00    +0.220 A 
ATOM      5  N   UNL     1       7.098  -3.478  24.223  0.00  0.00    -0.164 N 
ATOM      6  C   UNL     1       8.347  -3.581  24.761  0.00  0.00    +0.259 A 
ATOM      7  N   UNL     1       8.274  -4.332  25.828  0.00  0.00    -0.186 NA
ATOM      8  C   UNL     1       6.937  -4.670  25.908  0.00  0.00    +0.219 A 
ATOM      9  N   UNL     1       9.399  -2.958  24.188  0.00  0.00    -0.177 NA
ATOM     10  C   UNL     1       9.150  -2.226  23.134  0.00  0.00    +0.221 A 
ATOM     11  N   UNL     1      10.228  -1.611  22.561  0.00  0.00    -0.313 N 
ATOM     12  H   UNL     1      11.070  -1.778  23.101  0.00  0.00    +0.149 HD
ATOM     13  N   UNL     1       6.166  -4.156  24.930  0.00  0.00    -0.137 NA
ATOM     14  N   UNL     1       7.899  -2.056  22.578  0.00  0.00    -0.181 NA
ENDROOT
BRANCH   8  15
ATOM     15  C   UNL     1       6.459  -5.544  27.026  0.00  0.00    +0.173 A 
ATOM     16  O   UNL     1       7.119  -5.848  28.187  0.00  0.00    -0.460 OA
ATOM     17  C   UNL     1       6.305  -6.667  28.909  0.00  0.00    +0.196 A 
ATOM     18  C   UNL     1       5.130  -6.904  28.238  0.00  0.00    +0.042 A 
ATOM     19  C   UNL     1       5.228  -6.182  27.026  0.00  0.00    +0.053 A 
ENDBRANCH   8  15
BRANCH  11  20
ATOM     20  C   UNL     1      10.139  -0.299  21.941  0.00  0.00    +0.109 C 
BRANCH  20  21
ATOM     21  C   UNL     1      10.208   0.801  23.013  0.00  0.00    +0.054 C 
BRANCH  21  22
ATOM     22  C   UNL     1       9.223   1.916  22.754  0.00  0.00    -0.046 A 
ATOM     23  C   UNL     1       8.166   1.723  21.853  0.00  0.00    +0.007 A 
ATOM     24  C   UNL     1       7.223   2.729  21.642  0.00  0.00    +0.045 A 
ATOM     25  C   UNL     1       7.329   3.929  22.333  0.00  0.00    +0.117 A 
ATOM     26  C   UNL     1       8.380   4.150  23.217  0.00  0.00    +0.045 A 
ATOM     27  C   UNL     1       9.327   3.143  23.427  0.00  0.00    +0.007 A 
BRANCH  25  28
ATOM     28  O   UNL     1       6.366   4.871  22.120  0.00  0.00    -0.507 OA
ATOM     29  H   UNL     1       6.341   5.467  22.887  0.00  0.00    +0.292 HD
ENDBRANCH  25  28
ENDBRANCH  21  22
ENDBRANCH  20  21
ENDBRANCH  11  20
TORSDOF 5
ENDMDL
MODEL 5
REMARK VINA RESULT:      -7.0      2.649      7.774
REMARK  Name = 
REMARK  5 active torsions:
REMARK  status: ('A' for Active; 'I' for Inactive)
REMARK    1  A    between atoms: N_5  and  C_6
REMARK    2  A    between atoms: C_6  and  C_7
REMARK    3  A    between atoms: C_7  and  C_8
REMARK    4  A    between atoms: C_11  and  O_12
REMARK    5  A    between atoms: C_18  and  C_21
REMARK                            x       y       z     vdW  Elec       q    Type
REMARK                         _______ _______ _______ _____ _____    ______ ____
ROOT
ATOM      1  N   UNL     1       9.467  -1.241  21.274  0.00  0.00    -0.327 N 
ATOM      2  H   UNL     1       8.861  -2.052  21.185  0.00  0.00    +0.145 HD
ATOM      3  H   UNL     1       9.556  -0.630  20.473  0.00  0.00    +0.145 HD
ATOM      4  C   UNL     1       9.639  -0.680  22.512  0.00  0.00    +0.220 A 
ATOM      5  N   UNL     1       9.251  -1.381  23.654  0.00  0.00    -0.164 N 
ATOM      6  C   UNL     1       9.440  -0.837  24.890  0.00  0.00    +0.259 A 
ATOM      7  N   UNL     1       8.963  -1.666  25.782  0.00  0.00    -0.186 NA
ATOM      8  C   UNL     1       8.482  -2.721  25.032  0.00  0.00    +0.219 A 
ATOM      9  N   UNL     1      10.033   0.368  25.031  0.00  0.00    -0.177 NA
ATOM     10  C   UNL     1      10.368   0.993  23.933  0.00  0.00    +0.221 A 
ATOM     11  N   UNL     1      10.977   2.206  24.093  0.00  0.00    -0.313 N 
ATOM     12  H   UNL     1      11.018   2.465  25.074  0.00  0.00    +0.149 HD
ATOM     13  N   UNL     1       8.635  -2.585  23.701  0.00  0.00    -0.137 NA
ATOM     14  N   UNL     1      10.158   0.505  22.660  0.00  0.00    -0.181 NA
ENDROOT
BRANCH   8  15
ATOM     15  C   UNL     1       7.848  -3.891  25.721  0.00  0.00    +0.173 A 
ATOM     16  O   UNL     1       8.163  -4.405  26.951  0.00  0.00    -0.460 OA
ATOM     17  C   UNL     1       7.328  -5.457  27.171  0.00  0.00    +0.196 A 
ATOM     18  C   UNL     1       6.480  -5.640  26.107  0.00  0.00    +0.042 A 
ATOM     19  C   UNL     1       6.813  -4.633  25.173  0.00  0.00    +0.053 A 
ENDBRANCH   8  15
BRANCH  11  20
ATOM     20  C   UNL     1      10.771   3.310  23.170  0.00  0.00    +0.109 C 
BRANCH  20  21
ATOM     21  C   UNL     1       9.709   4.275  23.722  0.00  0.00    +0.054 C 
BRANCH  21  22
ATOM     22  C   UNL     1       8.316   3.699  23.643  0.00  0.00    -0.046 A 
ATOM     23  C   UNL     1       7.617   3.391  24.819  0.00  0.00    +0.007 A 
ATOM     24  C   UNL     1       6.311   2.903  24.759  0.00  0.00    +0.045 A 
ATOM     25  C   UNL     1       5.697   2.725  23.525  0.00  0.00    +0.117 A 
ATOM     26  C   UNL     1       6.378   3.007  22.345  0.00  0.00    +0.045 A 
ATOM     27  C   UNL     1       7.687   3.494  22.405  0.00  0.00    +0.007 A 
BRANCH  25  28
ATOM     28  O   UNL     1       4.410   2.278  23.516  0.00  0.00    -0.507 OA
ATOM     29  H   UNL     1       3.992   2.519  24.360  0.00  0.00    +0.292 HD
ENDBRANCH  25  28
ENDBRANCH  21  22
ENDBRANCH  20  21
ENDBRANCH  11  20
TORSDOF 5
ENDMDL
MODEL 6
REMARK VINA RESULT:      -7.0      1.521      2.674
REMARK  Name = 
REMARK  5 active torsions:
REMARK  status: ('A' for Active; 'I' for Inactive)
REMARK    1  A    between atoms: N_5  and  C_6
REMARK    2  A    between atoms: C_6  and  C_7
REMARK    3  A    between atoms: C_7  and  C_8
REMARK    4  A    between atoms: C_11  and  O_12
REMARK    5  A    between atoms: C_18  and  C_21
REMARK                            x       y       z     vdW  Elec       q    Type
REMARK                         _______ _______ _______ _____ _____    ______ ____
ROOT
ATOM      1  N   UNL     1       9.656  -1.005  21.155  0.00  0.00    -0.327 N 
ATOM      2  H   UNL     1      10.292  -0.343  20.719  0.00  0.00    +0.145 HD
ATOM      3  H   UNL     1       9.662  -1.958  20.815  0.00  0.00    +0.145 HD
ATOM      4  C   UNL     1       9.295  -0.809  22.463  0.00  0.00    +0.220 A 
ATOM      5  N   UNL     1       9.540   0.420  23.076  0.00  0.00    -0.164 N 
ATOM      6  C   UNL     1       9.163   0.627  24.370  0.00  0.00    +0.259 A 
ATOM      7  N   UNL     1       9.534   1.832  24.718  0.00  0.00    -0.186 NA
ATOM      8  C   UNL     1      10.148   2.332  23.586  0.00  0.00    +0.219 A 
ATOM      9  N   UNL     1       8.520  -0.335  25.064  0.00  0.00    -0.177 NA
ATOM     10  C   UNL     1       8.324  -1.473  24.454  0.00  0.00    +0.221 A 
ATOM     11  N   UNL     1       7.662  -2.433  25.168  0.00  0.00    -0.313 N 
ATOM     12  H   UNL     1       7.477  -2.118  26.114  0.00  0.00    +0.149 HD
ATOM     13  N   UNL     1      10.179   1.485  22.539  0.00  0.00    -0.137 NA
ATOM     14  N   UNL     1       8.725  -1.747  23.162  0.00  0.00    -0.181 NA
ENDROOT
BRANCH   8  15
ATOM     15  C   UNL     1      10.713   3.719  23.601  0.00  0.00    +0.173 A 
ATOM     16  O   UNL     1      12.016   4.090  23.394  0.00  0.00    -0.460 OA
ATOM     17  C   UNL     1      12.067   5.446  23.494  0.00  0.00    +0.196 A 
ATOM     18  C   UNL     1      10.824   5.964  23.765  0.00  0.00    +0.042 A 
ATOM     19  C   UNL     1       9.952   4.854  23.833  0.00  0.00    +0.053 A 
ENDBRANCH   8  15
BRANCH  11  20
ATOM     20  C   UNL     1       7.962  -3.850  25.035  0.00  0.00    +0.109 C 
BRANCH  20  21
ATOM     21  C   UNL     1       8.078  -4.502  26.422  0.00  0.00    +0.054 C 
BRANCH  21  22
ATOM     22  C   UNL     1       6.823  -5.249  26.809  0.00  0.00    -0.046 A 
ATOM     23  C   UNL     1       5.839  -5.513  25.847  0.00  0.00    +0.007 A 
ATOM     24  C   UNL     1       4.698  -6.244  26.183  0.00  0.00    +0.045 A 
ATOM     25  C   UNL     1       4.540  -6.718  27.479  0.00  0.00    +0.117 A 
ATOM     26  C   UNL     1       5.496  -6.452  28.454  0.00  0.00    +0.045 A 
ATOM     27  C   UNL     1       6.637  -5.718  28.119  0.00  0.00    +0.007 A 
BRANCH  25  28
ATOM     28  O   UNL     1       3.427  -7.455  27.753  0.00  0.00    -0.507 OA
ATOM     29  H   UNL     1       3.703  -8.292  28.161  0.00  0.00    +0.292 HD
ENDBRANCH  25  28
ENDBRANCH  21  22
ENDBRANCH  20  21
ENDBRANCH  11  20
TORSDOF 5
ENDMDL
MODEL 7
REMARK VINA RESULT:      -7.0      2.983      9.100
REMARK  Name = 
REMARK  5 active torsions:
REMARK  status: ('A' for Active; 'I' for Inactive)
REMARK    1  A    between atoms: N_5  and  C_6
REMARK    2  A    between atoms: C_6  and  C_7
REMARK    3  A    between atoms: C_7  and  C_8
REMARK    4  A    between atoms: C_11  and  O_12
REMARK    5  A    between atoms: C_18  and  C_21
REMARK                            x       y       z     vdW  Elec       q    Type
REMARK                         _______ _______ _______ _____ _____    ______ ____
ROOT
ATOM      1  N   UNL     1       9.680  -5.632  25.613  0.00  0.00    -0.327 N 
ATOM      2  H   UNL     1       9.318  -6.565  25.787  0.00  0.00    +0.145 HD
ATOM      3  H   UNL     1      10.671  -5.538  25.429  0.00  0.00    +0.145 HD
ATOM      4  C   UNL     1       8.849  -4.694  25.057  0.00  0.00    +0.220 A 
ATOM      5  N   UNL     1       7.472  -4.918  25.023  0.00  0.00    -0.164 N 
ATOM      6  C   UNL     1       6.638  -3.979  24.492  0.00  0.00    +0.259 A 
ATOM      7  N   UNL     1       5.415  -4.440  24.543  0.00  0.00    -0.186 NA
ATOM      8  C   UNL     1       5.552  -5.687  25.121  0.00  0.00    +0.219 A 
ATOM      9  N   UNL     1       7.124  -2.810  24.024  0.00  0.00    -0.177 NA
ATOM     10  C   UNL     1       8.420  -2.651  24.064  0.00  0.00    +0.221 A 
ATOM     11  N   UNL     1       8.894  -1.457  23.596  0.00  0.00    -0.313 N 
ATOM     12  H   UNL     1       8.141  -0.890  23.221  0.00  0.00    +0.149 HD
ATOM     13  N   UNL     1       6.817  -6.029  25.433  0.00  0.00    -0.137 NA
ATOM     14  N   UNL     1       9.308  -3.587  24.551  0.00  0.00    -0.181 NA
ENDROOT
BRANCH   8  15
ATOM     15  C   UNL     1       4.339  -6.535  25.350  0.00  0.00    +0.173 A 
ATOM     16  O   UNL     1       3.912  -7.598  24.598  0.00  0.00    -0.460 OA
ATOM     17  C   UNL     1       2.774  -8.068  25.178  0.00  0.00    +0.196 A 
ATOM     18  C   UNL     1       2.451  -7.330  26.291  0.00  0.00    +0.042 A 
ATOM     19  C   UNL     1       3.458  -6.343  26.402  0.00  0.00    +0.053 A 
ENDBRANCH   8  15
BRANCH  11  20
ATOM     20  C   UNL     1      10.163  -1.342  22.896  0.00  0.00    +0.109 C 
BRANCH  20  21
ATOM     21  C   UNL     1      10.043  -0.342  21.736  0.00  0.00    +0.054 C 
BRANCH  21  22
ATOM     22  C   UNL     1       9.576   1.018  22.198  0.00  0.00    -0.046 A 
ATOM     23  C   UNL     1       8.391   1.565  21.686  0.00  0.00    +0.007 A 
ATOM     24  C   UNL     1       7.926   2.799  22.142  0.00  0.00    +0.045 A 
ATOM     25  C   UNL     1       8.640   3.489  23.113  0.00  0.00    +0.117 A 
ATOM     26  C   UNL     1       9.828   2.975  23.621  0.00  0.00    +0.045 A 
ATOM     27  C   UNL     1      10.296   1.740  23.163  0.00  0.00    +0.007 A 
BRANCH  25  28
ATOM     28  O   UNL     1       8.130   4.675  23.551  0.00  0.00    -0.507 OA
ATOM     29  H   UNL     1       8.477   4.851  24.442  0.00  0.00    +0.292 HD
ENDBRANCH  25  28
ENDBRANCH  21  22
ENDBRANCH  20  21
ENDBRANCH  11  20
TORSDOF 5
ENDMDL
MODEL 8
REMARK VINA RESULT:      -6.9      2.460      8.732
REMARK  Name = 
REMARK  5 active torsions:
REMARK  status: ('A' for Active; 'I' for Inactive)
REMARK    1  A    between atoms: N_5  and  C_6
REMARK    2  A    between atoms: C_6  and  C_7
REMARK    3  A    between atoms: C_7  and  C_8
REMARK    4  A    between atoms: C_11  and  O_12
REMARK    5  A    between atoms: C_18  and  C_21
REMARK                            x       y       z     vdW  Elec       q    Type
REMARK                         _______ _______ _______ _____ _____    ______ ____
ROOT
ATOM      1  N   UNL     1       9.529  -1.116  21.096  0.00  0.00    -0.327 N 
ATOM      2  H   UNL     1       8.908  -1.909  20.962  0.00  0.00    +0.145 HD
ATOM      3  H   UNL     1       9.659  -0.482  20.319  0.00  0.00    +0.145 HD
ATOM      4  C   UNL     1       9.673  -0.598  22.357  0.00  0.00    +0.220 A 
ATOM      5  N   UNL     1       9.232  -1.326  23.463  0.00  0.00    -0.164 N 
ATOM      6  C   UNL     1       9.393  -0.825  24.721  0.00  0.00    +0.259 A 
ATOM      7  N   UNL     1       8.868  -1.670  25.570  0.00  0.00    -0.186 NA
ATOM      8  C   UNL     1       8.387  -2.690  24.771  0.00  0.00    +0.219 A 
ATOM      9  N   UNL     1      10.008   0.360  24.919  0.00  0.00    -0.177 NA
ATOM     10  C   UNL     1      10.393   1.011  23.854  0.00  0.00    +0.221 A 
ATOM     11  N   UNL     1      11.024   2.204  24.073  0.00  0.00    -0.313 N 
ATOM     12  H   UNL     1      11.039   2.430  25.062  0.00  0.00    +0.149 HD
ATOM     13  N   UNL     1       8.587  -2.515  23.451  0.00  0.00    -0.137 NA
ATOM     14  N   UNL     1      10.214   0.568  22.560  0.00  0.00    -0.181 NA
ENDROOT
BRANCH   8  15
ATOM     15  C   UNL     1       7.704  -3.865  25.401  0.00  0.00    +0.173 A 
ATOM     16  O   UNL     1       6.777  -4.695  24.828  0.00  0.00    -0.460 OA
ATOM     17  C   UNL     1       6.438  -5.623  25.764  0.00  0.00    +0.196 A 
ATOM     18  C   UNL     1       7.125  -5.412  26.934  0.00  0.00    +0.042 A 
ATOM     19  C   UNL     1       7.940  -4.281  26.702  0.00  0.00    +0.053 A 
ENDBRANCH   8  15
BRANCH  11  20
ATOM     20  C   UNL     1      10.874   3.341  23.179  0.00  0.00    +0.109 C 
BRANCH  20  21
ATOM     21  C   UNL     1      10.338   4.558  23.951  0.00  0.00    +0.054 C 
BRANCH  21  22
ATOM     22  C   UNL     1       9.010   5.035  23.416  0.00  0.00    -0.046 A 
ATOM     23  C   UNL     1       8.765   6.408  23.269  0.00  0.00    +0.007 A 
ATOM     24  C   UNL     1       7.559   6.859  22.730  0.00  0.00    +0.045 A 
ATOM     25  C   UNL     1       6.596   5.941  22.333  0.00  0.00    +0.117 A 
ATOM     26  C   UNL     1       6.809   4.575  22.487  0.00  0.00    +0.045 A 
ATOM     27  C   UNL     1       8.016   4.122  23.028  0.00  0.00    +0.007 A 
BRANCH  25  28
ATOM     28  O   UNL     1       5.447   6.425  21.782  0.00  0.00    -0.507 OA
ATOM     29  H   UNL     1       5.259   7.295  22.173  0.00  0.00    +0.292 HD
ENDBRANCH  25  28
ENDBRANCH  21  22
ENDBRANCH  20  21
ENDBRANCH  11  20
TORSDOF 5
ENDMDL
MODEL 9
REMARK VINA RESULT:      -6.9      2.045      2.514
REMARK  Name = 
REMARK  5 active torsions:
REMARK  status: ('A' for Active; 'I' for Inactive)
REMARK    1  A    between atoms: N_5  and  C_6
REMARK    2  A    between atoms: C_6  and  C_7
REMARK    3  A    between atoms: C_7  and  C_8
REMARK    4  A    between atoms: C_11  and  O_12
REMARK    5  A    between atoms: C_18  and  C_21
REMARK                            x       y       z     vdW  Elec       q    Type
REMARK                         _______ _______ _______ _____ _____    ______ ____
ROOT
ATOM      1  N   UNL     1      10.551   0.356  25.519  0.00  0.00    -0.327 N 
ATOM      2  H   UNL     1      10.589   1.278  25.944  0.00  0.00    +0.145 HD
ATOM      3  H   UNL     1      10.771  -0.442  26.102  0.00  0.00    +0.145 HD
ATOM      4  C   UNL     1       9.689   0.147  24.474  0.00  0.00    +0.220 A 
ATOM      5  N   UNL     1       9.118   1.237  23.815  0.00  0.00    -0.164 N 
ATOM      6  C   UNL     1       8.277   1.036  22.760  0.00  0.00    +0.259 A 
ATOM      7  N   UNL     1       7.852   2.201  22.346  0.00  0.00    -0.186 NA
ATOM      8  C   UNL     1       8.468   3.101  23.193  0.00  0.00    +0.219 A 
ATOM      9  N   UNL     1       8.011  -0.211  22.317  0.00  0.00    -0.177 NA
ATOM     10  C   UNL     1       8.558  -1.200  22.973  0.00  0.00    +0.221 A 
ATOM     11  N   UNL     1       8.286  -2.456  22.505  0.00  0.00    -0.313 N 
ATOM     12  H   UNL     1       7.631  -2.420  21.732  0.00  0.00    +0.149 HD
ATOM     13  N   UNL     1       9.262   2.545  24.128  0.00  0.00    -0.137 NA
ATOM     14  N   UNL     1       9.379  -1.051  24.071  0.00  0.00    -0.181 NA
ENDROOT
BRANCH   8  15
ATOM     15  C   UNL     1       8.218   4.568  23.024  0.00  0.00    +0.173 A 
ATOM     16  O   UNL     1       8.938   5.604  23.560  0.00  0.00    -0.460 OA
ATOM     17  C   UNL     1       8.355   6.758  23.136  0.00  0.00    +0.196 A 
ATOM     18  C   UNL     1       7.269   6.494  22.339  0.00  0.00    +0.042 A 
ATOM     19  C   UNL     1       7.179   5.086  22.266  0.00  0.00    +0.053 A 
ENDBRANCH   8  15
BRANCH  11  20
ATOM     20  C   UNL     1       8.143  -3.603  23.387  0.00  0.00    +0.109 C 
BRANCH  20  21
ATOM     21  C   UNL     1       7.106  -4.585  22.818  0.00  0.00    +0.054 C 
BRANCH  21  22
ATOM     22  C   UNL     1       6.365  -5.328  23.905  0.00  0.00    -0.046 A 
ATOM     23  C   UNL     1       6.753  -5.181  25.244  0.00  0.00    +0.007 A 
ATOM     24  C   UNL     1       6.045  -5.825  26.260  0.00  0.00    +0.045 A 
ATOM     25  C   UNL     1       4.946  -6.613  25.943  0.00  0.00    +0.117 A 
ATOM     26  C   UNL     1       4.555  -6.787  24.619  0.00  0.00    +0.045 A 
ATOM     27  C   UNL     1       5.265  -6.145  23.601  0.00  0.00    +0.007 A 
BRANCH  25  28
ATOM     28  O   UNL     1       4.266  -7.195  26.970  0.00  0.00    -0.507 OA
ATOM     29  H   UNL     1       4.541  -6.776  27.802  0.00  0.00    +0.292 HD
ENDBRANCH  25  28
ENDBRANCH  21  22
ENDBRANCH  20  21
ENDBRANCH  11  20
TORSDOF 5
ENDMDL
