MODEL 1
REMARK VINA RESULT:      -5.8      0.000      0.000
REMARK  Name = 
REMARK  4 active torsions:
REMARK  status: ('A' for Active; 'I' for Inactive)
REMARK    1  A    between atoms: C_1  and  C_2
REMARK    2  A    between atoms: N_4  and  S_5
REMARK    3  A    between atoms: S_5  and  C_8
REMARK    4  A    between atoms: C_11  and  N_12
REMARK                            x       y       z     vdW  Elec       q    Type
REMARK                         _______ _______ _______ _____ _____    ______ ____
ROOT
ATOM      1  C   UNL     1       9.223  -1.383  23.340  0.00  0.00    +0.109 A 
ATOM      2  C   UNL     1       9.692  -0.352  24.158  0.00  0.00    +0.030 A 
ATOM      3  C   UNL     1      10.050   0.873  23.587  0.00  0.00    +0.024 A 
ATOM      4  C   UNL     1       9.981   1.066  22.203  0.00  0.00    +0.025 A 
ATOM      5  C   UNL     1       9.434   0.052  21.410  0.00  0.00    +0.024 A 
ATOM      6  C   UNL     1       9.065  -1.175  21.968  0.00  0.00    +0.030 A 
ENDROOT
BRANCH   1   7
ATOM      7  S   UNL     1       8.738  -2.929  24.062  0.00  0.00    +0.074 S 
ATOM      8  O   UNL     1       9.945  -3.695  24.304  0.00  0.00    -0.150 OA
ATOM      9  O   UNL     1       7.792  -2.686  25.125  0.00  0.00    -0.150 OA
BRANCH   7  12
ATOM     10  C   UNL     1       6.724  -5.415  21.602  0.00  0.00    +0.111 C 
ATOM     11  C   UNL     1       7.268  -4.908  22.907  0.00  0.00    +0.229 C 
ATOM     12  N   UNL     1       7.984  -3.710  22.802  0.00  0.00    -0.186 N 
ATOM     13  H   UNL     1       8.120  -3.247  21.910  0.00  0.00    +0.177 HD
ATOM     14  O   UNL     1       7.063  -5.483  23.964  0.00  0.00    -0.275 OA
ENDBRANCH   7  12
ENDBRANCH   1   7
BRANCH   4  15
ATOM     15  N   UNL     1      10.232   2.329  21.658  0.00  0.00    -0.358 N 
ATOM     16  H   UNL     1       9.648   3.069  22.037  0.00  0.00    +0.142 HD
ATOM     17  H   UNL     1      11.215   2.583  21.645  0.00  0.00    +0.142 HD
ENDBRANCH   4  15
TORSDOF 3
ENDMDL
MODEL 2
REMARK VINA RESULT:      -5.5      0.879      1.548
REMARK  Name = 
REMARK  4 active torsions:
REMARK  status: ('A' for Active; 'I' for Inactive)
REMARK    1  A    between atoms: C_1  and  C_2
REMARK    2  A    between atoms: N_4  and  S_5
REMARK    3  A    between atoms: S_5  and  C_8
REMARK    4  A    between atoms: C_11  and  N_12
REMARK                            x       y       z     vdW  Elec       q    Type
REMARK                         _______ _______ _______ _____ _____    ______ ____
ROOT
ATOM      1  C   UNL     1       9.328  -1.358  23.726  0.00  0.00    +0.109 A 
ATOM      2  C   UNL     1       9.372  -1.362  22.329  0.00  0.00    +0.030 A 
ATOM      3  C   UNL     1       9.645  -0.174  21.645  0.00  0.00    +0.024 A 
ATOM      4  C   UNL     1       9.837   1.025  22.339  0.00  0.00    +0.025 A 
ATOM      5  C   UNL     1       9.870   0.994  23.737  0.00  0.00    +0.024 A 
ATOM      6  C   UNL     1       9.605  -0.187  24.434  0.00  0.00    +0.030 A 
ENDROOT
BRANCH   1   7
ATOM      7  S   UNL     1       9.011  -2.868  24.601  0.00  0.00    +0.074 S 
ATOM      8  O   UNL     1      10.090  -3.787  24.291  0.00  0.00    -0.150 OA
ATOM      9  O   UNL     1       8.668  -2.567  25.970  0.00  0.00    -0.150 OA
BRANCH   7  12
ATOM     10  C   UNL     1       5.859  -5.004  23.261  0.00  0.00    +0.111 C 
ATOM     11  C   UNL     1       6.996  -4.649  24.176  0.00  0.00    +0.229 C 
ATOM     12  N   UNL     1       7.686  -3.488  23.810  0.00  0.00    -0.186 N 
ATOM     13  H   UNL     1       7.429  -2.953  22.987  0.00  0.00    +0.177 HD
ATOM     14  O   UNL     1       7.259  -5.307  25.171  0.00  0.00    -0.275 OA
ENDBRANCH   7  12
ENDBRANCH   1   7
BRANCH   4  15
ATOM     15  N   UNL     1      10.223   2.180  21.650  0.00  0.00    -0.358 N 
ATOM     16  H   UNL     1      11.085   2.597  21.988  0.00  0.00    +0.142 HD
ATOM     17  H   UNL     1      10.215   2.078  20.641  0.00  0.00    +0.142 HD
ENDBRANCH   4  15
TORSDOF 3
ENDMDL
MODEL 3
REMARK VINA RESULT:      -5.4      2.180      2.963
REMARK  Name = 
REMARK  4 active torsions:
REMARK  status: ('A' for Active; 'I' for Inactive)
REMARK    1  A    between atoms: C_1  and  C_2
REMARK    2  A    between atoms: N_4  and  S_5
REMARK    3  A    between atoms: S_5  and  C_8
REMARK    4  A    between atoms: C_11  and  N_12
REMARK                            x       y       z     vdW  Elec       q    Type
REMARK                         _______ _______ _______ _____ _____    ______ ____
ROOT
ATOM      1  C   UNL     1       9.585  -0.032  23.144  0.00  0.00    +0.109 A 
ATOM      2  C   UNL     1       9.910   0.723  22.014  0.00  0.00    +0.030 A 
ATOM      3  C   UNL     1      10.000   2.115  22.117  0.00  0.00    +0.024 A 
ATOM      4  C   UNL     1       9.730   2.762  23.328  0.00  0.00    +0.025 A 
ATOM      5  C   UNL     1       9.485   1.986  24.465  0.00  0.00    +0.024 A 
ATOM      6  C   UNL     1       9.400   0.594  24.378  0.00  0.00    +0.030 A 
ENDROOT
BRANCH   1   7
ATOM      7  S   UNL     1       9.499  -1.800  23.026  0.00  0.00    +0.074 S 
ATOM      8  O   UNL     1       8.335  -2.129  22.227  0.00  0.00    -0.150 OA
ATOM      9  O   UNL     1      10.801  -2.322  22.685  0.00  0.00    -0.150 OA
BRANCH   7  12
ATOM     10  C   UNL     1       8.554  -3.708  26.456  0.00  0.00    +0.111 C 
ATOM     11  C   UNL     1       8.972  -3.579  25.018  0.00  0.00    +0.229 C 
ATOM     12  N   UNL     1       9.096  -2.259  24.573  0.00  0.00    -0.186 N 
ATOM     13  H   UNL     1       8.906  -1.471  25.184  0.00  0.00    +0.177 HD
ATOM     14  O   UNL     1       9.214  -4.553  24.322  0.00  0.00    -0.275 OA
ENDBRANCH   7  12
ENDBRANCH   1   7
BRANCH   4  15
ATOM     15  N   UNL     1       9.935   4.141  23.446  0.00  0.00    -0.358 N 
ATOM     16  H   UNL     1       9.783   4.659  22.586  0.00  0.00    +0.142 HD
ATOM     17  H   UNL     1       9.457   4.561  24.237  0.00  0.00    +0.142 HD
ENDBRANCH   4  15
TORSDOF 3
ENDMDL
MODEL 4
REMARK VINA RESULT:      -5.4      1.855      2.541
REMARK  Name = 
REMARK  4 active torsions:
REMARK  status: ('A' for Active; 'I' for Inactive)
REMARK    1  A    between atoms: C_1  and  C_2
REMARK    2  A    between atoms: N_4  and  S_5
REMARK    3  A    between atoms: S_5  and  C_8
REMARK    4  A    between atoms: C_11  and  N_12
REMARK                            x       y       z     vdW  Elec       q    Type
REMARK                         _______ _______ _______ _____ _____    ______ ____
ROOT
ATOM      1  C   UNL     1       9.193  -1.582  23.235  0.00  0.00    +0.109 A 
ATOM      2  C   UNL     1       9.088  -1.324  21.866  0.00  0.00    +0.030 A 
ATOM      3  C   UNL     1       9.416  -0.056  21.375  0.00  0.00    +0.024 A 
ATOM      4  C   UNL     1       9.810   0.968  22.243  0.00  0.00    +0.025 A 
ATOM      5  C   UNL     1       9.986   0.669  23.598  0.00  0.00    +0.024 A 
ATOM      6  C   UNL     1       9.670  -0.596  24.101  0.00  0.00    +0.030 A 
ENDROOT
BRANCH   1   7
ATOM      7  S   UNL     1       8.808  -3.197  23.859  0.00  0.00    +0.074 S 
ATOM      8  O   UNL     1       7.975  -3.859  22.873  0.00  0.00    -0.150 OA
ATOM      9  O   UNL     1      10.013  -3.822  24.348  0.00  0.00    -0.150 OA
BRANCH   7  12
ATOM     10  C   UNL     1       6.252  -3.265  26.982  0.00  0.00    +0.111 C 
ATOM     11  C   UNL     1       7.159  -3.835  25.929  0.00  0.00    +0.229 C 
ATOM     12  N   UNL     1       7.785  -2.872  25.129  0.00  0.00    -0.186 N 
ATOM     13  H   UNL     1       7.618  -1.881  25.261  0.00  0.00    +0.177 HD
ATOM     14  O   UNL     1       7.351  -5.036  25.818  0.00  0.00    -0.275 OA
ENDBRANCH   7  12
ENDBRANCH   1   7
BRANCH   4  15
ATOM     15  N   UNL     1      10.244   2.194  21.729  0.00  0.00    -0.358 N 
ATOM     16  H   UNL     1      11.249   2.331  21.775  0.00  0.00    +0.142 HD
ATOM     17  H   UNL     1       9.868   2.411  20.811  0.00  0.00    +0.142 HD
ENDBRANCH   4  15
TORSDOF 3
ENDMDL
MODEL 5
REMARK VINA RESULT:      -5.3      5.051      7.288
REMARK  Name = 
REMARK  4 active torsions:
REMARK  status: ('A' for Active; 'I' for Inactive)
REMARK    1  A    between atoms: C_1  and  C_2
REMARK    2  A    between atoms: N_4  and  S_5
REMARK    3  A    between atoms: S_5  and  C_8
REMARK    4  A    between atoms: C_11  and  N_12
REMARK                            x       y       z     vdW  Elec       q    Type
REMARK                         _______ _______ _______ _____ _____    ______ ____
ROOT
ATOM      1  C   UNL     1       9.624   2.471  23.139  0.00  0.00    +0.109 A 
ATOM      2  C   UNL     1       8.917   2.152  21.977  0.00  0.00    +0.030 A 
ATOM      3  C   UNL     1       9.002   0.860  21.450  0.00  0.00    +0.024 A 
ATOM      4  C   UNL     1       9.817  -0.106  22.050  0.00  0.00    +0.025 A 
ATOM      5  C   UNL     1      10.453   0.207  23.255  0.00  0.00    +0.024 A 
ATOM      6  C   UNL     1      10.371   1.492  23.798  0.00  0.00    +0.030 A 
ENDROOT
BRANCH   1   7
ATOM      7  S   UNL     1       9.496   4.100  23.830  0.00  0.00    +0.074 S 
ATOM      8  O   UNL     1       8.766   3.989  25.078  0.00  0.00    -0.150 OA
ATOM      9  O   UNL     1      10.786   4.744  23.783  0.00  0.00    -0.150 OA
BRANCH   7  12
ATOM     10  C   UNL     1       7.085   6.636  21.816  0.00  0.00    +0.111 C 
ATOM     11  C   UNL     1       8.087   6.216  22.854  0.00  0.00    +0.229 C 
ATOM     12  N   UNL     1       8.445   4.864  22.791  0.00  0.00    -0.186 N 
ATOM     13  H   UNL     1       8.043   4.239  22.101  0.00  0.00    +0.177 HD
ATOM     14  O   UNL     1       8.564   7.006  23.654  0.00  0.00    -0.275 OA
ENDBRANCH   7  12
ENDBRANCH   1   7
BRANCH   4  15
ATOM     15  N   UNL     1       9.804  -1.423  21.580  0.00  0.00    -0.358 N 
ATOM     16  H   UNL     1      10.147  -1.530  20.631  0.00  0.00    +0.142 HD
ATOM     17  H   UNL     1      10.225  -2.091  22.219  0.00  0.00    +0.142 HD
ENDBRANCH   4  15
TORSDOF 3
ENDMDL
MODEL 6
REMARK VINA RESULT:      -5.2      3.016      5.667
REMARK  Name = 
REMARK  4 active torsions:
REMARK  status: ('A' for Active; 'I' for Inactive)
REMARK    1  A    between atoms: C_1  and  C_2
REMARK    2  A    between atoms: N_4  and  S_5
REMARK    3  A    between atoms: S_5  and  C_8
REMARK    4  A    between atoms: C_11  and  N_12
REMARK                            x       y       z     vdW  Elec       q    Type
REMARK                         _______ _______ _______ _____ _____    ______ ____
ROOT
ATOM      1  C   UNL     1       8.804  -2.938  24.144  0.00  0.00    +0.109 A 
ATOM      2  C   UNL     1       8.918  -2.602  25.495  0.00  0.00    +0.030 A 
ATOM      3  C   UNL     1       8.558  -3.536  26.471  0.00  0.00    +0.024 A 
ATOM      4  C   UNL     1       8.049  -4.788  26.111  0.00  0.00    +0.025 A 
ATOM      5  C   UNL     1       8.017  -5.136  24.757  0.00  0.00    +0.024 A 
ATOM      6  C   UNL     1       8.380  -4.215  23.771  0.00  0.00    +0.030 A 
ENDROOT
BRANCH   1   7
ATOM      7  S   UNL     1       9.288  -1.768  22.902  0.00  0.00    +0.074 S 
ATOM      8  O   UNL     1      10.671  -2.039  22.562  0.00  0.00    -0.150 OA
ATOM      9  O   UNL     1       8.273  -1.710  21.877  0.00  0.00    -0.150 OA
BRANCH   7  12
ATOM     10  C   UNL     1       9.725   2.028  24.202  0.00  0.00    +0.111 C 
ATOM     11  C   UNL     1       9.750   0.897  23.214  0.00  0.00    +0.229 C 
ATOM     12  N   UNL     1       9.329  -0.331  23.738  0.00  0.00    -0.186 N 
ATOM     13  H   UNL     1       9.045  -0.427  24.706  0.00  0.00    +0.177 HD
ATOM     14  O   UNL     1      10.077   1.059  22.049  0.00  0.00    -0.275 OA
ENDBRANCH   7  12
ENDBRANCH   1   7
BRANCH   4  15
ATOM     15  N   UNL     1       7.801  -5.754  27.093  0.00  0.00    -0.358 N 
ATOM     16  H   UNL     1       7.813  -5.393  28.042  0.00  0.00    +0.142 HD
ATOM     17  H   UNL     1       6.983  -6.326  26.909  0.00  0.00    +0.142 HD
ENDBRANCH   4  15
TORSDOF 3
ENDMDL
MODEL 7
REMARK VINA RESULT:      -5.2      2.612      5.886
REMARK  Name = 
REMARK  4 active torsions:
REMARK  status: ('A' for Active; 'I' for Inactive)
REMARK    1  A    between atoms: C_1  and  C_2
REMARK    2  A    between atoms: N_4  and  S_5
REMARK    3  A    between atoms: S_5  and  C_8
REMARK    4  A    between atoms: C_11  and  N_12
REMARK                            x       y       z     vdW  Elec       q    Type
REMARK                         _______ _______ _______ _____ _____    ______ ____
ROOT
ATOM      1  C   UNL     1       7.626  -5.005  24.656  0.00  0.00    +0.109 A 
ATOM      2  C   UNL     1       7.661  -5.209  23.275  0.00  0.00    +0.030 A 
ATOM      3  C   UNL     1       6.522  -5.688  22.620  0.00  0.00    +0.024 A 
ATOM      4  C   UNL     1       5.362  -6.001  23.336  0.00  0.00    +0.025 A 
ATOM      5  C   UNL     1       5.319  -5.715  24.704  0.00  0.00    +0.024 A 
ATOM      6  C   UNL     1       6.448  -5.229  25.371  0.00  0.00    +0.030 A 
ENDROOT
BRANCH   1   7
ATOM      7  S   UNL     1       9.058  -4.369  25.489  0.00  0.00    +0.074 S 
ATOM      8  O   UNL     1       8.805  -4.448  26.914  0.00  0.00    -0.150 OA
ATOM      9  O   UNL     1      10.246  -4.956  24.915  0.00  0.00    -0.150 OA
BRANCH   7  12
ATOM     10  C   UNL     1       9.475  -0.638  24.007  0.00  0.00    +0.111 C 
ATOM     11  C   UNL     1       9.661  -2.127  24.067  0.00  0.00    +0.229 C 
ATOM     12  N   UNL     1       9.004  -2.745  25.137  0.00  0.00    -0.186 N 
ATOM     13  H   UNL     1       8.463  -2.211  25.808  0.00  0.00    +0.177 HD
ATOM     14  O   UNL     1      10.303  -2.736  23.225  0.00  0.00    -0.275 OA
ENDBRANCH   7  12
ENDBRANCH   1   7
BRANCH   4  15
ATOM     15  N   UNL     1       4.196  -6.368  22.656  0.00  0.00    -0.358 N 
ATOM     16  H   UNL     1       3.704  -7.154  23.070  0.00  0.00    +0.142 HD
ATOM     17  H   UNL     1       3.577  -5.590  22.452  0.00  0.00    +0.142 HD
ENDBRANCH   4  15
TORSDOF 3
ENDMDL
MODEL 8
REMARK VINA RESULT:      -5.1      2.413      3.074
REMARK  Name = 
REMARK  4 active torsions:
REMARK  status: ('A' for Active; 'I' for Inactive)
REMARK    1  A    between atoms: C_1  and  C_2
REMARK    2  A    between atoms: N_4  and  S_5
REMARK    3  A    between atoms: S_5  and  C_8
REMARK    4  A    between atoms: C_11  and  N_12
REMARK                            x       y       z     vdW  Elec       q    Type
REMARK                         _______ _______ _______ _____ _____    ______ ____
ROOT
ATOM      1  C   UNL     1       9.684  -0.359  23.204  0.00  0.00    +0.109 A 
ATOM      2  C   UNL     1       9.605   0.350  22.002  0.00  0.00    +0.030 A 
ATOM      3  C   UNL     1      10.020   1.684  21.960  0.00  0.00    +0.024 A 
ATOM      4  C   UNL     1      10.478   2.329  23.114  0.00  0.00    +0.025 A 
ATOM      5  C   UNL     1      10.626   1.582  24.287  0.00  0.00    +0.024 A 
ATOM      6  C   UNL     1      10.222   0.245  24.342  0.00  0.00    +0.030 A 
ENDROOT
BRANCH   1   7
ATOM      7  S   UNL     1       9.187  -2.061  23.256  0.00  0.00    +0.074 S 
ATOM      8  O   UNL     1       8.543  -2.367  21.994  0.00  0.00    -0.150 OA
ATOM      9  O   UNL     1      10.283  -2.866  23.741  0.00  0.00    -0.150 OA
BRANCH   7  12
ATOM     10  C   UNL     1       5.847  -1.460  25.441  0.00  0.00    +0.111 C 
ATOM     11  C   UNL     1       6.775  -1.308  24.270  0.00  0.00    +0.229 C 
ATOM     12  N   UNL     1       7.953  -2.056  24.372  0.00  0.00    -0.186 N 
ATOM     13  H   UNL     1       8.147  -2.636  25.180  0.00  0.00    +0.177 HD
ATOM     14  O   UNL     1       6.494  -0.617  23.303  0.00  0.00    -0.275 OA
ENDBRANCH   7  12
ENDBRANCH   1   7
BRANCH   4  15
ATOM     15  N   UNL     1      10.997   3.625  23.034  0.00  0.00    -0.358 N 
ATOM     16  H   UNL     1      11.651   3.857  23.775  0.00  0.00    +0.142 HD
ATOM     17  H   UNL     1      11.355   3.868  22.116  0.00  0.00    +0.142 HD
ENDBRANCH   4  15
TORSDOF 3
ENDMDL
MODEL 9
REMARK VINA RESULT:      -5.1      1.800      2.245
REMARK  Name = 
REMARK  4 active torsions:
REMARK  status: ('A' for Active; 'I' for Inactive)
REMARK    1  A    between atoms: C_1  and  C_2
REMARK    2  A    between atoms: N_4  and  S_5
REMARK    3  A    between atoms: S_5  and  C_8
REMARK    4  A    between atoms: C_11  and  N_12
REMARK                            x       y       z     vdW  Elec       q    Type
REMARK                         _______ _______ _______ _____ _____    ______ ____
ROOT
ATOM      1  C   UNL     1       8.925  -0.467  23.126  0.00  0.00    +0.109 A 
ATOM      2  C   UNL     1       9.328   0.151  24.313  0.00  0.00    +0.030 A 
ATOM      3  C   UNL     1       9.993   1.380  24.260  0.00  0.00    +0.024 A 
ATOM      4  C   UNL     1      10.294   1.979  23.032  0.00  0.00    +0.025 A 
ATOM      5  C   UNL     1       9.814   1.387  21.860  0.00  0.00    +0.024 A 
ATOM      6  C   UNL     1       9.141   0.163  21.898  0.00  0.00    +0.030 A 
ENDROOT
BRANCH   1   7
ATOM      7  S   UNL     1       8.055  -2.011  23.188  0.00  0.00    +0.074 S 
ATOM      8  O   UNL     1       6.855  -1.804  23.977  0.00  0.00    -0.150 OA
ATOM      9  O   UNL     1       7.979  -2.573  21.861  0.00  0.00    -0.150 OA
BRANCH   7  12
ATOM     10  C   UNL     1       9.818  -4.891  25.400  0.00  0.00    +0.111 C 
ATOM     11  C   UNL     1       8.789  -4.289  24.485  0.00  0.00    +0.229 C 
ATOM     12  N   UNL     1       9.034  -2.954  24.146  0.00  0.00    -0.186 N 
ATOM     13  H   UNL     1       9.839  -2.453  24.506  0.00  0.00    +0.177 HD
ATOM     14  O   UNL     1       7.846  -4.935  24.054  0.00  0.00    -0.275 OA
ENDBRANCH   7  12
ENDBRANCH   1   7
BRANCH   4  15
ATOM     15  N   UNL     1      10.856   3.260  22.996  0.00  0.00    -0.358 N 
ATOM     16  H   UNL     1      10.387   3.936  23.591  0.00  0.00    +0.142 HD
ATOM     17  H   UNL     1      11.863   3.270  23.121  0.00  0.00    +0.142 HD
ENDBRANCH   4  15
TORSDOF 3
ENDMDL
