MODEL 1
REMARK VINA RESULT:      -4.6      0.000      0.000
REMARK  Name = 
REMARK  3 active torsions:
REMARK  status: ('A' for Active; 'I' for Inactive)
REMARK    1  A    between atoms: N_1  and  C_2
REMARK    2  A    between atoms: C_7  and  C_8
REMARK    3  A    between atoms: C_8  and  O_9
REMARK                            x       y       z     vdW  Elec       q    Type
REMARK                         _______ _______ _______ _____ _____    ______ ____
ROOT
ATOM      1  C   UNL     1       9.880  -0.018  22.172  0.00  0.00    +0.039 A 
ATOM      2  C   UNL     1       9.972  -0.421  23.520  0.00  0.00    +0.079 A 
ATOM      3  C   UNL     1      10.248   0.524  24.525  0.00  0.00    +0.017 A 
ATOM      4  C   UNL     1      10.367   1.877  24.202  0.00  0.00    +0.001 A 
ATOM      5  C   UNL     1      10.220   2.289  22.882  0.00  0.00    +0.002 A 
ATOM      6  C   UNL     1       9.961   1.350  21.878  0.00  0.00    +0.023 A 
ENDROOT
BRANCH   1   7
ATOM      7  N   UNL     1       9.478  -0.897  21.147  0.00  0.00    -0.357 N 
ATOM      8  H   UNL     1      10.022  -0.755  20.285  0.00  0.00    +0.142 HD
ATOM      9  H   UNL     1       8.482  -0.880  20.957  0.00  0.00    +0.142 HD
ENDBRANCH   1   7
BRANCH   2  10
ATOM     10  C   UNL     1       9.878  -1.865  23.864  0.00  0.00    +0.339 C 
ATOM     11  O   UNL     1      10.474  -2.736  23.250  0.00  0.00    -0.245 OA
BRANCH  10  12
ATOM     12  O   UNL     1       9.059  -2.134  24.906  0.00  0.00    -0.477 OA
ATOM     13  H   UNL     1       8.466  -1.401  25.153  0.00  0.00    +0.295 HD
ENDBRANCH  10  12
ENDBRANCH   2  10
TORSDOF 3
ENDMDL
MODEL 2
REMARK VINA RESULT:      -4.5      2.968      4.079
REMARK  Name = 
REMARK  3 active torsions:
REMARK  status: ('A' for Active; 'I' for Inactive)
REMARK    1  A    between atoms: N_1  and  C_2
REMARK    2  A    between atoms: C_7  and  C_8
REMARK    3  A    between atoms: C_8  and  O_9
REMARK                            x       y       z     vdW  Elec       q    Type
REMARK                         _______ _______ _______ _____ _____    ______ ____
ROOT
ATOM      1  C   UNL     1      10.065   0.054  24.050  0.00  0.00    +0.039 A 
ATOM      2  C   UNL     1       9.869   0.607  22.768  0.00  0.00    +0.079 A 
ATOM      3  C   UNL     1       9.593  -0.228  21.671  0.00  0.00    +0.017 A 
ATOM      4  C   UNL     1       9.447  -1.604  21.855  0.00  0.00    +0.001 A 
ATOM      5  C   UNL     1       9.582  -2.150  23.127  0.00  0.00    +0.002 A 
ATOM      6  C   UNL     1       9.871  -1.325  24.218  0.00  0.00    +0.023 A 
ENDROOT
BRANCH   1   7
ATOM      7  N   UNL     1      10.213   0.850  25.202  0.00  0.00    -0.357 N 
ATOM      8  H   UNL     1      11.068   0.616  25.723  0.00  0.00    +0.142 HD
ATOM      9  H   UNL     1       9.402   0.849  25.811  0.00  0.00    +0.142 HD
ENDBRANCH   1   7
BRANCH   2  10
ATOM     10  C   UNL     1      10.055   2.068  22.562  0.00  0.00    +0.339 C 
ATOM     11  O   UNL     1      10.831   2.740  23.223  0.00  0.00    -0.245 OA
BRANCH  10  12
ATOM     12  O   UNL     1       9.278   2.594  21.589  0.00  0.00    -0.477 OA
ATOM     13  H   UNL     1       9.768   2.923  20.813  0.00  0.00    +0.295 HD
ENDBRANCH  10  12
ENDBRANCH   2  10
TORSDOF 3
ENDMDL
MODEL 3
REMARK VINA RESULT:      -4.5      1.592      2.241
REMARK  Name = 
REMARK  3 active torsions:
REMARK  status: ('A' for Active; 'I' for Inactive)
REMARK    1  A    between atoms: N_1  and  C_2
REMARK    2  A    between atoms: C_7  and  C_8
REMARK    3  A    between atoms: C_8  and  O_9
REMARK                            x       y       z     vdW  Elec       q    Type
REMARK                         _______ _______ _______ _____ _____    ______ ____
ROOT
ATOM      1  C   UNL     1      10.027   0.357  24.050  0.00  0.00    +0.039 A 
ATOM      2  C   UNL     1       9.682  -0.855  23.417  0.00  0.00    +0.079 A 
ATOM      3  C   UNL     1       9.324  -0.867  22.057  0.00  0.00    +0.017 A 
ATOM      4  C   UNL     1       9.371   0.310  21.308  0.00  0.00    +0.001 A 
ATOM      5  C   UNL     1       9.766   1.499  21.911  0.00  0.00    +0.002 A 
ATOM      6  C   UNL     1      10.109   1.518  23.267  0.00  0.00    +0.023 A 
ENDROOT
BRANCH   1   7
ATOM      7  N   UNL     1      10.518   0.408  25.369  0.00  0.00    -0.357 N 
ATOM      8  H   UNL     1      11.207   1.162  25.492  0.00  0.00    +0.142 HD
ATOM      9  H   UNL     1      10.879  -0.477  25.708  0.00  0.00    +0.142 HD
ENDBRANCH   1   7
BRANCH   2  10
ATOM     10  C   UNL     1       9.599  -2.105  24.220  0.00  0.00    +0.339 C 
ATOM     11  O   UNL     1      10.194  -3.128  23.921  0.00  0.00    -0.245 OA
BRANCH  10  12
ATOM     12  O   UNL     1       8.794  -2.015  25.302  0.00  0.00    -0.477 OA
ATOM     13  H   UNL     1       9.235  -2.203  26.150  0.00  0.00    +0.295 HD
ENDBRANCH  10  12
ENDBRANCH   2  10
TORSDOF 3
ENDMDL
MODEL 4
REMARK VINA RESULT:      -4.3      2.788      3.639
REMARK  Name = 
REMARK  3 active torsions:
REMARK  status: ('A' for Active; 'I' for Inactive)
REMARK    1  A    between atoms: N_1  and  C_2
REMARK    2  A    between atoms: C_7  and  C_8
REMARK    3  A    between atoms: C_8  and  O_9
REMARK                            x       y       z     vdW  Elec       q    Type
REMARK                         _______ _______ _______ _____ _____    ______ ____
ROOT
ATOM      1  C   UNL     1       9.301   0.901  22.010  0.00  0.00    +0.039 A 
ATOM      2  C   UNL     1       9.935   1.182  23.237  0.00  0.00    +0.079 A 
ATOM      3  C   UNL     1      10.514   0.146  23.990  0.00  0.00    +0.017 A 
ATOM      4  C   UNL     1      10.524  -1.159  23.495  0.00  0.00    +0.001 A 
ATOM      5  C   UNL     1       9.951  -1.435  22.259  0.00  0.00    +0.002 A 
ATOM      6  C   UNL     1       9.361  -0.409  21.514  0.00  0.00    +0.023 A 
ENDROOT
BRANCH   1   7
ATOM      7  N   UNL     1       8.822   1.914  21.156  0.00  0.00    -0.357 N 
ATOM      8  H   UNL     1       8.665   2.797  21.660  0.00  0.00    +0.142 HD
ATOM      9  H   UNL     1       8.003   1.648  20.620  0.00  0.00    +0.142 HD
ENDBRANCH   1   7
BRANCH   2  10
ATOM     10  C   UNL     1       9.898   2.567  23.782  0.00  0.00    +0.339 C 
ATOM     11  O   UNL     1       9.189   2.895  24.720  0.00  0.00    -0.245 OA
BRANCH  10  12
ATOM     12  O   UNL     1      10.708   3.437  23.137  0.00  0.00    -0.477 OA
ATOM     13  H   UNL     1      10.711   4.338  23.509  0.00  0.00    +0.295 HD
ENDBRANCH  10  12
ENDBRANCH   2  10
TORSDOF 3
ENDMDL
MODEL 5
REMARK VINA RESULT:      -4.3      3.464      4.393
REMARK  Name = 
REMARK  3 active torsions:
REMARK  status: ('A' for Active; 'I' for Inactive)
REMARK    1  A    between atoms: N_1  and  C_2
REMARK    2  A    between atoms: C_7  and  C_8
REMARK    3  A    between atoms: C_8  and  O_9
REMARK                            x       y       z     vdW  Elec       q    Type
REMARK                         _______ _______ _______ _____ _____    ______ ____
ROOT
ATOM      1  C   UNL     1       7.916  -4.204  23.575  0.00  0.00    +0.039 A 
ATOM      2  C   UNL     1       9.015  -3.893  24.402  0.00  0.00    +0.079 A 
ATOM      3  C   UNL     1       9.825  -2.780  24.115  0.00  0.00    +0.017 A 
ATOM      4  C   UNL     1       9.508  -1.937  23.048  0.00  0.00    +0.001 A 
ATOM      5  C   UNL     1       8.392  -2.205  22.262  0.00  0.00    +0.002 A 
ATOM      6  C   UNL     1       7.592  -3.319  22.536  0.00  0.00    +0.023 A 
ENDROOT
BRANCH   1   7
ATOM      7  N   UNL     1       6.998  -5.224  23.889  0.00  0.00    -0.357 N 
ATOM      8  H   UNL     1       6.385  -4.961  24.672  0.00  0.00    +0.142 HD
ATOM      9  H   UNL     1       7.427  -6.130  24.049  0.00  0.00    +0.142 HD
ENDBRANCH   1   7
BRANCH   2  10
ATOM     10  C   UNL     1       9.374  -4.806  25.520  0.00  0.00    +0.339 C 
ATOM     11  O   UNL     1       9.218  -4.514  26.695  0.00  0.00    -0.245 OA
BRANCH  10  12
ATOM     12  O   UNL     1       9.905  -5.985  25.123  0.00  0.00    -0.477 OA
ATOM     13  H   UNL     1      10.864  -6.068  25.278  0.00  0.00    +0.295 HD
ENDBRANCH  10  12
ENDBRANCH   2  10
TORSDOF 3
ENDMDL
MODEL 6
REMARK VINA RESULT:      -4.1      5.516      6.557
REMARK  Name = 
REMARK  3 active torsions:
REMARK  status: ('A' for Active; 'I' for Inactive)
REMARK    1  A    between atoms: N_1  and  C_2
REMARK    2  A    between atoms: C_7  and  C_8
REMARK    3  A    between atoms: C_8  and  O_9
REMARK                            x       y       z     vdW  Elec       q    Type
REMARK                         _______ _______ _______ _____ _____    ______ ____
ROOT
ATOM      1  C   UNL     1       7.024  -5.140  25.689  0.00  0.00    +0.039 A 
ATOM      2  C   UNL     1       7.920  -5.015  24.608  0.00  0.00    +0.079 A 
ATOM      3  C   UNL     1       7.459  -5.147  23.286  0.00  0.00    +0.017 A 
ATOM      4  C   UNL     1       6.099  -5.338  23.034  0.00  0.00    +0.001 A 
ATOM      5  C   UNL     1       5.201  -5.405  24.093  0.00  0.00    +0.002 A 
ATOM      6  C   UNL     1       5.658  -5.288  25.409  0.00  0.00    +0.023 A 
ENDROOT
BRANCH   1   7
ATOM      7  N   UNL     1       7.407  -4.887  27.021  0.00  0.00    -0.357 N 
ATOM      8  H   UNL     1       7.743  -5.738  27.491  0.00  0.00    +0.142 HD
ATOM      9  H   UNL     1       6.695  -4.421  27.573  0.00  0.00    +0.142 HD
ENDBRANCH   1   7
BRANCH   2  10
ATOM     10  C   UNL     1       9.374  -4.843  24.874  0.00  0.00    +0.339 C 
ATOM     11  O   UNL     1      10.027  -3.912  24.432  0.00  0.00    -0.245 OA
BRANCH  10  12
ATOM     12  O   UNL     1       9.915  -5.819  25.638  0.00  0.00    -0.477 OA
ATOM     13  H   UNL     1       9.264  -6.395  26.079  0.00  0.00    +0.295 HD
ENDBRANCH  10  12
ENDBRANCH   2  10
TORSDOF 3
ENDMDL
MODEL 7
REMARK VINA RESULT:      -4.1      2.017      2.389
REMARK  Name = 
REMARK  3 active torsions:
REMARK  status: ('A' for Active; 'I' for Inactive)
REMARK    1  A    between atoms: N_1  and  C_2
REMARK    2  A    between atoms: C_7  and  C_8
REMARK    3  A    between atoms: C_8  and  O_9
REMARK                            x       y       z     vdW  Elec       q    Type
REMARK                         _______ _______ _______ _____ _____    ______ ____
ROOT
ATOM      1  C   UNL     1       7.509   0.017  22.668  0.00  0.00    +0.039 A 
ATOM      2  C   UNL     1       8.792  -0.556  22.547  0.00  0.00    +0.079 A 
ATOM      3  C   UNL     1       9.866   0.208  22.059  0.00  0.00    +0.017 A 
ATOM      4  C   UNL     1       9.686   1.558  21.753  0.00  0.00    +0.001 A 
ATOM      5  C   UNL     1       8.437   2.145  21.924  0.00  0.00    +0.002 A 
ATOM      6  C   UNL     1       7.362   1.385  22.396  0.00  0.00    +0.023 A 
ENDROOT
BRANCH   1   7
ATOM      7  N   UNL     1       6.432  -0.661  23.272  0.00  0.00    -0.357 N 
ATOM      8  H   UNL     1       5.738  -0.009  23.659  0.00  0.00    +0.142 HD
ATOM      9  H   UNL     1       6.713  -1.349  23.962  0.00  0.00    +0.142 HD
ENDBRANCH   1   7
BRANCH   2  10
ATOM     10  C   UNL     1       8.980  -2.002  22.842  0.00  0.00    +0.339 C 
ATOM     11  O   UNL     1       9.877  -2.425  23.554  0.00  0.00    -0.245 OA
BRANCH  10  12
ATOM     12  O   UNL     1       8.081  -2.812  22.238  0.00  0.00    -0.477 OA
ATOM     13  H   UNL     1       8.290  -3.027  21.310  0.00  0.00    +0.295 HD
ENDBRANCH  10  12
ENDBRANCH   2  10
TORSDOF 3
ENDMDL
MODEL 8
REMARK VINA RESULT:      -4.1      1.574      1.937
REMARK  Name = 
REMARK  3 active torsions:
REMARK  status: ('A' for Active; 'I' for Inactive)
REMARK    1  A    between atoms: N_1  and  C_2
REMARK    2  A    between atoms: C_7  and  C_8
REMARK    3  A    between atoms: C_8  and  O_9
REMARK                            x       y       z     vdW  Elec       q    Type
REMARK                         _______ _______ _______ _____ _____    ______ ____
ROOT
ATOM      1  C   UNL     1       8.360   0.083  23.275  0.00  0.00    +0.039 A 
ATOM      2  C   UNL     1       9.690  -0.374  23.368  0.00  0.00    +0.079 A 
ATOM      3  C   UNL     1      10.689   0.458  23.905  0.00  0.00    +0.017 A 
ATOM      4  C   UNL     1      10.358   1.717  24.408  0.00  0.00    +0.001 A 
ATOM      5  C   UNL     1       9.038   2.152  24.372  0.00  0.00    +0.002 A 
ATOM      6  C   UNL     1       8.044   1.333  23.827  0.00  0.00    +0.023 A 
ENDROOT
BRANCH   1   7
ATOM      7  N   UNL     1       7.300  -0.752  22.870  0.00  0.00    -0.357 N 
ATOM      8  H   UNL     1       6.559  -0.803  23.581  0.00  0.00    +0.142 HD
ATOM      9  H   UNL     1       7.594  -1.679  22.581  0.00  0.00    +0.142 HD
ENDBRANCH   1   7
BRANCH   2  10
ATOM     10  C   UNL     1      10.052  -1.702  22.803  0.00  0.00    +0.339 C 
ATOM     11  O   UNL     1      10.329  -2.668  23.497  0.00  0.00    -0.245 OA
BRANCH  10  12
ATOM     12  O   UNL     1      10.064  -1.744  21.452  0.00  0.00    -0.477 OA
ATOM     13  H   UNL     1       9.596  -1.005  21.021  0.00  0.00    +0.295 HD
ENDBRANCH  10  12
ENDBRANCH   2  10
TORSDOF 3
ENDMDL
MODEL 9
REMARK VINA RESULT:      -4.0      4.041      5.096
REMARK  Name = 
REMARK  3 active torsions:
REMARK  status: ('A' for Active; 'I' for Inactive)
REMARK    1  A    between atoms: N_1  and  C_2
REMARK    2  A    between atoms: C_7  and  C_8
REMARK    3  A    between atoms: C_8  and  O_9
REMARK                            x       y       z     vdW  Elec       q    Type
REMARK                         _______ _______ _______ _____ _____    ______ ____
ROOT
ATOM      1  C   UNL     1       8.583  -3.352  23.714  0.00  0.00    +0.039 A 
ATOM      2  C   UNL     1       8.202  -4.580  24.293  0.00  0.00    +0.079 A 
ATOM      3  C   UNL     1       6.947  -5.143  23.999  0.00  0.00    +0.017 A 
ATOM      4  C   UNL     1       6.097  -4.522  23.082  0.00  0.00    +0.001 A 
ATOM      5  C   UNL     1       6.490  -3.341  22.464  0.00  0.00    +0.002 A 
ATOM      6  C   UNL     1       7.731  -2.770  22.764  0.00  0.00    +0.023 A 
ENDROOT
BRANCH   1   7
ATOM      7  N   UNL     1       9.874  -2.812  23.870  0.00  0.00    -0.357 N 
ATOM      8  H   UNL     1      10.158  -2.775  24.858  0.00  0.00    +0.142 HD
ATOM      9  H   UNL     1      10.002  -1.912  23.419  0.00  0.00    +0.142 HD
ENDBRANCH   1   7
BRANCH   2  10
ATOM     10  C   UNL     1       9.091  -5.227  25.295  0.00  0.00    +0.339 C 
ATOM     11  O   UNL     1      10.308  -5.245  25.193  0.00  0.00    -0.245 OA
BRANCH  10  12
ATOM     12  O   UNL     1       8.435  -5.811  26.323  0.00  0.00    -0.477 OA
ATOM     13  H   UNL     1       7.497  -5.557  26.400  0.00  0.00    +0.295 HD
ENDBRANCH  10  12
ENDBRANCH   2  10
TORSDOF 3
ENDMDL
