MODEL 1
REMARK VINA RESULT:      -2.9      0.000      0.000
REMARK  Name = 
REMARK  2 active torsions:
REMARK  status: ('A' for Active; 'I' for Inactive)
REMARK    1  A    between atoms: C_1  and  C_2
REMARK    2  A    between atoms: C_2  and  C_3
REMARK                            x       y       z     vdW  Elec       q    Type
REMARK                         _______ _______ _______ _____ _____    ______ ____
ROOT
ATOM      1  C   UNL     1      10.026   1.063  22.282  0.00  0.00    +0.210 C 
ATOM      2  O   UNL     1      10.474   1.054  23.421  0.00  0.00    -0.276 OA
ATOM      3  N   UNL     1       9.914   2.228  21.581  0.00  0.00    -0.329 N 
ATOM      4  H   UNL     1      10.215   3.080  22.038  0.00  0.00    +0.145 HD
ATOM      5  H   UNL     1       9.550   2.278  20.641  0.00  0.00    +0.145 HD
ENDROOT
BRANCH   1   7
ATOM      6  C   UNL     1       9.977  -1.452  22.198  0.00  0.00    +0.013 C 
ATOM      7  C   UNL     1       9.553  -0.159  21.525  0.00  0.00    +0.092 C 
ENDBRANCH   1   7
TORSDOF 1
ENDMDL
MODEL 2
REMARK VINA RESULT:      -2.9      1.606      2.159
REMARK  Name = 
REMARK  2 active torsions:
REMARK  status: ('A' for Active; 'I' for Inactive)
REMARK    1  A    between atoms: C_1  and  C_2
REMARK    2  A    between atoms: C_2  and  C_3
REMARK                            x       y       z     vdW  Elec       q    Type
REMARK                         _______ _______ _______ _____ _____    ______ ____
ROOT
ATOM      1  C   UNL     1      10.066   1.163  22.404  0.00  0.00    +0.210 C 
ATOM      2  O   UNL     1      10.034  -0.012  22.060  0.00  0.00    -0.276 OA
ATOM      3  N   UNL     1       9.776   2.161  21.518  0.00  0.00    -0.329 N 
ATOM      4  H   UNL     1       9.535   1.892  20.573  0.00  0.00    +0.145 HD
ATOM      5  H   UNL     1       9.792   3.140  21.762  0.00  0.00    +0.145 HD
ENDROOT
BRANCH   1   7
ATOM      6  C   UNL     1      10.770   0.514  24.730  0.00  0.00    +0.013 C 
ATOM      7  C   UNL     1      10.416   1.653  23.791  0.00  0.00    +0.092 C 
ENDBRANCH   1   7
TORSDOF 1
ENDMDL
MODEL 3
REMARK VINA RESULT:      -2.8      1.647      1.647
REMARK  Name = 
REMARK  2 active torsions:
REMARK  status: ('A' for Active; 'I' for Inactive)
REMARK    1  A    between atoms: C_1  and  C_2
REMARK    2  A    between atoms: C_2  and  C_3
REMARK                            x       y       z     vdW  Elec       q    Type
REMARK                         _______ _______ _______ _____ _____    ______ ____
ROOT
ATOM      1  C   UNL     1       9.054   1.345  21.536  0.00  0.00    +0.210 C 
ATOM      2  O   UNL     1       7.905   1.763  21.474  0.00  0.00    -0.276 OA
ATOM      3  N   UNL     1      10.105   2.201  21.696  0.00  0.00    -0.329 N 
ATOM      4  H   UNL     1       9.897   3.190  21.761  0.00  0.00    +0.145 HD
ATOM      5  H   UNL     1      11.065   1.895  21.751  0.00  0.00    +0.145 HD
ENDROOT
BRANCH   1   7
ATOM      6  C   UNL     1      10.150  -0.594  22.706  0.00  0.00    +0.013 C 
ATOM      7  C   UNL     1       9.453  -0.111  21.447  0.00  0.00    +0.092 C 
ENDBRANCH   1   7
TORSDOF 1
ENDMDL
MODEL 4
REMARK VINA RESULT:      -2.7      6.235      6.351
REMARK  Name = 
REMARK  2 active torsions:
REMARK  status: ('A' for Active; 'I' for Inactive)
REMARK    1  A    between atoms: C_1  and  C_2
REMARK    2  A    between atoms: C_2  and  C_3
REMARK                            x       y       z     vdW  Elec       q    Type
REMARK                         _______ _______ _______ _____ _____    ______ ____
ROOT
ATOM      1  C   UNL     1       9.394  -4.704  24.944  0.00  0.00    +0.210 C 
ATOM      2  O   UNL     1       9.977  -3.778  24.396  0.00  0.00    -0.276 OA
ATOM      3  N   UNL     1      10.061  -5.563  25.768  0.00  0.00    -0.329 N 
ATOM      4  H   UNL     1      11.052  -5.405  25.907  0.00  0.00    +0.145 HD
ATOM      5  H   UNL     1       9.617  -6.338  26.239  0.00  0.00    +0.145 HD
ENDROOT
BRANCH   1   7
ATOM      6  C   UNL     1       7.514  -5.176  23.340  0.00  0.00    +0.013 C 
ATOM      7  C   UNL     1       7.921  -5.013  24.793  0.00  0.00    +0.092 C 
ENDBRANCH   1   7
TORSDOF 1
ENDMDL
MODEL 5
REMARK VINA RESULT:      -2.7      2.134      2.640
REMARK  Name = 
REMARK  2 active torsions:
REMARK  status: ('A' for Active; 'I' for Inactive)
REMARK    1  A    between atoms: C_1  and  C_2
REMARK    2  A    between atoms: C_2  and  C_3
REMARK                            x       y       z     vdW  Elec       q    Type
REMARK                         _______ _______ _______ _____ _____    ______ ____
ROOT
ATOM      1  C   UNL     1      10.218  -0.720  22.611  0.00  0.00    +0.210 C 
ATOM      2  O   UNL     1      10.561  -1.858  22.319  0.00  0.00    -0.276 OA
ATOM      3  N   UNL     1      10.374  -0.244  23.881  0.00  0.00    -0.329 N 
ATOM      4  H   UNL     1      10.782  -0.866  24.567  0.00  0.00    +0.145 HD
ATOM      5  H   UNL     1      10.104   0.687  24.161  0.00  0.00    +0.145 HD
ENDROOT
BRANCH   1   7
ATOM      6  C   UNL     1       9.951   1.708  22.006  0.00  0.00    +0.013 C 
ATOM      7  C   UNL     1       9.602   0.274  21.652  0.00  0.00    +0.092 C 
ENDBRANCH   1   7
TORSDOF 1
ENDMDL
MODEL 6
REMARK VINA RESULT:      -2.7      7.232      7.607
REMARK  Name = 
REMARK  2 active torsions:
REMARK  status: ('A' for Active; 'I' for Inactive)
REMARK    1  A    between atoms: C_1  and  C_2
REMARK    2  A    between atoms: C_2  and  C_3
REMARK                            x       y       z     vdW  Elec       q    Type
REMARK                         _______ _______ _______ _____ _____    ______ ____
ROOT
ATOM      1  C   UNL     1       6.064  -5.811  21.505  0.00  0.00    +0.210 C 
ATOM      2  O   UNL     1       5.912  -5.380  20.370  0.00  0.00    -0.276 OA
ATOM      3  N   UNL     1       4.991  -6.181  22.264  0.00  0.00    -0.329 N 
ATOM      4  H   UNL     1       4.071  -6.085  21.853  0.00  0.00    +0.145 HD
ATOM      5  H   UNL     1       5.074  -6.541  23.203  0.00  0.00    +0.145 HD
ENDROOT
BRANCH   1   7
ATOM      6  C   UNL     1       7.582  -5.014  23.346  0.00  0.00    +0.013 C 
ATOM      7  C   UNL     1       7.397  -5.988  22.196  0.00  0.00    +0.092 C 
ENDBRANCH   1   7
TORSDOF 1
ENDMDL
MODEL 7
REMARK VINA RESULT:      -2.6      2.421      2.824
REMARK  Name = 
REMARK  2 active torsions:
REMARK  status: ('A' for Active; 'I' for Inactive)
REMARK    1  A    between atoms: C_1  and  C_2
REMARK    2  A    between atoms: C_2  and  C_3
REMARK                            x       y       z     vdW  Elec       q    Type
REMARK                         _______ _______ _______ _____ _____    ______ ____
ROOT
ATOM      1  C   UNL     1      10.244   1.361  24.444  0.00  0.00    +0.210 C 
ATOM      2  O   UNL     1      11.101   0.555  24.777  0.00  0.00    -0.276 OA
ATOM      3  N   UNL     1       9.099   1.509  25.171  0.00  0.00    -0.329 N 
ATOM      4  H   UNL     1       8.988   0.929  25.993  0.00  0.00    +0.145 HD
ATOM      5  H   UNL     1       8.369   2.163  24.929  0.00  0.00    +0.145 HD
ENDROOT
BRANCH   1   7
ATOM      6  C   UNL     1       9.914   1.558  21.957  0.00  0.00    +0.013 C 
ATOM      7  C   UNL     1      10.327   2.266  23.234  0.00  0.00    +0.092 C 
ENDBRANCH   1   7
TORSDOF 1
ENDMDL
MODEL 8
REMARK VINA RESULT:      -2.4      6.735      7.318
REMARK  Name = 
REMARK  2 active torsions:
REMARK  status: ('A' for Active; 'I' for Inactive)
REMARK    1  A    between atoms: C_1  and  C_2
REMARK    2  A    between atoms: C_2  and  C_3
REMARK                            x       y       z     vdW  Elec       q    Type
REMARK                         _______ _______ _______ _____ _____    ______ ____
ROOT
ATOM      1  C   UNL     1       7.876  -5.353  25.958  0.00  0.00    +0.210 C 
ATOM      2  O   UNL     1       6.841  -5.126  25.345  0.00  0.00    -0.276 OA
ATOM      3  N   UNL     1       7.845  -5.890  27.212  0.00  0.00    -0.329 N 
ATOM      4  H   UNL     1       6.938  -6.090  27.614  0.00  0.00    +0.145 HD
ATOM      5  H   UNL     1       8.675  -6.092  27.750  0.00  0.00    +0.145 HD
ENDROOT
BRANCH   1   7
ATOM      6  C   UNL     1       9.352  -3.787  24.654  0.00  0.00    +0.013 C 
ATOM      7  C   UNL     1       9.270  -5.085  25.437  0.00  0.00    +0.092 C 
ENDBRANCH   1   7
TORSDOF 1
ENDMDL
MODEL 9
REMARK VINA RESULT:      -2.4      5.902      6.099
REMARK  Name = 
REMARK  2 active torsions:
REMARK  status: ('A' for Active; 'I' for Inactive)
REMARK    1  A    between atoms: C_1  and  C_2
REMARK    2  A    between atoms: C_2  and  C_3
REMARK                            x       y       z     vdW  Elec       q    Type
REMARK                         _______ _______ _______ _____ _____    ______ ____
ROOT
ATOM      1  C   UNL     1       6.107  -3.613  21.815  0.00  0.00    +0.210 C 
ATOM      2  O   UNL     1       5.655  -3.851  20.703  0.00  0.00    -0.276 OA
ATOM      3  N   UNL     1       5.741  -2.488  22.495  0.00  0.00    -0.329 N 
ATOM      4  H   UNL     1       5.084  -1.862  22.046  0.00  0.00    +0.145 HD
ATOM      5  H   UNL     1       6.091  -2.256  23.413  0.00  0.00    +0.145 HD
ENDROOT
BRANCH   1   7
ATOM      6  C   UNL     1       7.183  -5.882  21.963  0.00  0.00    +0.013 C 
ATOM      7  C   UNL     1       7.091  -4.489  22.558  0.00  0.00    +0.092 C 
ENDBRANCH   1   7
TORSDOF 1
ENDMDL
