MODEL 1
REMARK VINA RESULT:      -6.6      0.000      0.000
REMARK  Name = 
REMARK  31 active torsions:
REMARK  status: ('A' for Active; 'I' for Inactive)
REMARK    1  A    between atoms: C_1  and  C_2
REMARK    2  A    between atoms: C_2  and  C_3
REMARK    3  A    between atoms: C_3  and  S_5
REMARK    4  A    between atoms: S_5  and  C_6
REMARK    5  A    between atoms: C_6  and  C_7
REMARK    6  A    between atoms: C_7  and  N_8
REMARK    7  A    between atoms: C_9  and  C_11
REMARK    8  A    between atoms: C_11  and  C_12
REMARK    9  A    between atoms: C_12  and  N_13
REMARK   10  A    between atoms: C_14  and  C_16
REMARK   11  A    between atoms: C_16  and  O_18
REMARK   12  A    between atoms: C_16  and  C_19
REMARK   13  A    between atoms: C_19  and  C_20
REMARK   14  A    between atoms: C_19  and  C_21
REMARK   15  A    between atoms: C_19  and  C_22
REMARK   16  A    between atoms: C_22  and  O_23
REMARK   17  A    between atoms: O_23  and  P_24
REMARK   18  A    between atoms: P_24  and  O_25
REMARK   19  A    between atoms: P_24  and  O_27
REMARK   20  A    between atoms: O_27  and  P_28
REMARK   21  A    between atoms: P_28  and  O_29
REMARK   22  A    between atoms: P_28  and  O_31
REMARK   23  A    between atoms: O_31  and  C_32
REMARK   24  A    between atoms: C_32  and  C_33
REMARK   25  A    between atoms: C_36  and  N_48
REMARK   26  A    between atoms: C_38  and  O_40
REMARK   27  A    between atoms: C_41  and  O_43
REMARK   28  A    between atoms: O_43  and  P_44
REMARK   29  A    between atoms: P_44  and  O_45
REMARK   30  A    between atoms: P_44  and  O_46
REMARK   31  A    between atoms: C_53  and  N_54
REMARK                            x       y       z     vdW  Elec       q    Type
REMARK                         _______ _______ _______ _____ _____    ______ ____
ROOT
ATOM      1  P   UNL     1       4.990   1.283  25.778  0.00  0.00    +0.483 P 
ATOM      2  O   UNL     1       3.546   1.258  26.177  0.00  0.00    -0.227 OA
ENDROOT
BRANCH   1   3
ATOM      3  O   UNL     1       5.011   1.447  24.173  0.00  0.00    -0.302 OA
ATOM      4  H   UNL     1       4.243   0.969  23.804  0.00  0.00    +0.222 HD
ENDBRANCH   1   3
BRANCH   1   5
ATOM      5  O   UNL     1       5.802  -0.115  25.978  0.00  0.00    -0.186 OA
BRANCH   5   6
ATOM      6  P   UNL     1       7.446  -0.201  26.509  0.00  0.00    +0.483 P 
ATOM      7  O   UNL     1       7.472  -1.716  26.345  0.00  0.00    -0.227 OA
BRANCH   6   8
ATOM      8  O   UNL     1       9.090  -0.287  27.040  0.00  0.00    -0.302 OA
ATOM      9  H   UNL     1       9.306   0.623  27.327  0.00  0.00    +0.222 HD
ENDBRANCH   6   8
BRANCH   6  10
ATOM     10  O   UNL     1       7.957   0.528  25.120  0.00  0.00    -0.286 OA
BRANCH  10  11
ATOM     11  C   UNL     1       8.028  -0.233  23.910  0.00  0.00    +0.181 C 
BRANCH  11  12
ATOM     12  C   UNL     1       9.353  -0.040  23.159  0.00  0.00    +0.024 C 
ATOM     13  C   UNL     1       9.070   0.666  21.827  0.00  0.00    +0.016 C 
ATOM     14  C   UNL     1      10.274   0.877  24.003  0.00  0.00    +0.016 C 
BRANCH  12  15
ATOM     15  C   UNL     1      10.062  -1.418  22.939  0.00  0.00    +0.208 C 
BRANCH  15  18
ATOM     16  N   UNL     1       9.602  -3.275  24.521  0.00  0.00    -0.313 N 
ATOM     17  H   UNL     1      10.502  -3.017  24.915  0.00  0.00    +0.149 HD
ATOM     18  C   UNL     1       9.213  -2.650  23.350  0.00  0.00    +0.242 C 
ATOM     19  O   UNL     1       8.223  -3.012  22.721  0.00  0.00    -0.273 OA
BRANCH  16  20
ATOM     20  C   UNL     1       8.954  -4.518  24.906  0.00  0.00    +0.113 C 
BRANCH  20  21
ATOM     21  C   UNL     1       8.993  -4.791  26.399  0.00  0.00    +0.114 C 
BRANCH  21  24
ATOM     22  N   UNL     1       6.588  -4.731  26.062  0.00  0.00    -0.314 N 
ATOM     23  H   UNL     1       6.777  -4.011  25.375  0.00  0.00    +0.149 HD
ATOM     24  C   UNL     1       7.608  -5.185  26.865  0.00  0.00    +0.215 C 
ATOM     25  O   UNL     1       7.430  -5.901  27.845  0.00  0.00    -0.276 OA
BRANCH  22  26
ATOM     26  C   UNL     1       5.193  -5.044  26.334  0.00  0.00    +0.115 C 
BRANCH  26  27
ATOM     27  C   UNL     1       4.546  -5.958  25.290  0.00  0.00    +0.096 C 
BRANCH  27  28
ATOM     28  S   UNL     1       3.641  -4.983  24.039  0.00  0.00    -0.087 S 
BRANCH  28  29
ATOM     29  C   UNL     1       4.931  -4.758  22.853  0.00  0.00    +0.189 C 
ATOM     30  O   UNL     1       5.030  -3.736  22.189  0.00  0.00    -0.285 OA
BRANCH  29  32
ATOM     31  C   UNL     1       6.692  -5.937  21.476  0.00  0.00    +0.012 C 
ATOM     32  C   UNL     1       5.863  -5.950  22.750  0.00  0.00    +0.083 C 
ENDBRANCH  29  32
ENDBRANCH  28  29
ENDBRANCH  27  28
ENDBRANCH  26  27
ENDBRANCH  22  26
ENDBRANCH  21  24
ENDBRANCH  20  21
ENDBRANCH  16  20
ENDBRANCH  15  18
BRANCH  15  33
ATOM     33  O   UNL     1      10.517  -1.535  21.587  0.00  0.00    -0.382 OA
ATOM     34  H   UNL     1      10.479  -2.482  21.362  0.00  0.00    +0.210 HD
ENDBRANCH  15  33
ENDBRANCH  12  15
ENDBRANCH  11  12
ENDBRANCH  10  11
ENDBRANCH   6  10
ENDBRANCH   5   6
ENDBRANCH   1   5
BRANCH   1  35
ATOM     35  O   UNL     1       5.683   2.675  26.272  0.00  0.00    -0.284 OA
BRANCH  35  36
ATOM     36  C   UNL     1       5.087   3.973  26.432  0.00  0.00    +0.206 C 
BRANCH  36  37
ATOM     37  C   UNL     1       5.103   5.050  25.235  0.00  0.00    +0.181 C 
ATOM     38  C   UNL     1       6.108   4.805  24.091  0.00  0.00    +0.196 C 
ATOM     39  C   UNL     1       5.243   4.637  22.847  0.00  0.00    +0.219 C 
ATOM     40  C   UNL     1       3.803   4.656  23.347  0.00  0.00    +0.349 C 
ATOM     41  O   UNL     1       3.809   5.323  24.609  0.00  0.00    -0.328 OA
BRANCH  40  42
ATOM     42  N   UNL     1       2.951   5.276  22.331  0.00  0.00    -0.191 N 
ATOM     43  C   UNL     1       2.724   6.671  22.166  0.00  0.00    +0.314 C 
ATOM     44  N   UNL     1       1.974   6.987  21.149  0.00  0.00    -0.235 NA
ATOM     45  C   UNL     1       1.494   5.660  20.635  0.00  0.00    +0.251 C 
ATOM     46  C   UNL     1       1.727   5.395  19.141  0.00  0.00    +0.159 C 
ATOM     47  N   UNL     1       1.315   4.053  18.822  0.00  0.00    -0.265 NA
ATOM     48  H   UNL     1       1.496   3.842  17.845  0.00  0.00    +0.127 HD
ATOM     49  C   UNL     1       1.651   2.971  19.707  0.00  0.00    +0.312 C 
ATOM     50  N   UNL     1       2.375   3.423  20.892  0.00  0.00    -0.225 N 
ATOM     51  H   UNL     1       2.997   2.756  21.351  0.00  0.00    +0.292 HD
ATOM     52  C   UNL     1       2.323   4.659  21.341  0.00  0.00    +0.277 C 
BRANCH  46  53
ATOM     53  N   UNL     1       0.922   6.202  18.253  0.00  0.00    -0.313 NA
ATOM     54  H   UNL     1      -0.062   5.949  18.334  0.00  0.00    +0.120 HD
ATOM     55  H   UNL     1       1.163   6.015  17.278  0.00  0.00    +0.120 HD
ENDBRANCH  46  53
ENDBRANCH  40  42
BRANCH  39  56
ATOM     56  O   UNL     1       5.493   3.453  22.074  0.00  0.00    -0.382 OA
ATOM     57  H   UNL     1       5.056   3.553  21.202  0.00  0.00    +0.210 HD
ENDBRANCH  39  56
BRANCH  38  58
ATOM     58  O   UNL     1       6.859   5.996  23.807  0.00  0.00    -0.278 OA
BRANCH  58  59
ATOM     59  P   UNL     1       8.241   5.962  23.008  0.00  0.00    +0.473 P 
ATOM     60  O   UNL     1       9.359   6.763  23.559  0.00  0.00    -0.228 OA
BRANCH  59  61
ATOM     61  O   UNL     1       8.549   4.422  22.749  0.00  0.00    -0.303 OA
ATOM     62  H   UNL     1       7.989   3.855  23.312  0.00  0.00    +0.222 HD
ENDBRANCH  59  61
BRANCH  59  63
ATOM     63  O   UNL     1       7.789   6.413  21.533  0.00  0.00    -0.303 OA
ATOM     64  H   UNL     1       8.544   6.563  20.933  0.00  0.00    +0.222 HD
ENDBRANCH  59  63
ENDBRANCH  58  59
ENDBRANCH  38  58
ENDBRANCH  36  37
ENDBRANCH  35  36
ENDBRANCH   1  35
TORSDOF 28
ENDMDL
MODEL 2
REMARK VINA RESULT:      -6.6      4.258      9.070
REMARK  Name = 
REMARK  31 active torsions:
REMARK  status: ('A' for Active; 'I' for Inactive)
REMARK    1  A    between atoms: C_1  and  C_2
REMARK    2  A    between atoms: C_2  and  C_3
REMARK    3  A    between atoms: C_3  and  S_5
REMARK    4  A    between atoms: S_5  and  C_6
REMARK    5  A    between atoms: C_6  and  C_7
REMARK    6  A    between atoms: C_7  and  N_8
REMARK    7  A    between atoms: C_9  and  C_11
REMARK    8  A    between atoms: C_11  and  C_12
REMARK    9  A    between atoms: C_12  and  N_13
REMARK   10  A    between atoms: C_14  and  C_16
REMARK   11  A    between atoms: C_16  and  O_18
REMARK   12  A    between atoms: C_16  and  C_19
REMARK   13  A    between atoms: C_19  and  C_20
REMARK   14  A    between atoms: C_19  and  C_21
REMARK   15  A    between atoms: C_19  and  C_22
REMARK   16  A    between atoms: C_22  and  O_23
REMARK   17  A    between atoms: O_23  and  P_24
REMARK   18  A    between atoms: P_24  and  O_25
REMARK   19  A    between atoms: P_24  and  O_27
REMARK   20  A    between atoms: O_27  and  P_28
REMARK   21  A    between atoms: P_28  and  O_29
REMARK   22  A    between atoms: P_28  and  O_31
REMARK   23  A    between atoms: O_31  and  C_32
REMARK   24  A    between atoms: C_32  and  C_33
REMARK   25  A    between atoms: C_36  and  N_48
REMARK   26  A    between atoms: C_38  and  O_40
REMARK   27  A    between atoms: C_41  and  O_43
REMARK   28  A    between atoms: O_43  and  P_44
REMARK   29  A    between atoms: P_44  and  O_45
REMARK   30  A    between atoms: P_44  and  O_46
REMARK   31  A    between atoms: C_53  and  N_54
REMARK                            x       y       z     vdW  Elec       q    Type
REMARK                         _______ _______ _______ _____ _____    ______ ____
ROOT
ATOM      1  P   UNL     1       6.267  -5.406  27.561  0.00  0.00    +0.483 P 
ATOM      2  O   UNL     1       6.407  -5.616  29.038  0.00  0.00    -0.227 OA
ENDROOT
BRANCH   1   3
ATOM      3  O   UNL     1       6.534  -3.836  27.302  0.00  0.00    -0.302 OA
ATOM      4  H   UNL     1       7.412  -3.737  26.886  0.00  0.00    +0.222 HD
ENDBRANCH   1   3
BRANCH   1   5
ATOM      5  O   UNL     1       4.765  -5.590  26.961  0.00  0.00    -0.186 OA
BRANCH   5   6
ATOM      6  P   UNL     1       3.993  -4.430  25.935  0.00  0.00    +0.483 P 
ATOM      7  O   UNL     1       3.038  -5.481  25.381  0.00  0.00    -0.227 OA
BRANCH   6   8
ATOM      8  O   UNL     1       3.222  -3.271  24.909  0.00  0.00    -0.302 OA
ATOM      9  H   UNL     1       2.626  -2.773  25.503  0.00  0.00    +0.222 HD
ENDBRANCH   6   8
BRANCH   6  10
ATOM     10  O   UNL     1       3.320  -3.686  27.245  0.00  0.00    -0.286 OA
BRANCH  10  11
ATOM     11  C   UNL     1       2.512  -2.520  27.053  0.00  0.00    +0.181 C 
BRANCH  11  12
ATOM     12  C   UNL     1       2.706  -1.470  28.157  0.00  0.00    +0.024 C 
ATOM     13  C   UNL     1       1.360  -1.226  28.851  0.00  0.00    +0.016 C 
ATOM     14  C   UNL     1       3.694  -2.034  29.210  0.00  0.00    +0.016 C 
BRANCH  12  15
ATOM     15  C   UNL     1       3.293  -0.149  27.558  0.00  0.00    +0.208 C 
BRANCH  15  18
ATOM     16  N   UNL     1       5.757   0.032  27.322  0.00  0.00    -0.313 N 
ATOM     17  H   UNL     1       5.689   0.572  28.180  0.00  0.00    +0.149 HD
ATOM     18  C   UNL     1       4.577  -0.344  26.709  0.00  0.00    +0.242 C 
ATOM     19  O   UNL     1       4.562  -0.857  25.593  0.00  0.00    -0.273 OA
BRANCH  16  20
ATOM     20  C   UNL     1       6.990   0.017  26.552  0.00  0.00    +0.113 C 
BRANCH  20  21
ATOM     21  C   UNL     1       7.449   1.395  26.107  0.00  0.00    +0.114 C 
BRANCH  21  24
ATOM     22  N   UNL     1       7.138   2.913  24.235  0.00  0.00    -0.314 N 
ATOM     23  H   UNL     1       7.252   3.655  24.915  0.00  0.00    +0.149 HD
ATOM     24  C   UNL     1       7.037   1.610  24.666  0.00  0.00    +0.215 C 
ATOM     25  O   UNL     1       6.703   0.681  23.938  0.00  0.00    -0.276 OA
BRANCH  22  26
ATOM     26  C   UNL     1       6.820   3.302  22.870  0.00  0.00    +0.115 C 
BRANCH  26  27
ATOM     27  C   UNL     1       5.690   4.328  22.763  0.00  0.00    +0.096 C 
BRANCH  27  28
ATOM     28  S   UNL     1       4.081   3.503  22.499  0.00  0.00    -0.087 S 
BRANCH  28  29
ATOM     29  C   UNL     1       3.568   3.320  24.181  0.00  0.00    +0.189 C 
ATOM     30  O   UNL     1       3.493   2.225  24.720  0.00  0.00    -0.285 OA
BRANCH  29  32
ATOM     31  C   UNL     1       1.921   4.582  25.623  0.00  0.00    +0.012 C 
ATOM     32  C   UNL     1       3.227   4.639  24.848  0.00  0.00    +0.083 C 
ENDBRANCH  29  32
ENDBRANCH  28  29
ENDBRANCH  27  28
ENDBRANCH  26  27
ENDBRANCH  22  26
ENDBRANCH  21  24
ENDBRANCH  20  21
ENDBRANCH  16  20
ENDBRANCH  15  18
BRANCH  15  33
ATOM     33  O   UNL     1       2.288   0.552  26.818  0.00  0.00    -0.382 OA
ATOM     34  H   UNL     1       1.710  -0.126  26.423  0.00  0.00    +0.210 HD
ENDBRANCH  15  33
ENDBRANCH  12  15
ENDBRANCH  11  12
ENDBRANCH  10  11
ENDBRANCH   6  10
ENDBRANCH   5   6
ENDBRANCH   1   5
BRANCH   1  35
ATOM     35  O   UNL     1       7.520  -6.098  26.777  0.00  0.00    -0.284 OA
BRANCH  35  36
ATOM     36  C   UNL     1       8.661  -5.471  26.168  0.00  0.00    +0.206 C 
BRANCH  36  37
ATOM     37  C   UNL     1       8.628  -4.993  24.631  0.00  0.00    +0.181 C 
ATOM     38  C   UNL     1       7.240  -4.716  24.018  0.00  0.00    +0.196 C 
ATOM     39  C   UNL     1       7.275  -3.242  23.633  0.00  0.00    +0.219 C 
ATOM     40  C   UNL     1       8.607  -2.717  24.157  0.00  0.00    +0.349 C 
ATOM     41  O   UNL     1       9.471  -3.844  24.304  0.00  0.00    -0.328 OA
BRANCH  40  42
ATOM     42  N   UNL     1       9.103  -1.679  23.252  0.00  0.00    -0.191 N 
ATOM     43  C   UNL     1       8.742  -1.517  21.886  0.00  0.00    +0.314 C 
ATOM     44  N   UNL     1       9.268  -0.478  21.300  0.00  0.00    -0.235 NA
ATOM     45  C   UNL     1      10.226   0.060  22.323  0.00  0.00    +0.251 C 
ATOM     46  C   UNL     1      10.072   1.548  22.669  0.00  0.00    +0.159 C 
ATOM     47  N   UNL     1      10.981   1.889  23.731  0.00  0.00    -0.265 NA
ATOM     48  H   UNL     1      10.869   2.862  24.004  0.00  0.00    +0.127 HD
ATOM     49  C   UNL     1      11.139   1.002  24.851  0.00  0.00    +0.312 C 
ATOM     50  N   UNL     1      10.333  -0.209  24.724  0.00  0.00    -0.225 N 
ATOM     51  H   UNL     1      10.048  -0.682  25.582  0.00  0.00    +0.292 HD
ATOM     52  C   UNL     1       9.895  -0.665  23.569  0.00  0.00    +0.277 C 
BRANCH  46  53
ATOM     53  N   UNL     1      10.453   2.455  21.610  0.00  0.00    -0.313 NA
ATOM     54  H   UNL     1       9.958   3.340  21.703  0.00  0.00    +0.120 HD
ATOM     55  H   UNL     1      10.168   2.087  20.701  0.00  0.00    +0.120 HD
ENDBRANCH  46  53
ENDBRANCH  40  42
BRANCH  39  56
ATOM     56  O   UNL     1       6.188  -2.445  24.129  0.00  0.00    -0.382 OA
ATOM     57  H   UNL     1       6.422  -1.500  24.021  0.00  0.00    +0.210 HD
ENDBRANCH  39  56
BRANCH  38  58
ATOM     58  O   UNL     1       7.098  -5.380  22.752  0.00  0.00    -0.278 OA
BRANCH  58  59
ATOM     59  P   UNL     1       5.671  -5.718  22.121  0.00  0.00    +0.473 P 
ATOM     60  O   UNL     1       5.641  -6.115  20.694  0.00  0.00    -0.228 OA
BRANCH  59  61
ATOM     61  O   UNL     1       4.980  -6.728  23.139  0.00  0.00    -0.303 OA
ATOM     62  H   UNL     1       4.960  -6.355  24.040  0.00  0.00    +0.222 HD
ENDBRANCH  59  61
BRANCH  59  63
ATOM     63  O   UNL     1       4.837  -4.381  22.438  0.00  0.00    -0.303 OA
ATOM     64  H   UNL     1       4.323  -4.062  21.672  0.00  0.00    +0.222 HD
ENDBRANCH  59  63
ENDBRANCH  58  59
ENDBRANCH  38  58
ENDBRANCH  36  37
ENDBRANCH  35  36
ENDBRANCH   1  35
TORSDOF 28
ENDMDL
MODEL 3
REMARK VINA RESULT:      -6.6      4.408      9.229
REMARK  Name = 
REMARK  31 active torsions:
REMARK  status: ('A' for Active; 'I' for Inactive)
REMARK    1  A    between atoms: C_1  and  C_2
REMARK    2  A    between atoms: C_2  and  C_3
REMARK    3  A    between atoms: C_3  and  S_5
REMARK    4  A    between atoms: S_5  and  C_6
REMARK    5  A    between atoms: C_6  and  C_7
REMARK    6  A    between atoms: C_7  and  N_8
REMARK    7  A    between atoms: C_9  and  C_11
REMARK    8  A    between atoms: C_11  and  C_12
REMARK    9  A    between atoms: C_12  and  N_13
REMARK   10  A    between atoms: C_14  and  C_16
REMARK   11  A    between atoms: C_16  and  O_18
REMARK   12  A    between atoms: C_16  and  C_19
REMARK   13  A    between atoms: C_19  and  C_20
REMARK   14  A    between atoms: C_19  and  C_21
REMARK   15  A    between atoms: C_19  and  C_22
REMARK   16  A    between atoms: C_22  and  O_23
REMARK   17  A    between atoms: O_23  and  P_24
REMARK   18  A    between atoms: P_24  and  O_25
REMARK   19  A    between atoms: P_24  and  O_27
REMARK   20  A    between atoms: O_27  and  P_28
REMARK   21  A    between atoms: P_28  and  O_29
REMARK   22  A    between atoms: P_28  and  O_31
REMARK   23  A    between atoms: O_31  and  C_32
REMARK   24  A    between atoms: C_32  and  C_33
REMARK   25  A    between atoms: C_36  and  N_48
REMARK   26  A    between atoms: C_38  and  O_40
REMARK   27  A    between atoms: C_41  and  O_43
REMARK   28  A    between atoms: O_43  and  P_44
REMARK   29  A    between atoms: P_44  and  O_45
REMARK   30  A    between atoms: P_44  and  O_46
REMARK   31  A    between atoms: C_53  and  N_54
REMARK                            x       y       z     vdW  Elec       q    Type
REMARK                         _______ _______ _______ _____ _____    ______ ____
ROOT
ATOM      1  P   UNL     1       6.972  -5.252  22.635  0.00  0.00    +0.483 P 
ATOM      2  O   UNL     1       6.834  -5.950  21.317  0.00  0.00    -0.227 OA
ENDROOT
BRANCH   1   3
ATOM      3  O   UNL     1       6.813  -3.676  22.329  0.00  0.00    -0.302 OA
ATOM      4  H   UNL     1       7.341  -3.461  21.536  0.00  0.00    +0.222 HD
ENDBRANCH   1   3
BRANCH   1   5
ATOM      5  O   UNL     1       8.452  -5.309  23.313  0.00  0.00    -0.186 OA
BRANCH   5   6
ATOM      6  P   UNL     1       8.748  -5.033  24.995  0.00  0.00    +0.483 P 
ATOM      7  O   UNL     1      10.218  -5.406  24.849  0.00  0.00    -0.227 OA
BRANCH   6   8
ATOM      8  O   UNL     1       9.043  -4.756  26.676  0.00  0.00    -0.302 OA
ATOM      9  H   UNL     1      10.007  -4.885  26.783  0.00  0.00    +0.222 HD
ENDBRANCH   6   8
BRANCH   6  10
ATOM     10  O   UNL     1       8.551  -3.408  24.786  0.00  0.00    -0.286 OA
BRANCH  10  11
ATOM     11  C   UNL     1       9.542  -2.666  24.068  0.00  0.00    +0.181 C 
BRANCH  11  12
ATOM     12  C   UNL     1       9.164  -1.189  23.882  0.00  0.00    +0.024 C 
ATOM     13  C   UNL     1       7.796  -0.940  24.529  0.00  0.00    +0.016 C 
ATOM     14  C   UNL     1      10.210  -0.312  24.617  0.00  0.00    +0.016 C 
BRANCH  12  15
ATOM     15  C   UNL     1       9.158  -0.814  22.362  0.00  0.00    +0.208 C 
BRANCH  15  18
ATOM     16  N   UNL     1       7.971   1.365  22.291  0.00  0.00    -0.313 N 
ATOM     17  H   UNL     1       7.142   0.793  22.427  0.00  0.00    +0.149 HD
ATOM     18  C   UNL     1       9.170   0.711  22.077  0.00  0.00    +0.242 C 
ATOM     19  O   UNL     1      10.187   1.315  21.747  0.00  0.00    -0.273 OA
BRANCH  16  20
ATOM     20  C   UNL     1       7.852   2.764  21.915  0.00  0.00    +0.113 C 
BRANCH  20  21
ATOM     21  C   UNL     1       6.456   3.331  22.101  0.00  0.00    +0.114 C 
BRANCH  21  24
ATOM     22  N   UNL     1       7.586   4.143  24.092  0.00  0.00    -0.314 N 
ATOM     23  H   UNL     1       8.381   3.603  23.771  0.00  0.00    +0.149 HD
ATOM     24  C   UNL     1       6.378   4.019  23.446  0.00  0.00    +0.215 C 
ATOM     25  O   UNL     1       5.328   4.477  23.884  0.00  0.00    -0.276 OA
BRANCH  22  26
ATOM     26  C   UNL     1       7.710   4.811  25.379  0.00  0.00    +0.115 C 
BRANCH  26  27
ATOM     27  C   UNL     1       8.839   5.843  25.438  0.00  0.00    +0.096 C 
BRANCH  27  28
ATOM     28  S   UNL     1       9.461   6.227  23.764  0.00  0.00    -0.087 S 
BRANCH  28  29
ATOM     29  C   UNL     1      10.851   5.137  23.710  0.00  0.00    +0.189 C 
ATOM     30  O   UNL     1      10.719   3.923  23.652  0.00  0.00    -0.285 OA
BRANCH  29  32
ATOM     31  C   UNL     1      13.275   5.130  22.998  0.00  0.00    +0.012 C 
ATOM     32  C   UNL     1      12.181   5.862  23.759  0.00  0.00    +0.083 C 
ENDBRANCH  29  32
ENDBRANCH  28  29
ENDBRANCH  27  28
ENDBRANCH  26  27
ENDBRANCH  22  26
ENDBRANCH  21  24
ENDBRANCH  20  21
ENDBRANCH  16  20
ENDBRANCH  15  18
BRANCH  15  33
ATOM     33  O   UNL     1      10.231  -1.473  21.682  0.00  0.00    -0.382 OA
ATOM     34  H   UNL     1       9.832  -1.960  20.939  0.00  0.00    +0.210 HD
ENDBRANCH  15  33
ENDBRANCH  12  15
ENDBRANCH  11  12
ENDBRANCH  10  11
ENDBRANCH   6  10
ENDBRANCH   5   6
ENDBRANCH   1   5
BRANCH   1  35
ATOM     35  O   UNL     1       5.667  -5.552  23.566  0.00  0.00    -0.284 OA
BRANCH  35  36
ATOM     36  C   UNL     1       4.552  -4.694  23.861  0.00  0.00    +0.206 C 
BRANCH  36  37
ATOM     37  C   UNL     1       4.141  -4.354  25.380  0.00  0.00    +0.181 C 
ATOM     38  C   UNL     1       5.209  -4.610  26.464  0.00  0.00    +0.196 C 
ATOM     39  C   UNL     1       5.468  -3.240  27.080  0.00  0.00    +0.219 C 
ATOM     40  C   UNL     1       4.654  -2.258  26.246  0.00  0.00    +0.349 C 
ATOM     41  O   UNL     1       3.618  -3.008  25.612  0.00  0.00    -0.328 OA
BRANCH  40  42
ATOM     42  N   UNL     1       4.184  -1.171  27.107  0.00  0.00    -0.191 N 
ATOM     43  C   UNL     1       2.898  -1.076  27.707  0.00  0.00    +0.314 C 
ATOM     44  N   UNL     1       2.732  -0.045  28.487  0.00  0.00    -0.235 NA
ATOM     45  C   UNL     1       3.988   0.755  28.289  0.00  0.00    +0.251 C 
ATOM     46  C   UNL     1       4.749   1.135  29.567  0.00  0.00    +0.159 C 
ATOM     47  N   UNL     1       5.975   1.801  29.214  0.00  0.00    -0.265 NA
ATOM     48  H   UNL     1       6.515   2.028  30.045  0.00  0.00    +0.127 HD
ATOM     49  C   UNL     1       6.780   1.296  28.136  0.00  0.00    +0.312 C 
ATOM     50  N   UNL     1       6.183   0.130  27.491  0.00  0.00    -0.225 N 
ATOM     51  H   UNL     1       6.810  -0.530  27.029  0.00  0.00    +0.292 HD
ATOM     52  C   UNL     1       4.897  -0.146  27.548  0.00  0.00    +0.277 C 
BRANCH  46  53
ATOM     53  N   UNL     1       4.079   2.106  30.401  0.00  0.00    -0.313 NA
ATOM     54  H   UNL     1       4.090   3.024  29.960  0.00  0.00    +0.120 HD
ATOM     55  H   UNL     1       4.581   2.231  31.282  0.00  0.00    +0.120 HD
ENDBRANCH  46  53
ENDBRANCH  40  42
BRANCH  39  56
ATOM     56  O   UNL     1       6.845  -2.836  27.135  0.00  0.00    -0.382 OA
ATOM     57  H   UNL     1       6.953  -2.027  26.592  0.00  0.00    +0.210 HD
ENDBRANCH  39  56
BRANCH  38  58
ATOM     58  O   UNL     1       4.657  -5.360  27.558  0.00  0.00    -0.278 OA
BRANCH  58  59
ATOM     59  P   UNL     1       5.576  -6.063  28.658  0.00  0.00    +0.473 P 
ATOM     60  O   UNL     1       5.803  -5.322  29.921  0.00  0.00    -0.228 OA
BRANCH  59  61
ATOM     61  O   UNL     1       5.006  -7.541  28.812  0.00  0.00    -0.303 OA
ATOM     62  H   UNL     1       5.518  -8.170  28.269  0.00  0.00    +0.222 HD
ENDBRANCH  59  61
BRANCH  59  63
ATOM     63  O   UNL     1       6.922  -6.362  27.833  0.00  0.00    -0.303 OA
ATOM     64  H   UNL     1       6.762  -6.868  27.014  0.00  0.00    +0.222 HD
ENDBRANCH  59  63
ENDBRANCH  58  59
ENDBRANCH  38  58
ENDBRANCH  36  37
ENDBRANCH  35  36
ENDBRANCH   1  35
TORSDOF 28
ENDMDL
MODEL 4
REMARK VINA RESULT:      -6.5      3.993      9.428
REMARK  Name = 
REMARK  31 active torsions:
REMARK  status: ('A' for Active; 'I' for Inactive)
REMARK    1  A    between atoms: C_1  and  C_2
REMARK    2  A    between atoms: C_2  and  C_3
REMARK    3  A    between atoms: C_3  and  S_5
REMARK    4  A    between atoms: S_5  and  C_6
REMARK    5  A    between atoms: C_6  and  C_7
REMARK    6  A    between atoms: C_7  and  N_8
REMARK    7  A    between atoms: C_9  and  C_11
REMARK    8  A    between atoms: C_11  and  C_12
REMARK    9  A    between atoms: C_12  and  N_13
REMARK   10  A    between atoms: C_14  and  C_16
REMARK   11  A    between atoms: C_16  and  O_18
REMARK   12  A    between atoms: C_16  and  C_19
REMARK   13  A    between atoms: C_19  and  C_20
REMARK   14  A    between atoms: C_19  and  C_21
REMARK   15  A    between atoms: C_19  and  C_22
REMARK   16  A    between atoms: C_22  and  O_23
REMARK   17  A    between atoms: O_23  and  P_24
REMARK   18  A    between atoms: P_24  and  O_25
REMARK   19  A    between atoms: P_24  and  O_27
REMARK   20  A    between atoms: O_27  and  P_28
REMARK   21  A    between atoms: P_28  and  O_29
REMARK   22  A    between atoms: P_28  and  O_31
REMARK   23  A    between atoms: O_31  and  C_32
REMARK   24  A    between atoms: C_32  and  C_33
REMARK   25  A    between atoms: C_36  and  N_48
REMARK   26  A    between atoms: C_38  and  O_40
REMARK   27  A    between atoms: C_41  and  O_43
REMARK   28  A    between atoms: O_43  and  P_44
REMARK   29  A    between atoms: P_44  and  O_45
REMARK   30  A    between atoms: P_44  and  O_46
REMARK   31  A    between atoms: C_53  and  N_54
REMARK                            x       y       z     vdW  Elec       q    Type
REMARK                         _______ _______ _______ _____ _____    ______ ____
ROOT
ATOM      1  P   UNL     1       5.596  -6.137  28.042  0.00  0.00    +0.483 P 
ATOM      2  O   UNL     1       5.285  -7.480  28.628  0.00  0.00    -0.227 OA
ENDROOT
BRANCH   1   3
ATOM      3  O   UNL     1       6.062  -5.205  29.274  0.00  0.00    -0.302 OA
ATOM      4  H   UNL     1       5.287  -4.702  29.591  0.00  0.00    +0.222 HD
ENDBRANCH   1   3
BRANCH   1   5
ATOM      5  O   UNL     1       4.320  -5.306  27.464  0.00  0.00    -0.186 OA
BRANCH   5   6
ATOM      6  P   UNL     1       4.372  -3.623  27.066  0.00  0.00    +0.483 P 
ATOM      7  O   UNL     1       3.908  -3.895  25.640  0.00  0.00    -0.227 OA
BRANCH   6   8
ATOM      8  O   UNL     1       4.424  -1.941  26.668  0.00  0.00    -0.302 OA
ATOM      9  H   UNL     1       3.786  -1.522  27.280  0.00  0.00    +0.222 HD
ENDBRANCH   6   8
BRANCH   6  10
ATOM     10  O   UNL     1       3.071  -3.329  28.038  0.00  0.00    -0.286 OA
BRANCH  10  11
ATOM     11  C   UNL     1       3.024  -2.122  28.805  0.00  0.00    +0.181 C 
BRANCH  11  12
ATOM     12  C   UNL     1       1.616  -1.515  28.879  0.00  0.00    +0.024 C 
ATOM     13  C   UNL     1       0.586  -2.652  28.910  0.00  0.00    +0.016 C 
ATOM     14  C   UNL     1       1.489  -0.716  30.201  0.00  0.00    +0.016 C 
BRANCH  12  15
ATOM     15  C   UNL     1       1.371  -0.551  27.671  0.00  0.00    +0.208 C 
BRANCH  15  18
ATOM     16  N   UNL     1       3.519   0.690  27.563  0.00  0.00    -0.313 N 
ATOM     17  H   UNL     1       3.930  -0.240  27.582  0.00  0.00    +0.149 HD
ATOM     18  C   UNL     1       2.153   0.788  27.750  0.00  0.00    +0.242 C 
ATOM     19  O   UNL     1       1.596   1.872  27.900  0.00  0.00    -0.273 OA
BRANCH  16  20
ATOM     20  C   UNL     1       4.345   1.869  27.760  0.00  0.00    +0.113 C 
BRANCH  20  21
ATOM     21  C   UNL     1       5.636   1.852  26.960  0.00  0.00    +0.114 C 
BRANCH  21  24
ATOM     22  N   UNL     1       5.151   2.829  24.788  0.00  0.00    -0.314 N 
ATOM     23  H   UNL     1       5.042   3.703  25.289  0.00  0.00    +0.149 HD
ATOM     24  C   UNL     1       5.306   1.659  25.495  0.00  0.00    +0.215 C 
ATOM     25  O   UNL     1       5.246   0.546  24.982  0.00  0.00    -0.276 OA
BRANCH  22  26
ATOM     26  C   UNL     1       4.868   2.837  23.361  0.00  0.00    +0.115 C 
BRANCH  26  27
ATOM     27  C   UNL     1       5.948   3.519  22.517  0.00  0.00    +0.096 C 
BRANCH  27  28
ATOM     28  S   UNL     1       5.928   5.328  22.768  0.00  0.00    -0.087 S 
BRANCH  28  29
ATOM     29  C   UNL     1       7.415   5.510  23.705  0.00  0.00    +0.189 C 
ATOM     30  O   UNL     1       7.555   4.995  24.806  0.00  0.00    -0.285 OA
BRANCH  29  32
ATOM     31  C   UNL     1       9.803   6.336  23.718  0.00  0.00    +0.012 C 
ATOM     32  C   UNL     1       8.457   6.366  23.012  0.00  0.00    +0.083 C 
ENDBRANCH  29  32
ENDBRANCH  28  29
ENDBRANCH  27  28
ENDBRANCH  26  27
ENDBRANCH  22  26
ENDBRANCH  21  24
ENDBRANCH  20  21
ENDBRANCH  16  20
ENDBRANCH  15  18
BRANCH  15  33
ATOM     33  O   UNL     1       1.629  -1.225  26.435  0.00  0.00    -0.382 OA
ATOM     34  H   UNL     1       1.236  -2.113  26.516  0.00  0.00    +0.210 HD
ENDBRANCH  15  33
ENDBRANCH  12  15
ENDBRANCH  11  12
ENDBRANCH  10  11
ENDBRANCH   6  10
ENDBRANCH   5   6
ENDBRANCH   1   5
BRANCH   1  35
ATOM     35  O   UNL     1       6.955  -6.219  27.144  0.00  0.00    -0.284 OA
BRANCH  35  36
ATOM     36  C   UNL     1       7.877  -5.169  26.803  0.00  0.00    +0.206 C 
BRANCH  36  37
ATOM     37  C   UNL     1       8.169  -4.783  25.268  0.00  0.00    +0.181 C 
ATOM     38  C   UNL     1       6.944  -4.486  24.379  0.00  0.00    +0.196 C 
ATOM     39  C   UNL     1       7.130  -3.040  23.936  0.00  0.00    +0.219 C 
ATOM     40  C   UNL     1       8.359  -2.539  24.686  0.00  0.00    +0.349 C 
ATOM     41  O   UNL     1       9.118  -3.690  25.057  0.00  0.00    -0.328 OA
BRANCH  40  42
ATOM     42  N   UNL     1       9.076  -1.578  23.846  0.00  0.00    -0.191 N 
ATOM     43  C   UNL     1       9.686  -1.854  22.591  0.00  0.00    +0.314 C 
ATOM     44  N   UNL     1      10.211  -0.820  21.998  0.00  0.00    -0.235 NA
ATOM     45  C   UNL     1      10.095   0.273  23.022  0.00  0.00    +0.251 C 
ATOM     46  C   UNL     1       9.416   1.566  22.547  0.00  0.00    +0.159 C 
ATOM     47  N   UNL     1       9.284   2.472  23.657  0.00  0.00    -0.265 NA
ATOM     48  H   UNL     1       8.801   3.322  23.375  0.00  0.00    +0.127 HD
ATOM     49  C   UNL     1       8.857   1.978  24.938  0.00  0.00    +0.312 C 
ATOM     50  N   UNL     1       8.643   0.534  24.937  0.00  0.00    -0.225 N 
ATOM     51  H   UNL     1       7.979   0.152  25.612  0.00  0.00    +0.292 HD
ATOM     52  C   UNL     1       9.199  -0.277  24.062  0.00  0.00    +0.277 C 
BRANCH  46  53
ATOM     53  N   UNL     1      10.182   2.333  21.591  0.00  0.00    -0.313 NA
ATOM     54  H   UNL     1      11.075   1.879  21.403  0.00  0.00    +0.120 HD
ATOM     55  H   UNL     1      10.427   3.247  21.976  0.00  0.00    +0.120 HD
ENDBRANCH  46  53
ENDBRANCH  40  42
BRANCH  39  56
ATOM     56  O   UNL     1       6.010  -2.171  24.167  0.00  0.00    -0.382 OA
ATOM     57  H   UNL     1       5.213  -2.723  24.310  0.00  0.00    +0.210 HD
ENDBRANCH  39  56
BRANCH  38  58
ATOM     58  O   UNL     1       7.018  -5.217  23.145  0.00  0.00    -0.278 OA
BRANCH  58  59
ATOM     59  P   UNL     1       5.716  -5.624  22.316  0.00  0.00    +0.473 P 
ATOM     60  O   UNL     1       5.861  -5.739  20.846  0.00  0.00    -0.228 OA
BRANCH  59  61
ATOM     61  O   UNL     1       5.115  -6.898  23.058  0.00  0.00    -0.303 OA
ATOM     62  H   UNL     1       4.216  -7.097  22.737  0.00  0.00    +0.222 HD
ENDBRANCH  59  61
BRANCH  59  63
ATOM     63  O   UNL     1       4.659  -4.503  22.776  0.00  0.00    -0.303 OA
ATOM     64  H   UNL     1       4.175  -4.747  23.588  0.00  0.00    +0.222 HD
ENDBRANCH  59  63
ENDBRANCH  58  59
ENDBRANCH  38  58
ENDBRANCH  36  37
ENDBRANCH  35  36
ENDBRANCH   1  35
TORSDOF 28
ENDMDL
MODEL 5
REMARK VINA RESULT:      -6.5      3.624      9.389
REMARK  Name = 
REMARK  31 active torsions:
REMARK  status: ('A' for Active; 'I' for Inactive)
REMARK    1  A    between atoms: C_1  and  C_2
REMARK    2  A    between atoms: C_2  and  C_3
REMARK    3  A    between atoms: C_3  and  S_5
REMARK    4  A    between atoms: S_5  and  C_6
REMARK    5  A    between atoms: C_6  and  C_7
REMARK    6  A    between atoms: C_7  and  N_8
REMARK    7  A    between atoms: C_9  and  C_11
REMARK    8  A    between atoms: C_11  and  C_12
REMARK    9  A    between atoms: C_12  and  N_13
REMARK   10  A    between atoms: C_14  and  C_16
REMARK   11  A    between atoms: C_16  and  O_18
REMARK   12  A    between atoms: C_16  and  C_19
REMARK   13  A    between atoms: C_19  and  C_20
REMARK   14  A    between atoms: C_19  and  C_21
REMARK   15  A    between atoms: C_19  and  C_22
REMARK   16  A    between atoms: C_22  and  O_23
REMARK   17  A    between atoms: O_23  and  P_24
REMARK   18  A    between atoms: P_24  and  O_25
REMARK   19  A    between atoms: P_24  and  O_27
REMARK   20  A    between atoms: O_27  and  P_28
REMARK   21  A    between atoms: P_28  and  O_29
REMARK   22  A    between atoms: P_28  and  O_31
REMARK   23  A    between atoms: O_31  and  C_32
REMARK   24  A    between atoms: C_32  and  C_33
REMARK   25  A    between atoms: C_36  and  N_48
REMARK   26  A    between atoms: C_38  and  O_40
REMARK   27  A    between atoms: C_41  and  O_43
REMARK   28  A    between atoms: O_43  and  P_44
REMARK   29  A    between atoms: P_44  and  O_45
REMARK   30  A    between atoms: P_44  and  O_46
REMARK   31  A    between atoms: C_53  and  N_54
REMARK                            x       y       z     vdW  Elec       q    Type
REMARK                         _______ _______ _______ _____ _____    ______ ____
ROOT
ATOM      1  P   UNL     1       9.397  -1.821  22.760  0.00  0.00    +0.483 P 
ATOM      2  O   UNL     1      10.194  -2.776  23.595  0.00  0.00    -0.227 OA
ENDROOT
BRANCH   1   3
ATOM      3  O   UNL     1      10.270  -1.550  21.430  0.00  0.00    -0.302 OA
ATOM      4  H   UNL     1      10.973  -2.226  21.379  0.00  0.00    +0.222 HD
ENDBRANCH   1   3
BRANCH   1   5
ATOM      5  O   UNL     1       9.239  -0.316  23.364  0.00  0.00    -0.186 OA
BRANCH   5   6
ATOM      6  P   UNL     1       9.815   1.104  22.563  0.00  0.00    +0.483 P 
ATOM      7  O   UNL     1       8.696   1.036  21.531  0.00  0.00    -0.227 OA
BRANCH   6   8
ATOM      8  O   UNL     1      10.391   2.525  21.761  0.00  0.00    -0.302 OA
ATOM      9  H   UNL     1       9.641   3.151  21.798  0.00  0.00    +0.222 HD
ENDBRANCH   6   8
BRANCH   6  10
ATOM     10  O   UNL     1       9.352   2.041  23.840  0.00  0.00    -0.286 OA
BRANCH  10  11
ATOM     11  C   UNL     1       9.813   3.393  23.924  0.00  0.00    +0.181 C 
BRANCH  11  12
ATOM     12  C   UNL     1       8.667   4.410  24.033  0.00  0.00    +0.024 C 
ATOM     13  C   UNL     1       8.348   4.642  25.515  0.00  0.00    +0.016 C 
ATOM     14  C   UNL     1       9.139   5.756  23.426  0.00  0.00    +0.016 C 
BRANCH  12  15
ATOM     15  C   UNL     1       7.412   3.905  23.246  0.00  0.00    +0.208 C 
BRANCH  15  18
ATOM     16  N   UNL     1       5.327   4.015  24.589  0.00  0.00    -0.313 N 
ATOM     17  H   UNL     1       5.576   3.066  24.851  0.00  0.00    +0.149 HD
ATOM     18  C   UNL     1       6.089   4.629  23.613  0.00  0.00    +0.242 C 
ATOM     19  O   UNL     1       5.768   5.708  23.123  0.00  0.00    -0.273 OA
BRANCH  16  20
ATOM     20  C   UNL     1       4.008   4.547  24.893  0.00  0.00    +0.113 C 
BRANCH  20  21
ATOM     21  C   UNL     1       2.995   3.484  25.281  0.00  0.00    +0.114 C 
BRANCH  21  24
ATOM     22  N   UNL     1       3.594   2.509  27.425  0.00  0.00    -0.314 N 
ATOM     23  H   UNL     1       3.273   3.382  27.827  0.00  0.00    +0.149 HD
ATOM     24  C   UNL     1       3.699   2.392  26.058  0.00  0.00    +0.215 C 
ATOM     25  O   UNL     1       4.260   1.454  25.501  0.00  0.00    -0.276 OA
BRANCH  22  26
ATOM     26  C   UNL     1       4.176   1.531  28.331  0.00  0.00    +0.115 C 
BRANCH  26  27
ATOM     27  C   UNL     1       4.961   2.149  29.492  0.00  0.00    +0.096 C 
BRANCH  27  28
ATOM     28  S   UNL     1       4.807   3.969  29.488  0.00  0.00    -0.087 S 
BRANCH  28  29
ATOM     29  C   UNL     1       6.433   4.399  28.945  0.00  0.00    +0.189 C 
ATOM     30  O   UNL     1       7.302   3.555  28.771  0.00  0.00    -0.285 OA
BRANCH  29  32
ATOM     31  C   UNL     1       5.786   6.434  27.595  0.00  0.00    +0.012 C 
ATOM     32  C   UNL     1       6.622   5.890  28.743  0.00  0.00    +0.083 C 
ENDBRANCH  29  32
ENDBRANCH  28  29
ENDBRANCH  27  28
ENDBRANCH  26  27
ENDBRANCH  22  26
ENDBRANCH  21  24
ENDBRANCH  20  21
ENDBRANCH  16  20
ENDBRANCH  15  18
BRANCH  15  33
ATOM     33  O   UNL     1       7.653   3.957  21.836  0.00  0.00    -0.382 OA
ATOM     34  H   UNL     1       8.611   4.093  21.723  0.00  0.00    +0.210 HD
ENDBRANCH  15  33
ENDBRANCH  12  15
ENDBRANCH  11  12
ENDBRANCH  10  11
ENDBRANCH   6  10
ENDBRANCH   5   6
ENDBRANCH   1   5
BRANCH   1  35
ATOM     35  O   UNL     1       8.080  -2.570  22.156  0.00  0.00    -0.284 OA
BRANCH  35  36
ATOM     36  C   UNL     1       6.850  -2.908  22.819  0.00  0.00    +0.206 C 
BRANCH  36  37
ATOM     37  C   UNL     1       6.781  -3.061  24.420  0.00  0.00    +0.181 C 
ATOM     38  C   UNL     1       6.379  -1.807  25.223  0.00  0.00    +0.196 C 
ATOM     39  C   UNL     1       5.093  -2.204  25.938  0.00  0.00    +0.219 C 
ATOM     40  C   UNL     1       4.748  -3.594  25.416  0.00  0.00    +0.349 C 
ATOM     41  O   UNL     1       5.959  -4.164  24.918  0.00  0.00    -0.328 OA
BRANCH  40  42
ATOM     42  N   UNL     1       4.104  -4.361  26.483  0.00  0.00    -0.191 N 
ATOM     43  C   UNL     1       2.708  -4.597  26.618  0.00  0.00    +0.314 C 
ATOM     44  N   UNL     1       2.377  -5.365  27.617  0.00  0.00    -0.235 NA
ATOM     45  C   UNL     1       3.668  -5.562  28.357  0.00  0.00    +0.251 C 
ATOM     46  C   UNL     1       4.068  -7.019  28.634  0.00  0.00    +0.159 C 
ATOM     47  N   UNL     1       5.368  -7.051  29.250  0.00  0.00    -0.265 NA
ATOM     48  H   UNL     1       5.671  -8.008  29.407  0.00  0.00    +0.127 HD
ATOM     49  C   UNL     1       6.415  -6.200  28.755  0.00  0.00    +0.312 C 
ATOM     50  N   UNL     1       5.972  -5.347  27.655  0.00  0.00    -0.225 N 
ATOM     51  H   UNL     1       6.675  -5.032  26.986  0.00  0.00    +0.292 HD
ATOM     52  C   UNL     1       4.709  -5.040  27.446  0.00  0.00    +0.277 C 
BRANCH  46  53
ATOM     53  N   UNL     1       3.234  -7.700  29.598  0.00  0.00    -0.313 NA
ATOM     54  H   UNL     1       3.513  -7.456  30.547  0.00  0.00    +0.120 HD
ATOM     55  H   UNL     1       3.365  -8.711  29.536  0.00  0.00    +0.120 HD
ENDBRANCH  46  53
ENDBRANCH  40  42
BRANCH  39  56
ATOM     56  O   UNL     1       3.983  -1.309  25.761  0.00  0.00    -0.382 OA
ATOM     57  H   UNL     1       3.664  -1.389  24.838  0.00  0.00    +0.210 HD
ENDBRANCH  39  56
BRANCH  38  58
ATOM     58  O   UNL     1       7.295  -1.577  26.305  0.00  0.00    -0.278 OA
BRANCH  58  59
ATOM     59  P   UNL     1       7.844  -0.121  26.661  0.00  0.00    +0.473 P 
ATOM     60  O   UNL     1       7.588   0.380  28.032  0.00  0.00    -0.228 OA
BRANCH  59  61
ATOM     61  O   UNL     1       9.364  -0.108  26.189  0.00  0.00    -0.303 OA
ATOM     62  H   UNL     1       9.717   0.801  26.174  0.00  0.00    +0.222 HD
ENDBRANCH  59  61
BRANCH  59  63
ATOM     63  O   UNL     1       7.181   0.782  25.508  0.00  0.00    -0.303 OA
ATOM     64  H   UNL     1       7.159   1.732  25.734  0.00  0.00    +0.222 HD
ENDBRANCH  59  63
ENDBRANCH  58  59
ENDBRANCH  38  58
ENDBRANCH  36  37
ENDBRANCH  35  36
ENDBRANCH   1  35
TORSDOF 28
ENDMDL
MODEL 6
REMARK VINA RESULT:      -6.5      3.726      9.037
REMARK  Name = 
REMARK  31 active torsions:
REMARK  status: ('A' for Active; 'I' for Inactive)
REMARK    1  A    between atoms: C_1  and  C_2
REMARK    2  A    between atoms: C_2  and  C_3
REMARK    3  A    between atoms: C_3  and  S_5
REMARK    4  A    between atoms: S_5  and  C_6
REMARK    5  A    between atoms: C_6  and  C_7
REMARK    6  A    between atoms: C_7  and  N_8
REMARK    7  A    between atoms: C_9  and  C_11
REMARK    8  A    between atoms: C_11  and  C_12
REMARK    9  A    between atoms: C_12  and  N_13
REMARK   10  A    between atoms: C_14  and  C_16
REMARK   11  A    between atoms: C_16  and  O_18
REMARK   12  A    between atoms: C_16  and  C_19
REMARK   13  A    between atoms: C_19  and  C_20
REMARK   14  A    between atoms: C_19  and  C_21
REMARK   15  A    between atoms: C_19  and  C_22
REMARK   16  A    between atoms: C_22  and  O_23
REMARK   17  A    between atoms: O_23  and  P_24
REMARK   18  A    between atoms: P_24  and  O_25
REMARK   19  A    between atoms: P_24  and  O_27
REMARK   20  A    between atoms: O_27  and  P_28
REMARK   21  A    between atoms: P_28  and  O_29
REMARK   22  A    between atoms: P_28  and  O_31
REMARK   23  A    between atoms: O_31  and  C_32
REMARK   24  A    between atoms: C_32  and  C_33
REMARK   25  A    between atoms: C_36  and  N_48
REMARK   26  A    between atoms: C_38  and  O_40
REMARK   27  A    between atoms: C_41  and  O_43
REMARK   28  A    between atoms: O_43  and  P_44
REMARK   29  A    between atoms: P_44  and  O_45
REMARK   30  A    between atoms: P_44  and  O_46
REMARK   31  A    between atoms: C_53  and  N_54
REMARK                            x       y       z     vdW  Elec       q    Type
REMARK                         _______ _______ _______ _____ _____    ______ ____
ROOT
ATOM      1  P   UNL     1       6.299  -4.149  22.231  0.00  0.00    +0.483 P 
ATOM      2  O   UNL     1       5.903  -4.858  20.972  0.00  0.00    -0.227 OA
ENDROOT
BRANCH   1   3
ATOM      3  O   UNL     1       5.540  -2.725  22.204  0.00  0.00    -0.302 OA
ATOM      4  H   UNL     1       5.542  -2.393  21.285  0.00  0.00    +0.222 HD
ENDBRANCH   1   3
BRANCH   1   5
ATOM      5  O   UNL     1       7.859  -3.690  22.322  0.00  0.00    -0.186 OA
BRANCH   5   6
ATOM      6  P   UNL     1       8.468  -2.594  23.513  0.00  0.00    +0.483 P 
ATOM      7  O   UNL     1       9.904  -2.811  23.051  0.00  0.00    -0.227 OA
BRANCH   6   8
ATOM      8  O   UNL     1       9.077  -1.498  24.705  0.00  0.00    -0.302 OA
ATOM      9  H   UNL     1       8.619  -1.750  25.531  0.00  0.00    +0.222 HD
ENDBRANCH   6   8
BRANCH   6  10
ATOM     10  O   UNL     1       7.801  -1.315  22.711  0.00  0.00    -0.286 OA
BRANCH  10  11
ATOM     11  C   UNL     1       7.984   0.009  23.222  0.00  0.00    +0.181 C 
BRANCH  11  12
ATOM     12  C   UNL     1       8.760   0.920  22.260  0.00  0.00    +0.024 C 
ATOM     13  C   UNL     1       9.311   0.070  21.107  0.00  0.00    +0.016 C 
ATOM     14  C   UNL     1       7.780   1.961  21.663  0.00  0.00    +0.016 C 
BRANCH  12  15
ATOM     15  C   UNL     1       9.905   1.669  23.019  0.00  0.00    +0.208 C 
BRANCH  15  18
ATOM     16  N   UNL     1       9.762   4.124  23.360  0.00  0.00    -0.313 N 
ATOM     17  H   UNL     1      10.439   4.158  22.603  0.00  0.00    +0.149 HD
ATOM     18  C   UNL     1       9.429   2.881  23.864  0.00  0.00    +0.242 C 
ATOM     19  O   UNL     1       8.746   2.755  24.877  0.00  0.00    -0.273 OA
BRANCH  16  20
ATOM     20  C   UNL     1       9.481   5.308  24.156  0.00  0.00    +0.113 C 
BRANCH  20  21
ATOM     21  C   UNL     1       9.011   6.498  23.337  0.00  0.00    +0.114 C 
BRANCH  21  24
ATOM     22  N   UNL     1       6.620   6.906  23.487  0.00  0.00    -0.314 N 
ATOM     23  H   UNL     1       6.828   7.351  24.374  0.00  0.00    +0.149 HD
ATOM     24  C   UNL     1       7.614   6.223  22.825  0.00  0.00    +0.215 C 
ATOM     25  O   UNL     1       7.405   5.496  21.859  0.00  0.00    -0.276 OA
BRANCH  22  26
ATOM     26  C   UNL     1       5.220   6.795  23.108  0.00  0.00    +0.115 C 
BRANCH  26  27
ATOM     27  C   UNL     1       4.396   5.893  24.032  0.00  0.00    +0.096 C 
BRANCH  27  28
ATOM     28  S   UNL     1       2.986   5.154  23.135  0.00  0.00    -0.087 S 
BRANCH  28  29
ATOM     29  C   UNL     1       3.263   3.449  23.509  0.00  0.00    +0.189 C 
ATOM     30  O   UNL     1       2.351   2.700  23.828  0.00  0.00    -0.285 OA
BRANCH  29  32
ATOM     31  C   UNL     1       5.171   2.177  24.570  0.00  0.00    +0.012 C 
ATOM     32  C   UNL     1       4.721   3.044  23.405  0.00  0.00    +0.083 C 
ENDBRANCH  29  32
ENDBRANCH  28  29
ENDBRANCH  27  28
ENDBRANCH  26  27
ENDBRANCH  22  26
ENDBRANCH  21  24
ENDBRANCH  20  21
ENDBRANCH  16  20
ENDBRANCH  15  18
BRANCH  15  33
ATOM     33  O   UNL     1      10.658   0.751  23.817  0.00  0.00    -0.382 OA
ATOM     34  H   UNL     1      10.114  -0.053  23.905  0.00  0.00    +0.210 HD
ENDBRANCH  15  33
ENDBRANCH  12  15
ENDBRANCH  11  12
ENDBRANCH  10  11
ENDBRANCH   6  10
ENDBRANCH   5   6
ENDBRANCH   1   5
BRANCH   1  35
ATOM     35  O   UNL     1       5.615  -4.875  23.521  0.00  0.00    -0.284 OA
BRANCH  35  36
ATOM     36  C   UNL     1       4.435  -4.497  24.250  0.00  0.00    +0.206 C 
BRANCH  36  37
ATOM     37  C   UNL     1       4.524  -3.992  25.776  0.00  0.00    +0.181 C 
ATOM     38  C   UNL     1       5.685  -4.548  26.627  0.00  0.00    +0.196 C 
ATOM     39  C   UNL     1       6.497  -3.320  27.021  0.00  0.00    +0.219 C 
ATOM     40  C   UNL     1       5.855  -2.153  26.280  0.00  0.00    +0.349 C 
ATOM     41  O   UNL     1       4.518  -2.542  25.967  0.00  0.00    -0.328 OA
BRANCH  40  42
ATOM     42  N   UNL     1       5.966  -0.945  27.099  0.00  0.00    -0.191 N 
ATOM     43  C   UNL     1       7.071  -0.049  27.125  0.00  0.00    +0.314 C 
ATOM     44  N   UNL     1       6.912   0.994  27.889  0.00  0.00    -0.235 NA
ATOM     45  C   UNL     1       5.617   0.721  28.599  0.00  0.00    +0.251 C 
ATOM     46  C   UNL     1       4.560   1.832  28.515  0.00  0.00    +0.159 C 
ATOM     47  N   UNL     1       3.346   1.385  29.146  0.00  0.00    -0.265 NA
ATOM     48  H   UNL     1       2.618   2.090  29.069  0.00  0.00    +0.127 HD
ATOM     49  C   UNL     1       2.868   0.050  28.915  0.00  0.00    +0.312 C 
ATOM     50  N   UNL     1       3.756  -0.721  28.049  0.00  0.00    -0.225 N 
ATOM     51  H   UNL     1       3.346  -1.480  27.503  0.00  0.00    +0.292 HD
ATOM     52  C   UNL     1       5.029  -0.431  27.882  0.00  0.00    +0.277 C 
BRANCH  46  53
ATOM     53  N   UNL     1       4.887   3.032  29.250  0.00  0.00    -0.313 NA
ATOM     54  H   UNL     1       4.852   2.857  30.253  0.00  0.00    +0.120 HD
ATOM     55  H   UNL     1       4.187   3.757  29.084  0.00  0.00    +0.120 HD
ENDBRANCH  46  53
ENDBRANCH  40  42
BRANCH  39  56
ATOM     56  O   UNL     1       7.902  -3.389  26.735  0.00  0.00    -0.382 OA
ATOM     57  H   UNL     1       8.017  -3.699  25.813  0.00  0.00    +0.210 HD
ENDBRANCH  39  56
BRANCH  38  58
ATOM     58  O   UNL     1       5.204  -5.040  27.888  0.00  0.00    -0.278 OA
BRANCH  58  59
ATOM     59  P   UNL     1       6.031  -6.084  28.767  0.00  0.00    +0.473 P 
ATOM     60  O   UNL     1       6.195  -5.775  30.206  0.00  0.00    -0.228 OA
BRANCH  59  61
ATOM     61  O   UNL     1       5.415  -7.513  28.428  0.00  0.00    -0.303 OA
ATOM     62  H   UNL     1       5.716  -8.183  29.068  0.00  0.00    +0.222 HD
ENDBRANCH  59  61
BRANCH  59  63
ATOM     63  O   UNL     1       7.420  -6.177  27.963  0.00  0.00    -0.303 OA
ATOM     64  H   UNL     1       8.123  -5.623  28.353  0.00  0.00    +0.222 HD
ENDBRANCH  59  63
ENDBRANCH  58  59
ENDBRANCH  38  58
ENDBRANCH  36  37
ENDBRANCH  35  36
ENDBRANCH   1  35
TORSDOF 28
ENDMDL
MODEL 7
REMARK VINA RESULT:      -6.4      4.737      9.371
REMARK  Name = 
REMARK  31 active torsions:
REMARK  status: ('A' for Active; 'I' for Inactive)
REMARK    1  A    between atoms: C_1  and  C_2
REMARK    2  A    between atoms: C_2  and  C_3
REMARK    3  A    between atoms: C_3  and  S_5
REMARK    4  A    between atoms: S_5  and  C_6
REMARK    5  A    between atoms: C_6  and  C_7
REMARK    6  A    between atoms: C_7  and  N_8
REMARK    7  A    between atoms: C_9  and  C_11
REMARK    8  A    between atoms: C_11  and  C_12
REMARK    9  A    between atoms: C_12  and  N_13
REMARK   10  A    between atoms: C_14  and  C_16
REMARK   11  A    between atoms: C_16  and  O_18
REMARK   12  A    between atoms: C_16  and  C_19
REMARK   13  A    between atoms: C_19  and  C_20
REMARK   14  A    between atoms: C_19  and  C_21
REMARK   15  A    between atoms: C_19  and  C_22
REMARK   16  A    between atoms: C_22  and  O_23
REMARK   17  A    between atoms: O_23  and  P_24
REMARK   18  A    between atoms: P_24  and  O_25
REMARK   19  A    between atoms: P_24  and  O_27
REMARK   20  A    between atoms: O_27  and  P_28
REMARK   21  A    between atoms: P_28  and  O_29
REMARK   22  A    between atoms: P_28  and  O_31
REMARK   23  A    between atoms: O_31  and  C_32
REMARK   24  A    between atoms: C_32  and  C_33
REMARK   25  A    between atoms: C_36  and  N_48
REMARK   26  A    between atoms: C_38  and  O_40
REMARK   27  A    between atoms: C_41  and  O_43
REMARK   28  A    between atoms: O_43  and  P_44
REMARK   29  A    between atoms: P_44  and  O_45
REMARK   30  A    between atoms: P_44  and  O_46
REMARK   31  A    between atoms: C_53  and  N_54
REMARK                            x       y       z     vdW  Elec       q    Type
REMARK                         _______ _______ _______ _____ _____    ______ ____
ROOT
ATOM      1  P   UNL     1       5.936  -5.485  27.965  0.00  0.00    +0.483 P 
ATOM      2  O   UNL     1       6.074  -5.329  29.448  0.00  0.00    -0.227 OA
ENDROOT
BRANCH   1   3
ATOM      3  O   UNL     1       5.926  -3.992  27.354  0.00  0.00    -0.302 OA
ATOM      4  H   UNL     1       6.792  -3.826  26.932  0.00  0.00    +0.222 HD
ENDBRANCH   1   3
BRANCH   1   5
ATOM      5  O   UNL     1       4.504  -6.064  27.447  0.00  0.00    -0.186 OA
BRANCH   5   6
ATOM      6  P   UNL     1       3.373  -5.136  26.524  0.00  0.00    +0.483 P 
ATOM      7  O   UNL     1       2.384  -6.295  26.479  0.00  0.00    -0.227 OA
BRANCH   6   8
ATOM      8  O   UNL     1       2.241  -4.209  25.602  0.00  0.00    -0.302 OA
ATOM      9  H   UNL     1       2.289  -4.585  24.700  0.00  0.00    +0.222 HD
ENDBRANCH   6   8
BRANCH   6  10
ATOM     10  O   UNL     1       3.061  -4.175  27.829  0.00  0.00    -0.286 OA
BRANCH  10  11
ATOM     11  C   UNL     1       2.243  -3.013  27.668  0.00  0.00    +0.181 C 
BRANCH  11  12
ATOM     12  C   UNL     1       2.894  -1.741  28.230  0.00  0.00    +0.024 C 
ATOM     13  C   UNL     1       1.806  -0.868  28.870  0.00  0.00    +0.016 C 
ATOM     14  C   UNL     1       3.899  -2.146  29.339  0.00  0.00    +0.016 C 
BRANCH  12  15
ATOM     15  C   UNL     1       3.658  -0.972  27.101  0.00  0.00    +0.208 C 
BRANCH  15  18
ATOM     16  N   UNL     1       5.225   0.586  28.232  0.00  0.00    -0.313 N 
ATOM     17  H   UNL     1       4.400   1.171  28.328  0.00  0.00    +0.149 HD
ATOM     18  C   UNL     1       5.108  -0.562  27.471  0.00  0.00    +0.242 C 
ATOM     19  O   UNL     1       6.085  -1.242  27.170  0.00  0.00    -0.273 OA
BRANCH  16  20
ATOM     20  C   UNL     1       6.549   1.121  28.503  0.00  0.00    +0.113 C 
BRANCH  20  21
ATOM     21  C   UNL     1       6.588   2.092  29.670  0.00  0.00    +0.114 C 
BRANCH  21  24
ATOM     22  N   UNL     1       6.592   3.719  27.865  0.00  0.00    -0.314 N 
ATOM     23  H   UNL     1       6.288   2.953  27.275  0.00  0.00    +0.149 HD
ATOM     24  C   UNL     1       6.981   3.462  29.160  0.00  0.00    +0.215 C 
ATOM     25  O   UNL     1       7.544   4.286  29.872  0.00  0.00    -0.276 OA
BRANCH  22  26
ATOM     26  C   UNL     1       6.851   4.996  27.220  0.00  0.00    +0.115 C 
BRANCH  26  27
ATOM     27  C   UNL     1       7.954   4.945  26.158  0.00  0.00    +0.096 C 
BRANCH  27  28
ATOM     28  S   UNL     1       7.507   5.956  24.703  0.00  0.00    -0.087 S 
BRANCH  28  29
ATOM     29  C   UNL     1       8.215   4.959  23.427  0.00  0.00    +0.189 C 
ATOM     30  O   UNL     1       9.348   4.508  23.510  0.00  0.00    -0.285 OA
BRANCH  29  32
ATOM     31  C   UNL     1       6.674   3.357  22.224  0.00  0.00    +0.012 C 
ATOM     32  C   UNL     1       7.285   4.749  22.248  0.00  0.00    +0.083 C 
ENDBRANCH  29  32
ENDBRANCH  28  29
ENDBRANCH  27  28
ENDBRANCH  26  27
ENDBRANCH  22  26
ENDBRANCH  21  24
ENDBRANCH  20  21
ENDBRANCH  16  20
ENDBRANCH  15  18
BRANCH  15  33
ATOM     33  O   UNL     1       3.630  -1.721  25.882  0.00  0.00    -0.382 OA
ATOM     34  H   UNL     1       4.097  -1.185  25.216  0.00  0.00    +0.210 HD
ENDBRANCH  15  33
ENDBRANCH  12  15
ENDBRANCH  11  12
ENDBRANCH  10  11
ENDBRANCH   6  10
ENDBRANCH   5   6
ENDBRANCH   1   5
BRANCH   1  35
ATOM     35  O   UNL     1       7.309  -6.101  27.337  0.00  0.00    -0.284 OA
BRANCH  35  36
ATOM     36  C   UNL     1       8.393  -5.415  26.688  0.00  0.00    +0.206 C 
BRANCH  36  37
ATOM     37  C   UNL     1       8.330  -5.052  25.121  0.00  0.00    +0.181 C 
ATOM     38  C   UNL     1       6.931  -4.804  24.519  0.00  0.00    +0.196 C 
ATOM     39  C   UNL     1       6.973  -3.363  24.025  0.00  0.00    +0.219 C 
ATOM     40  C   UNL     1       8.322  -2.816  24.480  0.00  0.00    +0.349 C 
ATOM     41  O   UNL     1       9.177  -3.939  24.691  0.00  0.00    -0.328 OA
BRANCH  40  42
ATOM     42  N   UNL     1       8.808  -1.854  23.490  0.00  0.00    -0.191 N 
ATOM     43  C   UNL     1       8.430  -1.799  22.120  0.00  0.00    +0.314 C 
ATOM     44  N   UNL     1       8.949  -0.811  21.448  0.00  0.00    -0.235 NA
ATOM     45  C   UNL     1       9.922  -0.197  22.413  0.00  0.00    +0.251 C 
ATOM     46  C   UNL     1       9.775   1.314  22.642  0.00  0.00    +0.159 C 
ATOM     47  N   UNL     1      10.698   1.736  23.663  0.00  0.00    -0.265 NA
ATOM     48  H   UNL     1      10.591   2.727  23.860  0.00  0.00    +0.127 HD
ATOM     49  C   UNL     1      10.869   0.939  24.847  0.00  0.00    +0.312 C 
ATOM     50  N   UNL     1      10.059  -0.277  24.826  0.00  0.00    -0.225 N 
ATOM     51  H   UNL     1       9.784  -0.680  25.722  0.00  0.00    +0.292 HD
ATOM     52  C   UNL     1       9.605  -0.821  23.716  0.00  0.00    +0.277 C 
BRANCH  46  53
ATOM     53  N   UNL     1      10.144   2.134  21.511  0.00  0.00    -0.313 NA
ATOM     54  H   UNL     1      11.148   2.308  21.509  0.00  0.00    +0.120 HD
ATOM     55  H   UNL     1       9.716   3.059  21.583  0.00  0.00    +0.120 HD
ENDBRANCH  46  53
ENDBRANCH  40  42
BRANCH  39  56
ATOM     56  O   UNL     1       5.906  -2.519  24.484  0.00  0.00    -0.382 OA
ATOM     57  H   UNL     1       5.520  -2.057  23.710  0.00  0.00    +0.210 HD
ENDBRANCH  39  56
BRANCH  38  58
ATOM     58  O   UNL     1       6.755  -5.558  23.309  0.00  0.00    -0.278 OA
BRANCH  58  59
ATOM     59  P   UNL     1       5.314  -5.828  22.676  0.00  0.00    +0.473 P 
ATOM     60  O   UNL     1       4.329  -4.724  22.743  0.00  0.00    -0.228 OA
BRANCH  59  61
ATOM     61  O   UNL     1       5.589  -6.429  21.227  0.00  0.00    -0.303 OA
ATOM     62  H   UNL     1       6.457  -6.142  20.890  0.00  0.00    +0.222 HD
ENDBRANCH  59  61
BRANCH  59  63
ATOM     63  O   UNL     1       4.849  -7.158  23.450  0.00  0.00    -0.303 OA
ATOM     64  H   UNL     1       5.483  -7.895  23.355  0.00  0.00    +0.222 HD
ENDBRANCH  59  63
ENDBRANCH  58  59
ENDBRANCH  38  58
ENDBRANCH  36  37
ENDBRANCH  35  36
ENDBRANCH   1  35
TORSDOF 28
ENDMDL
MODEL 8
REMARK VINA RESULT:      -6.4      4.117      6.506
REMARK  Name = 
REMARK  31 active torsions:
REMARK  status: ('A' for Active; 'I' for Inactive)
REMARK    1  A    between atoms: C_1  and  C_2
REMARK    2  A    between atoms: C_2  and  C_3
REMARK    3  A    between atoms: C_3  and  S_5
REMARK    4  A    between atoms: S_5  and  C_6
REMARK    5  A    between atoms: C_6  and  C_7
REMARK    6  A    between atoms: C_7  and  N_8
REMARK    7  A    between atoms: C_9  and  C_11
REMARK    8  A    between atoms: C_11  and  C_12
REMARK    9  A    between atoms: C_12  and  N_13
REMARK   10  A    between atoms: C_14  and  C_16
REMARK   11  A    between atoms: C_16  and  O_18
REMARK   12  A    between atoms: C_16  and  C_19
REMARK   13  A    between atoms: C_19  and  C_20
REMARK   14  A    between atoms: C_19  and  C_21
REMARK   15  A    between atoms: C_19  and  C_22
REMARK   16  A    between atoms: C_22  and  O_23
REMARK   17  A    between atoms: O_23  and  P_24
REMARK   18  A    between atoms: P_24  and  O_25
REMARK   19  A    between atoms: P_24  and  O_27
REMARK   20  A    between atoms: O_27  and  P_28
REMARK   21  A    between atoms: P_28  and  O_29
REMARK   22  A    between atoms: P_28  and  O_31
REMARK   23  A    between atoms: O_31  and  C_32
REMARK   24  A    between atoms: C_32  and  C_33
REMARK   25  A    between atoms: C_36  and  N_48
REMARK   26  A    between atoms: C_38  and  O_40
REMARK   27  A    between atoms: C_41  and  O_43
REMARK   28  A    between atoms: O_43  and  P_44
REMARK   29  A    between atoms: P_44  and  O_45
REMARK   30  A    between atoms: P_44  and  O_46
REMARK   31  A    between atoms: C_53  and  N_54
REMARK                            x       y       z     vdW  Elec       q    Type
REMARK                         _______ _______ _______ _____ _____    ______ ____
ROOT
ATOM      1  P   UNL     1       9.518  -1.278  23.648  0.00  0.00    +0.483 P 
ATOM      2  O   UNL     1       8.647  -0.772  22.539  0.00  0.00    -0.227 OA
ENDROOT
BRANCH   1   3
ATOM      3  O   UNL     1      10.633  -2.215  22.953  0.00  0.00    -0.302 OA
ATOM      4  H   UNL     1      10.843  -1.844  22.075  0.00  0.00    +0.222 HD
ENDBRANCH   1   3
BRANCH   1   5
ATOM      5  O   UNL     1       8.810  -2.317  24.683  0.00  0.00    -0.186 OA
BRANCH   5   6
ATOM      6  P   UNL     1       9.203  -4.000  24.771  0.00  0.00    +0.483 P 
ATOM      7  O   UNL     1       8.171  -4.235  25.867  0.00  0.00    -0.227 OA
BRANCH   6   8
ATOM      8  O   UNL     1       9.597  -5.682  24.859  0.00  0.00    -0.302 OA
ATOM      9  H   UNL     1      10.408  -5.775  24.321  0.00  0.00    +0.222 HD
ENDBRANCH   6   8
BRANCH   6  10
ATOM     10  O   UNL     1       8.526  -4.259  23.289  0.00  0.00    -0.286 OA
BRANCH  10  11
ATOM     11  C   UNL     1       7.688  -5.402  23.089  0.00  0.00    +0.181 C 
BRANCH  11  12
ATOM     12  C   UNL     1       6.262  -5.029  22.657  0.00  0.00    +0.024 C 
ATOM     13  C   UNL     1       6.276  -3.614  22.065  0.00  0.00    +0.016 C 
ATOM     14  C   UNL     1       5.807  -6.010  21.547  0.00  0.00    +0.016 C 
BRANCH  12  15
ATOM     15  C   UNL     1       5.278  -5.135  23.870  0.00  0.00    +0.208 C 
BRANCH  15  18
ATOM     16  N   UNL     1       3.665  -7.020  23.934  0.00  0.00    -0.313 N 
ATOM     17  H   UNL     1       4.469  -7.552  24.256  0.00  0.00    +0.149 HD
ATOM     18  C   UNL     1       3.885  -5.720  23.518  0.00  0.00    +0.242 C 
ATOM     19  O   UNL     1       3.009  -5.060  22.967  0.00  0.00    -0.273 OA
BRANCH  16  20
ATOM     20  C   UNL     1       2.445  -7.696  23.525  0.00  0.00    +0.113 C 
BRANCH  20  21
ATOM     21  C   UNL     1       1.922  -8.688  24.549  0.00  0.00    +0.114 C 
BRANCH  21  24
ATOM     22  N   UNL     1       1.285  -8.598  26.892  0.00  0.00    -0.314 N 
ATOM     23  H   UNL     1       1.489  -9.591  26.908  0.00  0.00    +0.149 HD
ATOM     24  C   UNL     1       1.284  -7.927  25.691  0.00  0.00    +0.215 C 
ATOM     25  O   UNL     1       0.860  -6.784  25.556  0.00  0.00    -0.276 OA
BRANCH  22  26
ATOM     26  C   UNL     1       0.748  -8.007  28.108  0.00  0.00    +0.115 C 
BRANCH  26  27
ATOM     27  C   UNL     1       1.808  -7.687  29.165  0.00  0.00    +0.096 C 
BRANCH  27  28
ATOM     28  S   UNL     1       2.580  -6.063  28.845  0.00  0.00    -0.087 S 
BRANCH  28  29
ATOM     29  C   UNL     1       4.080  -6.598  28.079  0.00  0.00    +0.189 C 
ATOM     30  O   UNL     1       4.141  -6.860  26.886  0.00  0.00    -0.285 OA
BRANCH  29  32
ATOM     31  C   UNL     1       6.500  -6.030  28.532  0.00  0.00    +0.012 C 
ATOM     32  C   UNL     1       5.241  -6.706  29.049  0.00  0.00    +0.083 C 
ENDBRANCH  29  32
ENDBRANCH  28  29
ENDBRANCH  27  28
ENDBRANCH  26  27
ENDBRANCH  22  26
ENDBRANCH  21  24
ENDBRANCH  20  21
ENDBRANCH  16  20
ENDBRANCH  15  18
BRANCH  15  33
ATOM     33  O   UNL     1       5.886  -5.862  24.942  0.00  0.00    -0.382 OA
ATOM     34  H   UNL     1       5.802  -6.807  24.720  0.00  0.00    +0.210 HD
ENDBRANCH  15  33
ENDBRANCH  12  15
ENDBRANCH  11  12
ENDBRANCH  10  11
ENDBRANCH   6  10
ENDBRANCH   5   6
ENDBRANCH   1   5
BRANCH   1  35
ATOM     35  O   UNL     1      10.422  -0.061  24.249  0.00  0.00    -0.284 OA
BRANCH  35  36
ATOM     36  C   UNL     1      10.212   1.358  24.145  0.00  0.00    +0.206 C 
BRANCH  36  37
ATOM     37  C   UNL     1       8.869   2.043  24.709  0.00  0.00    +0.181 C 
ATOM     38  C   UNL     1       7.855   2.552  23.663  0.00  0.00    +0.196 C 
ATOM     39  C   UNL     1       6.590   1.744  23.927  0.00  0.00    +0.219 C 
ATOM     40  C   UNL     1       6.970   0.732  25.001  0.00  0.00    +0.349 C 
ATOM     41  O   UNL     1       8.112   1.254  25.681  0.00  0.00    -0.328 OA
BRANCH  40  42
ATOM     42  N   UNL     1       5.809   0.482  25.857  0.00  0.00    -0.191 N 
ATOM     43  C   UNL     1       4.761   1.402  26.137  0.00  0.00    +0.314 C 
ATOM     44  N   UNL     1       3.800   0.929  26.878  0.00  0.00    -0.235 NA
ATOM     45  C   UNL     1       4.305  -0.423  27.295  0.00  0.00    +0.251 C 
ATOM     46  C   UNL     1       3.363  -1.604  27.022  0.00  0.00    +0.159 C 
ATOM     47  N   UNL     1       4.022  -2.834  27.374  0.00  0.00    -0.265 NA
ATOM     48  H   UNL     1       3.431  -3.634  27.165  0.00  0.00    +0.127 HD
ATOM     49  C   UNL     1       5.399  -3.037  27.012  0.00  0.00    +0.312 C 
ATOM     50  N   UNL     1       5.975  -1.881  26.330  0.00  0.00    -0.225 N 
ATOM     51  H   UNL     1       6.753  -2.047  25.691  0.00  0.00    +0.292 HD
ATOM     52  C   UNL     1       5.488  -0.663  26.441  0.00  0.00    +0.277 C 
BRANCH  46  53
ATOM     53  N   UNL     1       2.173  -1.627  27.841  0.00  0.00    -0.313 NA
ATOM     54  H   UNL     1       2.343  -1.161  28.731  0.00  0.00    +0.120 HD
ATOM     55  H   UNL     1       1.925  -2.586  28.088  0.00  0.00    +0.120 HD
ENDBRANCH  46  53
ENDBRANCH  40  42
BRANCH  39  56
ATOM     56  O   UNL     1       6.029   1.080  22.784  0.00  0.00    -0.382 OA
ATOM     57  H   UNL     1       6.652   0.383  22.492  0.00  0.00    +0.210 HD
ENDBRANCH  39  56
BRANCH  38  58
ATOM     58  O   UNL     1       7.449   3.898  23.958  0.00  0.00    -0.278 OA
BRANCH  58  59
ATOM     59  P   UNL     1       6.968   4.912  22.822  0.00  0.00    +0.473 P 
ATOM     60  O   UNL     1       5.907   5.879  23.186  0.00  0.00    -0.228 OA
BRANCH  59  61
ATOM     61  O   UNL     1       8.299   5.536  22.212  0.00  0.00    -0.303 OA
ATOM     62  H   UNL     1       8.167   5.797  21.282  0.00  0.00    +0.222 HD
ENDBRANCH  59  61
BRANCH  59  63
ATOM     63  O   UNL     1       6.552   3.913  21.633  0.00  0.00    -0.303 OA
ATOM     64  H   UNL     1       5.998   3.169  21.937  0.00  0.00    +0.222 HD
ENDBRANCH  59  63
ENDBRANCH  58  59
ENDBRANCH  38  58
ENDBRANCH  36  37
ENDBRANCH  35  36
ENDBRANCH   1  35
TORSDOF 28
ENDMDL
MODEL 9
REMARK VINA RESULT:      -6.4      4.825      9.614
REMARK  Name = 
REMARK  31 active torsions:
REMARK  status: ('A' for Active; 'I' for Inactive)
REMARK    1  A    between atoms: C_1  and  C_2
REMARK    2  A    between atoms: C_2  and  C_3
REMARK    3  A    between atoms: C_3  and  S_5
REMARK    4  A    between atoms: S_5  and  C_6
REMARK    5  A    between atoms: C_6  and  C_7
REMARK    6  A    between atoms: C_7  and  N_8
REMARK    7  A    between atoms: C_9  and  C_11
REMARK    8  A    between atoms: C_11  and  C_12
REMARK    9  A    between atoms: C_12  and  N_13
REMARK   10  A    between atoms: C_14  and  C_16
REMARK   11  A    between atoms: C_16  and  O_18
REMARK   12  A    between atoms: C_16  and  C_19
REMARK   13  A    between atoms: C_19  and  C_20
REMARK   14  A    between atoms: C_19  and  C_21
REMARK   15  A    between atoms: C_19  and  C_22
REMARK   16  A    between atoms: C_22  and  O_23
REMARK   17  A    between atoms: O_23  and  P_24
REMARK   18  A    between atoms: P_24  and  O_25
REMARK   19  A    between atoms: P_24  and  O_27
REMARK   20  A    between atoms: O_27  and  P_28
REMARK   21  A    between atoms: P_28  and  O_29
REMARK   22  A    between atoms: P_28  and  O_31
REMARK   23  A    between atoms: O_31  and  C_32
REMARK   24  A    between atoms: C_32  and  C_33
REMARK   25  A    between atoms: C_36  and  N_48
REMARK   26  A    between atoms: C_38  and  O_40
REMARK   27  A    between atoms: C_41  and  O_43
REMARK   28  A    between atoms: O_43  and  P_44
REMARK   29  A    between atoms: P_44  and  O_45
REMARK   30  A    between atoms: P_44  and  O_46
REMARK   31  A    between atoms: C_53  and  N_54
REMARK                            x       y       z     vdW  Elec       q    Type
REMARK                         _______ _______ _______ _____ _____    ______ ____
ROOT
ATOM      1  P   UNL     1       5.518  -6.017  28.367  0.00  0.00    +0.483 P 
ATOM      2  O   UNL     1       4.904  -7.349  28.672  0.00  0.00    -0.227 OA
ENDROOT
BRANCH   1   3
ATOM      3  O   UNL     1       6.428  -5.639  29.645  0.00  0.00    -0.302 OA
ATOM      4  H   UNL     1       5.842  -5.310  30.354  0.00  0.00    +0.222 HD
ENDBRANCH   1   3
BRANCH   1   5
ATOM      5  O   UNL     1       4.486  -4.759  28.312  0.00  0.00    -0.186 OA
BRANCH   5   6
ATOM      6  P   UNL     1       4.922  -3.185  27.741  0.00  0.00    +0.483 P 
ATOM      7  O   UNL     1       4.165  -3.395  26.435  0.00  0.00    -0.227 OA
BRANCH   6   8
ATOM      8  O   UNL     1       5.358  -1.612  27.170  0.00  0.00    -0.302 OA
ATOM      9  H   UNL     1       4.805  -1.474  26.376  0.00  0.00    +0.222 HD
ENDBRANCH   6   8
BRANCH   6  10
ATOM     10  O   UNL     1       3.936  -2.480  28.861  0.00  0.00    -0.286 OA
BRANCH  10  11
ATOM     11  C   UNL     1       4.056  -1.079  29.121  0.00  0.00    +0.181 C 
BRANCH  11  12
ATOM     12  C   UNL     1       2.701  -0.358  29.158  0.00  0.00    +0.024 C 
ATOM     13  C   UNL     1       1.627  -1.345  29.636  0.00  0.00    +0.016 C 
ATOM     14  C   UNL     1       2.781   0.800  30.185  0.00  0.00    +0.016 C 
BRANCH  12  15
ATOM     15  C   UNL     1       2.356   0.229  27.749  0.00  0.00    +0.208 C 
BRANCH  15  18
ATOM     16  N   UNL     1       4.363   1.483  27.000  0.00  0.00    -0.313 N 
ATOM     17  H   UNL     1       4.828   0.586  27.108  0.00  0.00    +0.149 HD
ATOM     18  C   UNL     1       3.052   1.578  27.427  0.00  0.00    +0.242 C 
ATOM     19  O   UNL     1       2.466   2.656  27.482  0.00  0.00    -0.273 OA
BRANCH  16  20
ATOM     20  C   UNL     1       5.135   2.700  26.812  0.00  0.00    +0.113 C 
BRANCH  20  21
ATOM     21  C   UNL     1       6.378   2.776  27.683  0.00  0.00    +0.114 C 
BRANCH  21  24
ATOM     22  N   UNL     1       7.054   4.646  26.287  0.00  0.00    -0.314 N 
ATOM     23  H   UNL     1       6.937   4.010  25.507  0.00  0.00    +0.149 HD
ATOM     24  C   UNL     1       6.973   4.163  27.572  0.00  0.00    +0.215 C 
ATOM     25  O   UNL     1       7.295   4.814  28.561  0.00  0.00    -0.276 OA
BRANCH  22  26
ATOM     26  C   UNL     1       7.565   5.976  25.992  0.00  0.00    +0.115 C 
BRANCH  26  27
ATOM     27  C   UNL     1       9.080   6.026  25.776  0.00  0.00    +0.096 C 
BRANCH  27  28
ATOM     28  S   UNL     1       9.479   6.448  24.044  0.00  0.00    -0.087 S 
BRANCH  28  29
ATOM     29  C   UNL     1      10.828   5.339  23.775  0.00  0.00    +0.189 C 
ATOM     30  O   UNL     1      10.660   4.135  23.645  0.00  0.00    -0.285 OA
BRANCH  29  32
ATOM     31  C   UNL     1      13.146   5.383  22.771  0.00  0.00    +0.012 C 
ATOM     32  C   UNL     1      12.176   6.034  23.743  0.00  0.00    +0.083 C 
ENDBRANCH  29  32
ENDBRANCH  28  29
ENDBRANCH  27  28
ENDBRANCH  26  27
ENDBRANCH  22  26
ENDBRANCH  21  24
ENDBRANCH  20  21
ENDBRANCH  16  20
ENDBRANCH  15  18
BRANCH  15  33
ATOM     33  O   UNL     1       2.615  -0.740  26.728  0.00  0.00    -0.382 OA
ATOM     34  H   UNL     1       2.590  -1.612  27.160  0.00  0.00    +0.210 HD
ENDBRANCH  15  33
ENDBRANCH  12  15
ENDBRANCH  11  12
ENDBRANCH  10  11
ENDBRANCH   6  10
ENDBRANCH   5   6
ENDBRANCH   1   5
BRANCH   1  35
ATOM     35  O   UNL     1       6.635  -6.173  27.188  0.00  0.00    -0.284 OA
BRANCH  35  36
ATOM     36  C   UNL     1       7.767  -5.334  26.900  0.00  0.00    +0.206 C 
BRANCH  36  37
ATOM     37  C   UNL     1       8.095  -4.866  25.395  0.00  0.00    +0.181 C 
ATOM     38  C   UNL     1       6.892  -4.504  24.500  0.00  0.00    +0.196 C 
ATOM     39  C   UNL     1       7.104  -3.038  24.143  0.00  0.00    +0.219 C 
ATOM     40  C   UNL     1       8.324  -2.596  24.944  0.00  0.00    +0.349 C 
ATOM     41  O   UNL     1       9.061  -3.776  25.265  0.00  0.00    -0.328 OA
BRANCH  40  42
ATOM     42  N   UNL     1       9.069  -1.599  24.174  0.00  0.00    -0.191 N 
ATOM     43  C   UNL     1      10.133  -1.864  23.269  0.00  0.00    +0.314 C 
ATOM     44  N   UNL     1      10.600  -0.817  22.650  0.00  0.00    -0.235 NA
ATOM     45  C   UNL     1       9.891   0.331  23.311  0.00  0.00    +0.251 C 
ATOM     46  C   UNL     1       9.167   1.303  22.369  0.00  0.00    +0.159 C 
ATOM     47  N   UNL     1       8.452   2.280  23.146  0.00  0.00    -0.265 NA
ATOM     48  H   UNL     1       7.932   2.913  22.544  0.00  0.00    +0.127 HD
ATOM     49  C   UNL     1       7.712   1.869  24.308  0.00  0.00    +0.312 C 
ATOM     50  N   UNL     1       7.829   0.437  24.568  0.00  0.00    -0.225 N 
ATOM     51  H   UNL     1       7.066  -0.018  25.071  0.00  0.00    +0.292 HD
ATOM     52  C   UNL     1       8.823  -0.298  24.117  0.00  0.00    +0.277 C 
BRANCH  46  53
ATOM     53  N   UNL     1      10.041   2.113  21.551  0.00  0.00    -0.313 NA
ATOM     54  H   UNL     1       9.516   2.558  20.799  0.00  0.00    +0.120 HD
ATOM     55  H   UNL     1      10.734   1.530  21.079  0.00  0.00    +0.120 HD
ENDBRANCH  46  53
ENDBRANCH  40  42
BRANCH  39  56
ATOM     56  O   UNL     1       5.990  -2.169  24.399  0.00  0.00    -0.382 OA
ATOM     57  H   UNL     1       5.163  -2.669  24.240  0.00  0.00    +0.210 HD
ENDBRANCH  39  56
BRANCH  38  58
ATOM     58  O   UNL     1       6.983  -5.166  23.229  0.00  0.00    -0.278 OA
BRANCH  58  59
ATOM     59  P   UNL     1       5.727  -5.316  22.254  0.00  0.00    +0.473 P 
ATOM     60  O   UNL     1       4.750  -4.203  22.237  0.00  0.00    -0.228 OA
BRANCH  59  61
ATOM     61  O   UNL     1       6.329  -5.736  20.841  0.00  0.00    -0.303 OA
ATOM     62  H   UNL     1       5.632  -6.083  20.255  0.00  0.00    +0.222 HD
ENDBRANCH  59  61
BRANCH  59  63
ATOM     63  O   UNL     1       5.101  -6.720  22.724  0.00  0.00    -0.303 OA
ATOM     64  H   UNL     1       4.646  -7.194  22.002  0.00  0.00    +0.222 HD
ENDBRANCH  59  63
ENDBRANCH  58  59
ENDBRANCH  38  58
ENDBRANCH  36  37
ENDBRANCH  35  36
ENDBRANCH   1  35
TORSDOF 28
ENDMDL
