MODEL 1
REMARK VINA RESULT:      -6.7      0.000      0.000
REMARK  Name = 
REMARK  12 active torsions:
REMARK  status: ('A' for Active; 'I' for Inactive)
REMARK    1  A    between atoms: C_1  and  O_2
REMARK    2  A    between atoms: O_2  and  C_3
REMARK    3  A    between atoms: C_18  and  O_20
REMARK    4  A    between atoms: O_20  and  C_21
REMARK    5  A    between atoms: C_21  and  C_22
REMARK    6  A    between atoms: C_22  and  C_23
REMARK    7  A    between atoms: C_22  and  C_24
REMARK    8  A    between atoms: C_22  and  O_25
REMARK    9  A    between atoms: C_26  and  O_27
REMARK   10  A    between atoms: O_27  and  C_28
REMARK   11  A    between atoms: C_29  and  O_30
REMARK   12  A    between atoms: O_30  and  C_31
REMARK                            x       y       z     vdW  Elec       q    Type
REMARK                         _______ _______ _______ _____ _____    ______ ____
ROOT
ATOM      1  C   UNL     1       9.792   4.283  23.728  0.00  0.00    +0.166 A 
ATOM      2  C   UNL     1       8.394   4.433  23.694  0.00  0.00    +0.206 A 
ATOM      3  C   UNL     1       7.572   3.288  23.946  0.00  0.00    +0.191 A 
ATOM      4  C   UNL     1       8.129   2.011  24.248  0.00  0.00    +0.123 A 
ATOM      5  N   UNL     1       7.375   0.898  24.472  0.00  0.00    -0.210 NA
ATOM      6  C   UNL     1       7.967  -0.274  24.760  0.00  0.00    +0.220 A 
ATOM      7  N   UNL     1       7.210  -1.402  24.939  0.00  0.00    -0.297 N 
ATOM      8  C   UNL     1       7.785  -2.621  25.513  0.00  0.00    +0.127 C 
ATOM      9  C   UNL     1       7.364  -3.855  24.687  0.00  0.00    +0.130 C 
ATOM     10  N   UNL     1       5.920  -3.873  24.423  0.00  0.00    -0.264 N 
ATOM     11  C   UNL     1       5.090  -4.950  24.655  0.00  0.00    +0.403 C 
ATOM     12  O   UNL     1       3.893  -4.953  24.395  0.00  0.00    -0.226 OA
ATOM     13  C   UNL     1       5.373  -2.623  23.878  0.00  0.00    +0.130 C 
ATOM     14  C   UNL     1       5.763  -1.401  24.739  0.00  0.00    +0.127 C 
ATOM     15  N   UNL     1       9.293  -0.405  24.841  0.00  0.00    -0.199 NA
ATOM     16  C   UNL     1      10.043   0.671  24.614  0.00  0.00    +0.129 A 
ATOM     17  N   UNL     1      11.424   0.438  24.663  0.00  0.00    -0.343 N 
ATOM     18  H   UNL     1      11.882   1.060  25.319  0.00  0.00    +0.144 HD
ATOM     19  H   UNL     1      11.543  -0.536  24.932  0.00  0.00    +0.144 HD
ATOM     20  C   UNL     1       9.514   1.922  24.302  0.00  0.00    +0.047 A 
ATOM     21  C   UNL     1      10.328   3.037  24.045  0.00  0.00    +0.063 A 
ENDROOT
BRANCH   1  23
ATOM     22  C   UNL     1      12.005   5.104  23.372  0.00  0.00    +0.277 C 
ATOM     23  O   UNL     1      10.607   5.360  23.497  0.00  0.00    -0.491 OA
ENDBRANCH   1  23
BRANCH   2  24
ATOM     24  O   UNL     1       7.740   5.606  23.416  0.00  0.00    -0.488 OA
ATOM     25  C   UNL     1       7.496   6.020  22.080  0.00  0.00    +0.277 C 
ENDBRANCH   2  24
BRANCH   3  26
ATOM     26  O   UNL     1       6.186   3.262  23.928  0.00  0.00    -0.489 OA
ATOM     27  C   UNL     1       5.477   3.063  22.715  0.00  0.00    +0.277 C 
ENDBRANCH   3  26
BRANCH  11  28
ATOM     28  O   UNL     1       5.725  -5.993  25.261  0.00  0.00    -0.447 OA
BRANCH  28  29
ATOM     29  C   UNL     1       4.945  -6.721  26.225  0.00  0.00    +0.267 C 
BRANCH  29  30
ATOM     30  C   UNL     1       5.258  -6.372  27.694  0.00  0.00    +0.094 C 
ATOM     31  C   UNL     1       4.149  -5.516  28.310  0.00  0.00    +0.044 C 
ATOM     32  C   UNL     1       6.609  -5.676  27.859  0.00  0.00    +0.044 C 
BRANCH  30  33
ATOM     33  O   UNL     1       5.299  -7.596  28.448  0.00  0.00    -0.386 OA
ATOM     34  H   UNL     1       5.323  -7.363  29.393  0.00  0.00    +0.210 HD
ENDBRANCH  30  33
ENDBRANCH  29  30
ENDBRANCH  28  29
ENDBRANCH  11  28
TORSDOF 7
ENDMDL
MODEL 2
REMARK VINA RESULT:      -6.4      2.299      9.710
REMARK  Name = 
REMARK  12 active torsions:
REMARK  status: ('A' for Active; 'I' for Inactive)
REMARK    1  A    between atoms: C_1  and  O_2
REMARK    2  A    between atoms: O_2  and  C_3
REMARK    3  A    between atoms: C_18  and  O_20
REMARK    4  A    between atoms: O_20  and  C_21
REMARK    5  A    between atoms: C_21  and  C_22
REMARK    6  A    between atoms: C_22  and  C_23
REMARK    7  A    between atoms: C_22  and  C_24
REMARK    8  A    between atoms: C_22  and  O_25
REMARK    9  A    between atoms: C_26  and  O_27
REMARK   10  A    between atoms: O_27  and  C_28
REMARK   11  A    between atoms: C_29  and  O_30
REMARK   12  A    between atoms: O_30  and  C_31
REMARK                            x       y       z     vdW  Elec       q    Type
REMARK                         _______ _______ _______ _____ _____    ______ ____
ROOT
ATOM      1  C   UNL     1       4.053  -5.849  24.443  0.00  0.00    +0.166 A 
ATOM      2  C   UNL     1       3.353  -4.832  25.118  0.00  0.00    +0.206 A 
ATOM      3  C   UNL     1       3.861  -3.495  25.065  0.00  0.00    +0.191 A 
ATOM      4  C   UNL     1       5.040  -3.163  24.335  0.00  0.00    +0.123 A 
ATOM      5  N   UNL     1       5.560  -1.906  24.281  0.00  0.00    -0.210 NA
ATOM      6  C   UNL     1       6.672  -1.662  23.567  0.00  0.00    +0.220 A 
ATOM      7  N   UNL     1       7.220  -0.406  23.551  0.00  0.00    -0.297 N 
ATOM      8  C   UNL     1       8.258  -0.041  22.583  0.00  0.00    +0.127 C 
ATOM      9  C   UNL     1       9.409   0.709  23.287  0.00  0.00    +0.130 C 
ATOM     10  N   UNL     1       8.915   1.785  24.155  0.00  0.00    -0.264 N 
ATOM     11  C   UNL     1       9.371   3.086  24.135  0.00  0.00    +0.403 C 
ATOM     12  O   UNL     1       8.965   3.959  24.893  0.00  0.00    -0.226 OA
ATOM     13  C   UNL     1       7.852   1.389  25.090  0.00  0.00    +0.130 C 
ATOM     14  C   UNL     1       6.685   0.680  24.368  0.00  0.00    +0.127 C 
ATOM     15  N   UNL     1       7.308  -2.619  22.885  0.00  0.00    -0.199 NA
ATOM     16  C   UNL     1       6.817  -3.854  22.936  0.00  0.00    +0.129 A 
ATOM     17  N   UNL     1       7.573  -4.810  22.242  0.00  0.00    -0.343 N 
ATOM     18  H   UNL     1       7.007  -5.311  21.568  0.00  0.00    +0.144 HD
ATOM     19  H   UNL     1       8.329  -4.303  21.787  0.00  0.00    +0.144 HD
ATOM     20  C   UNL     1       5.676  -4.197  23.659  0.00  0.00    +0.047 A 
ATOM     21  C   UNL     1       5.191  -5.513  23.715  0.00  0.00    +0.063 A 
ENDROOT
BRANCH   1  23
ATOM     22  C   UNL     1       2.448  -7.438  23.668  0.00  0.00    +0.277 C 
ATOM     23  O   UNL     1       3.590  -7.139  24.469  0.00  0.00    -0.491 OA
ENDBRANCH   1  23
BRANCH   2  24
ATOM     24  O   UNL     1       2.211  -5.024  25.852  0.00  0.00    -0.488 OA
ATOM     25  C   UNL     1       2.256  -5.538  27.174  0.00  0.00    +0.277 C 
ENDBRANCH   2  24
BRANCH   3  26
ATOM     26  O   UNL     1       3.306  -2.389  25.689  0.00  0.00    -0.489 OA
ATOM     27  C   UNL     1       3.593  -2.100  27.049  0.00  0.00    +0.277 C 
ENDBRANCH   3  26
BRANCH  11  28
ATOM     28  O   UNL     1      10.275   3.320  23.142  0.00  0.00    -0.447 OA
BRANCH  28  29
ATOM     29  C   UNL     1      11.561   3.799  23.572  0.00  0.00    +0.267 C 
BRANCH  29  30
ATOM     30  C   UNL     1      11.789   5.307  23.348  0.00  0.00    +0.094 C 
ATOM     31  C   UNL     1      12.878   5.555  22.302  0.00  0.00    +0.044 C 
ATOM     32  C   UNL     1      12.125   6.050  24.640  0.00  0.00    +0.044 C 
BRANCH  30  33
ATOM     33  O   UNL     1      10.576   5.871  22.818  0.00  0.00    -0.386 OA
ATOM     34  H   UNL     1      10.747   6.134  21.897  0.00  0.00    +0.210 HD
ENDBRANCH  30  33
ENDBRANCH  29  30
ENDBRANCH  28  29
ENDBRANCH  11  28
TORSDOF 7
ENDMDL
MODEL 3
REMARK VINA RESULT:      -6.4      2.435      9.788
REMARK  Name = 
REMARK  12 active torsions:
REMARK  status: ('A' for Active; 'I' for Inactive)
REMARK    1  A    between atoms: C_1  and  O_2
REMARK    2  A    between atoms: O_2  and  C_3
REMARK    3  A    between atoms: C_18  and  O_20
REMARK    4  A    between atoms: O_20  and  C_21
REMARK    5  A    between atoms: C_21  and  C_22
REMARK    6  A    between atoms: C_22  and  C_23
REMARK    7  A    between atoms: C_22  and  C_24
REMARK    8  A    between atoms: C_22  and  O_25
REMARK    9  A    between atoms: C_26  and  O_27
REMARK   10  A    between atoms: O_27  and  C_28
REMARK   11  A    between atoms: C_29  and  O_30
REMARK   12  A    between atoms: O_30  and  C_31
REMARK                            x       y       z     vdW  Elec       q    Type
REMARK                         _______ _______ _______ _____ _____    ______ ____
ROOT
ATOM      1  C   UNL     1       3.389  -7.525  25.241  0.00  0.00    +0.166 A 
ATOM      2  C   UNL     1       3.525  -6.809  26.444  0.00  0.00    +0.206 A 
ATOM      3  C   UNL     1       4.330  -5.625  26.454  0.00  0.00    +0.191 A 
ATOM      4  C   UNL     1       4.979  -5.144  25.279  0.00  0.00    +0.123 A 
ATOM      5  N   UNL     1       5.767  -4.033  25.259  0.00  0.00    -0.210 NA
ATOM      6  C   UNL     1       6.344  -3.631  24.113  0.00  0.00    +0.220 A 
ATOM      7  N   UNL     1       7.173  -2.541  24.104  0.00  0.00    -0.297 N 
ATOM      8  C   UNL     1       7.597  -1.917  22.848  0.00  0.00    +0.127 C 
ATOM      9  C   UNL     1       9.115  -1.640  22.871  0.00  0.00    +0.130 C 
ATOM     10  N   UNL     1       9.533  -0.970  24.108  0.00  0.00    -0.264 N 
ATOM     11  C   UNL     1      10.303   0.173  24.164  0.00  0.00    +0.403 C 
ATOM     12  O   UNL     1      10.667   0.695  25.211  0.00  0.00    -0.226 OA
ATOM     13  C   UNL     1       9.063  -1.605  25.347  0.00  0.00    +0.130 C 
ATOM     14  C   UNL     1       7.536  -1.836  25.331  0.00  0.00    +0.127 C 
ATOM     15  N   UNL     1       6.174  -4.284  22.961  0.00  0.00    -0.199 NA
ATOM     16  C   UNL     1       5.415  -5.376  22.966  0.00  0.00    +0.129 A 
ATOM     17  N   UNL     1       5.333  -6.034  21.731  0.00  0.00    -0.343 N 
ATOM     18  H   UNL     1       4.370  -6.157  21.439  0.00  0.00    +0.144 HD
ATOM     19  H   UNL     1       5.851  -5.465  21.066  0.00  0.00    +0.144 HD
ATOM     20  C   UNL     1       4.788  -5.868  24.109  0.00  0.00    +0.047 A 
ATOM     21  C   UNL     1       4.009  -7.036  24.093  0.00  0.00    +0.063 A 
ENDROOT
BRANCH   1  23
ATOM     22  C   UNL     1       1.501  -8.653  24.314  0.00  0.00    +0.277 C 
ATOM     23  O   UNL     1       2.621  -8.659  25.197  0.00  0.00    -0.491 OA
ENDBRANCH   1  23
BRANCH   2  24
ATOM     24  O   UNL     1       2.952  -7.169  27.637  0.00  0.00    -0.488 OA
ATOM     25  C   UNL     1       1.603  -6.847  27.938  0.00  0.00    +0.277 C 
ENDBRANCH   2  24
BRANCH   3  26
ATOM     26  O   UNL     1       4.582  -4.821  27.555  0.00  0.00    -0.489 OA
ATOM     27  C   UNL     1       3.674  -3.797  27.931  0.00  0.00    +0.277 C 
ENDBRANCH   3  26
BRANCH  11  28
ATOM     28  O   UNL     1      10.566   0.700  22.935  0.00  0.00    -0.447 OA
BRANCH  28  29
ATOM     29  C   UNL     1      10.212   2.083  22.762  0.00  0.00    +0.267 C 
BRANCH  29  30
ATOM     30  C   UNL     1       8.712   2.330  22.501  0.00  0.00    +0.094 C 
ATOM     31  C   UNL     1       7.878   2.058  23.755  0.00  0.00    +0.044 C 
ATOM     32  C   UNL     1       8.176   1.511  21.328  0.00  0.00    +0.044 C 
BRANCH  30  33
ATOM     33  O   UNL     1       8.535   3.721  22.184  0.00  0.00    -0.386 OA
ATOM     34  H   UNL     1       9.081   3.921  21.404  0.00  0.00    +0.210 HD
ENDBRANCH  30  33
ENDBRANCH  29  30
ENDBRANCH  28  29
ENDBRANCH  11  28
TORSDOF 7
ENDMDL
MODEL 4
REMARK VINA RESULT:      -6.3      2.264      9.830
REMARK  Name = 
REMARK  12 active torsions:
REMARK  status: ('A' for Active; 'I' for Inactive)
REMARK    1  A    between atoms: C_1  and  O_2
REMARK    2  A    between atoms: O_2  and  C_3
REMARK    3  A    between atoms: C_18  and  O_20
REMARK    4  A    between atoms: O_20  and  C_21
REMARK    5  A    between atoms: C_21  and  C_22
REMARK    6  A    between atoms: C_22  and  C_23
REMARK    7  A    between atoms: C_22  and  C_24
REMARK    8  A    between atoms: C_22  and  O_25
REMARK    9  A    between atoms: C_26  and  O_27
REMARK   10  A    between atoms: O_27  and  C_28
REMARK   11  A    between atoms: C_29  and  O_30
REMARK   12  A    between atoms: O_30  and  C_31
REMARK                            x       y       z     vdW  Elec       q    Type
REMARK                         _______ _______ _______ _____ _____    ______ ____
ROOT
ATOM      1  C   UNL     1       3.196  -6.410  26.594  0.00  0.00    +0.166 A 
ATOM      2  C   UNL     1       3.828  -6.807  25.402  0.00  0.00    +0.206 A 
ATOM      3  C   UNL     1       4.855  -5.974  24.857  0.00  0.00    +0.191 A 
ATOM      4  C   UNL     1       5.268  -4.768  25.495  0.00  0.00    +0.123 A 
ATOM      5  N   UNL     1       6.228  -3.943  24.992  0.00  0.00    -0.210 NA
ATOM      6  C   UNL     1       6.572  -2.823  25.651  0.00  0.00    +0.220 A 
ATOM      7  N   UNL     1       7.505  -1.970  25.120  0.00  0.00    -0.297 N 
ATOM      8  C   UNL     1       8.099  -0.898  25.922  0.00  0.00    +0.127 C 
ATOM      9  C   UNL     1       8.112   0.424  25.126  0.00  0.00    +0.130 C 
ATOM     10  N   UNL     1       8.649   0.245  23.771  0.00  0.00    -0.264 N 
ATOM     11  C   UNL     1       9.641   1.020  23.208  0.00  0.00    +0.403 C 
ATOM     12  O   UNL     1      10.050   0.872  22.062  0.00  0.00    -0.226 OA
ATOM     13  C   UNL     1       8.052  -0.860  23.008  0.00  0.00    +0.130 C 
ATOM     14  C   UNL     1       8.086  -2.188  23.798  0.00  0.00    +0.127 C 
ATOM     15  N   UNL     1       6.007  -2.472  26.808  0.00  0.00    -0.199 NA
ATOM     16  C   UNL     1       5.060  -3.262  27.307  0.00  0.00    +0.129 A 
ATOM     17  N   UNL     1       4.477  -2.795  28.493  0.00  0.00    -0.343 N 
ATOM     18  H   UNL     1       4.533  -3.487  29.231  0.00  0.00    +0.144 HD
ATOM     19  H   UNL     1       4.978  -1.945  28.745  0.00  0.00    +0.144 HD
ATOM     20  C   UNL     1       4.635  -4.435  26.686  0.00  0.00    +0.047 A 
ATOM     21  C   UNL     1       3.619  -5.241  27.223  0.00  0.00    +0.063 A 
ENDROOT
BRANCH   1  23
ATOM     22  C   UNL     1       0.890  -6.652  27.165  0.00  0.00    +0.277 C 
ATOM     23  O   UNL     1       2.212  -7.188  27.146  0.00  0.00    -0.491 OA
ENDBRANCH   1  23
BRANCH   2  24
ATOM     24  O   UNL     1       3.522  -7.943  24.696  0.00  0.00    -0.488 OA
ATOM     25  C   UNL     1       2.325  -8.045  23.940  0.00  0.00    +0.277 C 
ENDBRANCH   2  24
BRANCH   3  26
ATOM     26  O   UNL     1       5.558  -6.210  23.685  0.00  0.00    -0.489 OA
ATOM     27  C   UNL     1       5.050  -5.780  22.432  0.00  0.00    +0.277 C 
ENDBRANCH   3  26
BRANCH  11  28
ATOM     28  O   UNL     1      10.166   1.930  24.076  0.00  0.00    -0.447 OA
BRANCH  28  29
ATOM     29  C   UNL     1      10.508   3.206  23.509  0.00  0.00    +0.267 C 
BRANCH  29  30
ATOM     30  C   UNL     1       9.459   4.312  23.745  0.00  0.00    +0.094 C 
ATOM     31  C   UNL     1      10.110   5.696  23.779  0.00  0.00    +0.044 C 
ATOM     32  C   UNL     1       8.642   4.086  25.017  0.00  0.00    +0.044 C 
BRANCH  30  33
ATOM     33  O   UNL     1       8.549   4.313  22.632  0.00  0.00    -0.386 OA
ATOM     34  H   UNL     1       8.819   5.027  22.027  0.00  0.00    +0.210 HD
ENDBRANCH  30  33
ENDBRANCH  29  30
ENDBRANCH  28  29
ENDBRANCH  11  28
TORSDOF 7
ENDMDL
MODEL 5
REMARK VINA RESULT:      -6.2      1.766      3.537
REMARK  Name = 
REMARK  12 active torsions:
REMARK  status: ('A' for Active; 'I' for Inactive)
REMARK    1  A    between atoms: C_1  and  O_2
REMARK    2  A    between atoms: O_2  and  C_3
REMARK    3  A    between atoms: C_18  and  O_20
REMARK    4  A    between atoms: O_20  and  C_21
REMARK    5  A    between atoms: C_21  and  C_22
REMARK    6  A    between atoms: C_22  and  C_23
REMARK    7  A    between atoms: C_22  and  C_24
REMARK    8  A    between atoms: C_22  and  O_25
REMARK    9  A    between atoms: C_26  and  O_27
REMARK   10  A    between atoms: O_27  and  C_28
REMARK   11  A    between atoms: C_29  and  O_30
REMARK   12  A    between atoms: O_30  and  C_31
REMARK                            x       y       z     vdW  Elec       q    Type
REMARK                         _______ _______ _______ _____ _____    ______ ____
ROOT
ATOM      1  C   UNL     1       8.456   4.095  23.432  0.00  0.00    +0.166 A 
ATOM      2  C   UNL     1       9.574   3.246  23.353  0.00  0.00    +0.206 A 
ATOM      3  C   UNL     1       9.402   1.853  23.636  0.00  0.00    +0.191 A 
ATOM      4  C   UNL     1       8.132   1.303  23.975  0.00  0.00    +0.123 A 
ATOM      5  N   UNL     1       7.938  -0.013  24.269  0.00  0.00    -0.210 NA
ATOM      6  C   UNL     1       6.710  -0.466  24.574  0.00  0.00    +0.220 A 
ATOM      7  N   UNL     1       6.524  -1.780  24.915  0.00  0.00    -0.297 N 
ATOM      8  C   UNL     1       5.183  -2.366  24.987  0.00  0.00    +0.127 C 
ATOM      9  C   UNL     1       5.029  -3.197  26.278  0.00  0.00    +0.130 C 
ATOM     10  N   UNL     1       6.156  -4.116  26.479  0.00  0.00    -0.264 N 
ATOM     11  C   UNL     1       6.037  -5.463  26.748  0.00  0.00    +0.403 C 
ATOM     12  O   UNL     1       6.994  -6.203  26.945  0.00  0.00    -0.226 OA
ATOM     13  C   UNL     1       7.486  -3.500  26.368  0.00  0.00    +0.130 C 
ATOM     14  C   UNL     1       7.645  -2.708  25.051  0.00  0.00    +0.127 C 
ATOM     15  N   UNL     1       5.640   0.332  24.600  0.00  0.00    -0.199 NA
ATOM     16  C   UNL     1       5.814   1.622  24.325  0.00  0.00    +0.129 A 
ATOM     17  N   UNL     1       4.654   2.402  24.429  0.00  0.00    -0.343 N 
ATOM     18  H   UNL     1       4.473   2.913  23.573  0.00  0.00    +0.144 HD
ATOM     19  H   UNL     1       3.895   1.760  24.645  0.00  0.00    +0.144 HD
ATOM     20  C   UNL     1       7.053   2.178  24.008  0.00  0.00    +0.047 A 
ATOM     21  C   UNL     1       7.214   3.546  23.743  0.00  0.00    +0.063 A 
ENDROOT
BRANCH   1  23
ATOM     22  C   UNL     1       7.577   6.034  22.352  0.00  0.00    +0.277 C 
ATOM     23  O   UNL     1       8.586   5.433  23.161  0.00  0.00    -0.491 OA
ENDBRANCH   1  23
BRANCH   2  24
ATOM     24  O   UNL     1      10.845   3.653  23.038  0.00  0.00    -0.488 OA
ATOM     25  C   UNL     1      11.450   4.763  23.685  0.00  0.00    +0.277 C 
ENDBRANCH   2  24
BRANCH   3  26
ATOM     26  O   UNL     1      10.400   0.891  23.624  0.00  0.00    -0.489 OA
ATOM     27  C   UNL     1      11.209   0.666  24.769  0.00  0.00    +0.277 C 
ENDBRANCH   3  26
BRANCH  11  28
ATOM     28  O   UNL     1       4.747  -5.903  26.711  0.00  0.00    -0.447 OA
BRANCH  28  29
ATOM     29  C   UNL     1       4.504  -7.046  25.874  0.00  0.00    +0.267 C 
BRANCH  29  30
ATOM     30  C   UNL     1       3.837  -6.718  24.523  0.00  0.00    +0.094 C 
ATOM     31  C   UNL     1       4.860  -6.207  23.507  0.00  0.00    +0.044 C 
ATOM     32  C   UNL     1       2.690  -5.718  24.661  0.00  0.00    +0.044 C 
BRANCH  30  33
ATOM     33  O   UNL     1       3.295  -7.936  23.982  0.00  0.00    -0.386 OA
ATOM     34  H   UNL     1       3.178  -8.563  24.718  0.00  0.00    +0.210 HD
ENDBRANCH  30  33
ENDBRANCH  29  30
ENDBRANCH  28  29
ENDBRANCH  11  28
TORSDOF 7
ENDMDL
MODEL 6
REMARK VINA RESULT:      -6.1      2.309      3.370
REMARK  Name = 
REMARK  12 active torsions:
REMARK  status: ('A' for Active; 'I' for Inactive)
REMARK    1  A    between atoms: C_1  and  O_2
REMARK    2  A    between atoms: O_2  and  C_3
REMARK    3  A    between atoms: C_18  and  O_20
REMARK    4  A    between atoms: O_20  and  C_21
REMARK    5  A    between atoms: C_21  and  C_22
REMARK    6  A    between atoms: C_22  and  C_23
REMARK    7  A    between atoms: C_22  and  C_24
REMARK    8  A    between atoms: C_22  and  O_25
REMARK    9  A    between atoms: C_26  and  O_27
REMARK   10  A    between atoms: O_27  and  C_28
REMARK   11  A    between atoms: C_29  and  O_30
REMARK   12  A    between atoms: O_30  and  C_31
REMARK                            x       y       z     vdW  Elec       q    Type
REMARK                         _______ _______ _______ _____ _____    ______ ____
ROOT
ATOM      1  C   UNL     1       8.313   4.520  25.612  0.00  0.00    +0.166 A 
ATOM      2  C   UNL     1       8.779   4.288  24.305  0.00  0.00    +0.206 A 
ATOM      3  C   UNL     1       8.509   3.023  23.692  0.00  0.00    +0.191 A 
ATOM      4  C   UNL     1       7.769   2.004  24.359  0.00  0.00    +0.123 A 
ATOM      5  N   UNL     1       7.512   0.783  23.812  0.00  0.00    -0.210 NA
ATOM      6  C   UNL     1       6.801  -0.130  24.495  0.00  0.00    +0.220 A 
ATOM      7  N   UNL     1       6.583  -1.374  23.963  0.00  0.00    -0.297 N 
ATOM      8  C   UNL     1       5.599  -2.289  24.546  0.00  0.00    +0.127 C 
ATOM      9  C   UNL     1       6.196  -3.706  24.679  0.00  0.00    +0.130 C 
ATOM     10  N   UNL     1       6.847  -4.147  23.439  0.00  0.00    -0.264 N 
ATOM     11  C   UNL     1       6.614  -5.354  22.813  0.00  0.00    +0.403 C 
ATOM     12  O   UNL     1       7.196  -5.714  21.796  0.00  0.00    -0.226 OA
ATOM     13  C   UNL     1       7.804  -3.190  22.867  0.00  0.00    +0.130 C 
ATOM     14  C   UNL     1       7.182  -1.787  22.696  0.00  0.00    +0.127 C 
ATOM     15  N   UNL     1       6.316   0.109  25.717  0.00  0.00    -0.199 NA
ATOM     16  C   UNL     1       6.567   1.293  26.268  0.00  0.00    +0.129 A 
ATOM     17  N   UNL     1       6.074   1.444  27.572  0.00  0.00    -0.343 N 
ATOM     18  H   UNL     1       5.480   2.261  27.651  0.00  0.00    +0.144 HD
ATOM     19  H   UNL     1       5.561   0.592  27.786  0.00  0.00    +0.144 HD
ATOM     20  C   UNL     1       7.303   2.293  25.636  0.00  0.00    +0.047 A 
ATOM     21  C   UNL     1       7.573   3.527  26.248  0.00  0.00    +0.063 A 
ENDROOT
BRANCH   1  23
ATOM     22  C   UNL     1       7.447   6.619  26.348  0.00  0.00    +0.277 C 
ATOM     23  O   UNL     1       8.550   5.723  26.225  0.00  0.00    -0.491 OA
ENDBRANCH   1  23
BRANCH   2  24
ATOM     24  O   UNL     1       9.500   5.187  23.561  0.00  0.00    -0.488 OA
ATOM     25  C   UNL     1      10.897   5.353  23.749  0.00  0.00    +0.277 C 
ENDBRANCH   2  24
BRANCH   3  26
ATOM     26  O   UNL     1       8.914   2.630  22.426  0.00  0.00    -0.489 OA
ATOM     27  C   UNL     1      10.172   2.004  22.225  0.00  0.00    +0.277 C 
ENDBRANCH   3  26
BRANCH  11  28
ATOM     28  O   UNL     1       5.624  -6.081  23.404  0.00  0.00    -0.447 OA
BRANCH  28  29
ATOM     29  C   UNL     1       4.327  -5.977  22.793  0.00  0.00    +0.267 C 
BRANCH  29  30
ATOM     30  C   UNL     1       3.164  -6.480  23.673  0.00  0.00    +0.094 C 
ATOM     31  C   UNL     1       1.832  -6.414  22.924  0.00  0.00    +0.044 C 
ATOM     32  C   UNL     1       3.059  -5.725  24.997  0.00  0.00    +0.044 C 
BRANCH  30  33
ATOM     33  O   UNL     1       3.397  -7.867  23.974  0.00  0.00    -0.386 OA
ATOM     34  H   UNL     1       2.704  -8.158  24.592  0.00  0.00    +0.210 HD
ENDBRANCH  30  33
ENDBRANCH  29  30
ENDBRANCH  28  29
ENDBRANCH  11  28
TORSDOF 7
ENDMDL
MODEL 7
REMARK VINA RESULT:      -5.8      2.038      9.677
REMARK  Name = 
REMARK  12 active torsions:
REMARK  status: ('A' for Active; 'I' for Inactive)
REMARK    1  A    between atoms: C_1  and  O_2
REMARK    2  A    between atoms: O_2  and  C_3
REMARK    3  A    between atoms: C_18  and  O_20
REMARK    4  A    between atoms: O_20  and  C_21
REMARK    5  A    between atoms: C_21  and  C_22
REMARK    6  A    between atoms: C_22  and  C_23
REMARK    7  A    between atoms: C_22  and  C_24
REMARK    8  A    between atoms: C_22  and  O_25
REMARK    9  A    between atoms: C_26  and  O_27
REMARK   10  A    between atoms: O_27  and  C_28
REMARK   11  A    between atoms: C_29  and  O_30
REMARK   12  A    between atoms: O_30  and  C_31
REMARK                            x       y       z     vdW  Elec       q    Type
REMARK                         _______ _______ _______ _____ _____    ______ ____
ROOT
ATOM      1  C   UNL     1       4.548  -6.216  24.826  0.00  0.00    +0.166 A 
ATOM      2  C   UNL     1       4.363  -5.561  26.057  0.00  0.00    +0.206 A 
ATOM      3  C   UNL     1       4.730  -4.182  26.165  0.00  0.00    +0.191 A 
ATOM      4  C   UNL     1       5.257  -3.452  25.060  0.00  0.00    +0.123 A 
ATOM      5  N   UNL     1       5.634  -2.145  25.135  0.00  0.00    -0.210 NA
ATOM      6  C   UNL     1       6.117  -1.515  24.050  0.00  0.00    +0.220 A 
ATOM      7  N   UNL     1       6.539  -0.215  24.139  0.00  0.00    -0.297 N 
ATOM      8  C   UNL     1       6.812   0.580  22.939  0.00  0.00    +0.127 C 
ATOM      9  C   UNL     1       8.150   1.336  23.088  0.00  0.00    +0.130 C 
ATOM     10  N   UNL     1       8.244   2.038  24.374  0.00  0.00    -0.264 N 
ATOM     11  C   UNL     1       8.588   3.365  24.525  0.00  0.00    +0.403 C 
ATOM     12  O   UNL     1       8.693   3.920  25.612  0.00  0.00    -0.226 OA
ATOM     13  C   UNL     1       7.932   1.218  25.553  0.00  0.00    +0.130 C 
ATOM     14  C   UNL     1       6.571   0.501  25.412  0.00  0.00    +0.127 C 
ATOM     15  N   UNL     1       6.245  -2.124  22.869  0.00  0.00    -0.199 NA
ATOM     16  C   UNL     1       5.890  -3.403  22.782  0.00  0.00    +0.129 A 
ATOM     17  N   UNL     1       6.108  -3.983  21.524  0.00  0.00    -0.343 N 
ATOM     18  H   UNL     1       5.261  -4.397  21.155  0.00  0.00    +0.144 HD
ATOM     19  H   UNL     1       6.451  -3.240  20.920  0.00  0.00    +0.144 HD
ATOM     20  C   UNL     1       5.390  -4.134  23.857  0.00  0.00    +0.047 A 
ATOM     21  C   UNL     1       5.043  -5.490  23.745  0.00  0.00    +0.063 A 
ENDROOT
BRANCH   1  23
ATOM     22  C   UNL     1       2.821  -7.827  24.476  0.00  0.00    +0.277 C 
ATOM     23  O   UNL     1       4.201  -7.535  24.687  0.00  0.00    -0.491 OA
ENDBRANCH   1  23
BRANCH   2  24
ATOM     24  O   UNL     1       3.867  -6.153  27.190  0.00  0.00    -0.488 OA
ATOM     25  C   UNL     1       4.723  -6.767  28.142  0.00  0.00    +0.277 C 
ENDBRANCH   2  24
BRANCH   3  26
ATOM     26  O   UNL     1       4.633  -3.402  27.306  0.00  0.00    -0.489 OA
ATOM     27  C   UNL     1       3.383  -2.874  27.723  0.00  0.00    +0.277 C 
ENDBRANCH   3  26
BRANCH  11  28
ATOM     28  O   UNL     1       8.740   4.016  23.337  0.00  0.00    -0.447 OA
BRANCH  28  29
ATOM     29  C   UNL     1       8.294   5.383  23.315  0.00  0.00    +0.267 C 
BRANCH  29  30
ATOM     30  C   UNL     1       6.883   5.585  22.727  0.00  0.00    +0.094 C 
ATOM     31  C   UNL     1       6.818   6.844  21.860  0.00  0.00    +0.044 C 
ATOM     32  C   UNL     1       5.799   5.633  23.803  0.00  0.00    +0.044 C 
BRANCH  30  33
ATOM     33  O   UNL     1       6.594   4.475  21.860  0.00  0.00    -0.386 OA
ATOM     34  H   UNL     1       5.853   4.731  21.283  0.00  0.00    +0.210 HD
ENDBRANCH  30  33
ENDBRANCH  29  30
ENDBRANCH  28  29
ENDBRANCH  11  28
TORSDOF 7
ENDMDL
MODEL 8
REMARK VINA RESULT:      -5.8      1.853      2.494
REMARK  Name = 
REMARK  12 active torsions:
REMARK  status: ('A' for Active; 'I' for Inactive)
REMARK    1  A    between atoms: C_1  and  O_2
REMARK    2  A    between atoms: O_2  and  C_3
REMARK    3  A    between atoms: C_18  and  O_20
REMARK    4  A    between atoms: O_20  and  C_21
REMARK    5  A    between atoms: C_21  and  C_22
REMARK    6  A    between atoms: C_22  and  C_23
REMARK    7  A    between atoms: C_22  and  C_24
REMARK    8  A    between atoms: C_22  and  O_25
REMARK    9  A    between atoms: C_26  and  O_27
REMARK   10  A    between atoms: O_27  and  C_28
REMARK   11  A    between atoms: C_29  and  O_30
REMARK   12  A    between atoms: O_30  and  C_31
REMARK                            x       y       z     vdW  Elec       q    Type
REMARK                         _______ _______ _______ _____ _____    ______ ____
ROOT
ATOM      1  C   UNL     1       9.443   4.725  24.027  0.00  0.00    +0.166 A 
ATOM      2  C   UNL     1       8.571   4.890  25.119  0.00  0.00    +0.206 A 
ATOM      3  C   UNL     1       7.952   3.731  25.687  0.00  0.00    +0.191 A 
ATOM      4  C   UNL     1       8.209   2.419  25.193  0.00  0.00    +0.123 A 
ATOM      5  N   UNL     1       7.621   1.299  25.698  0.00  0.00    -0.210 NA
ATOM      6  C   UNL     1       7.915   0.090  25.188  0.00  0.00    +0.220 A 
ATOM      7  N   UNL     1       7.289  -1.031  25.666  0.00  0.00    -0.297 N 
ATOM      8  C   UNL     1       7.771  -2.373  25.332  0.00  0.00    +0.127 C 
ATOM      9  C   UNL     1       6.592  -3.282  24.923  0.00  0.00    +0.130 C 
ATOM     10  N   UNL     1       5.481  -3.204  25.880  0.00  0.00    -0.264 N 
ATOM     11  C   UNL     1       4.859  -4.292  26.455  0.00  0.00    +0.403 C 
ATOM     12  O   UNL     1       3.911  -4.203  27.226  0.00  0.00    -0.226 OA
ATOM     13  C   UNL     1       5.045  -1.842  26.216  0.00  0.00    +0.130 C 
ATOM     14  C   UNL     1       6.227  -0.954  26.667  0.00  0.00    +0.127 C 
ATOM     15  N   UNL     1       8.781  -0.070  24.184  0.00  0.00    -0.199 NA
ATOM     16  C   UNL     1       9.355   1.015  23.673  0.00  0.00    +0.129 A 
ATOM     17  N   UNL     1      10.206   0.767  22.587  0.00  0.00    -0.343 N 
ATOM     18  H   UNL     1      11.131   1.148  22.748  0.00  0.00    +0.144 HD
ATOM     19  H   UNL     1      10.237  -0.243  22.471  0.00  0.00    +0.144 HD
ATOM     20  C   UNL     1       9.102   2.306  24.135  0.00  0.00    +0.047 A 
ATOM     21  C   UNL     1       9.704   3.438  23.564  0.00  0.00    +0.063 A 
ENDROOT
BRANCH   1  23
ATOM     22  C   UNL     1      11.450   5.979  23.716  0.00  0.00    +0.277 C 
ATOM     23  O   UNL     1      10.056   5.813  23.464  0.00  0.00    -0.491 OA
ENDBRANCH   1  23
BRANCH   2  24
ATOM     24  O   UNL     1       8.245   6.097  25.683  0.00  0.00    -0.488 OA
ATOM     25  C   UNL     1       9.073   6.705  26.663  0.00  0.00    +0.277 C 
ENDBRANCH   2  24
BRANCH   3  26
ATOM     26  O   UNL     1       7.057   3.724  26.746  0.00  0.00    -0.489 OA
ATOM     27  C   UNL     1       5.694   4.069  26.549  0.00  0.00    +0.277 C 
ENDBRANCH   3  26
BRANCH  11  28
ATOM     28  O   UNL     1       5.447  -5.478  26.128  0.00  0.00    -0.447 OA
BRANCH  28  29
ATOM     29  C   UNL     1       4.546  -6.545  25.784  0.00  0.00    +0.267 C 
BRANCH  29  30
ATOM     30  C   UNL     1       4.130  -6.576  24.300  0.00  0.00    +0.094 C 
ATOM     31  C   UNL     1       5.328  -6.326  23.382  0.00  0.00    +0.044 C 
ATOM     32  C   UNL     1       3.011  -5.585  23.981  0.00  0.00    +0.044 C 
BRANCH  30  33
ATOM     33  O   UNL     1       3.649  -7.896  23.996  0.00  0.00    -0.386 OA
ATOM     34  H   UNL     1       3.584  -8.390  24.832  0.00  0.00    +0.210 HD
ENDBRANCH  30  33
ENDBRANCH  29  30
ENDBRANCH  28  29
ENDBRANCH  11  28
TORSDOF 7
ENDMDL
MODEL 9
REMARK VINA RESULT:      -5.6      1.659      1.819
REMARK  Name = 
REMARK  12 active torsions:
REMARK  status: ('A' for Active; 'I' for Inactive)
REMARK    1  A    between atoms: C_1  and  O_2
REMARK    2  A    between atoms: O_2  and  C_3
REMARK    3  A    between atoms: C_18  and  O_20
REMARK    4  A    between atoms: O_20  and  C_21
REMARK    5  A    between atoms: C_21  and  C_22
REMARK    6  A    between atoms: C_22  and  C_23
REMARK    7  A    between atoms: C_22  and  C_24
REMARK    8  A    between atoms: C_22  and  O_25
REMARK    9  A    between atoms: C_26  and  O_27
REMARK   10  A    between atoms: O_27  and  C_28
REMARK   11  A    between atoms: C_29  and  O_30
REMARK   12  A    between atoms: O_30  and  C_31
REMARK                            x       y       z     vdW  Elec       q    Type
REMARK                         _______ _______ _______ _____ _____    ______ ____
ROOT
ATOM      1  C   UNL     1       9.736   4.604  24.011  0.00  0.00    +0.166 A 
ATOM      2  C   UNL     1       8.766   4.890  24.988  0.00  0.00    +0.206 A 
ATOM      3  C   UNL     1       8.003   3.812  25.538  0.00  0.00    +0.191 A 
ATOM      4  C   UNL     1       8.211   2.459  25.139  0.00  0.00    +0.123 A 
ATOM      5  N   UNL     1       7.489   1.413  25.628  0.00  0.00    -0.210 NA
ATOM      6  C   UNL     1       7.744   0.160  25.213  0.00  0.00    +0.220 A 
ATOM      7  N   UNL     1       6.986  -0.886  25.670  0.00  0.00    -0.297 N 
ATOM      8  C   UNL     1       7.399  -2.275  25.457  0.00  0.00    +0.127 C 
ATOM      9  C   UNL     1       6.205  -3.120  24.962  0.00  0.00    +0.130 C 
ATOM     10  N   UNL     1       5.006  -2.912  25.784  0.00  0.00    -0.264 N 
ATOM     11  C   UNL     1       4.245  -3.919  26.337  0.00  0.00    +0.403 C 
ATOM     12  O   UNL     1       3.229  -3.721  26.992  0.00  0.00    -0.226 OA
ATOM     13  C   UNL     1       4.641  -1.505  26.004  0.00  0.00    +0.130 C 
ATOM     14  C   UNL     1       5.831  -0.679  26.541  0.00  0.00    +0.127 C 
ATOM     15  N   UNL     1       8.699  -0.117  24.321  0.00  0.00    -0.199 NA
ATOM     16  C   UNL     1       9.406   0.896  23.827  0.00  0.00    +0.129 A 
ATOM     17  N   UNL     1      10.348   0.528  22.856  0.00  0.00    -0.343 N 
ATOM     18  H   UNL     1      11.277   0.851  23.101  0.00  0.00    +0.144 HD
ATOM     19  H   UNL     1      10.314  -0.486  22.792  0.00  0.00    +0.144 HD
ATOM     20  C   UNL     1       9.203   2.225  24.195  0.00  0.00    +0.047 A 
ATOM     21  C   UNL     1       9.948   3.278  23.642  0.00  0.00    +0.063 A 
ENDROOT
BRANCH   1  23
ATOM     22  C   UNL     1      11.900   5.549  23.657  0.00  0.00    +0.277 C 
ATOM     23  O   UNL     1      10.487   5.614  23.468  0.00  0.00    -0.491 OA
ENDBRANCH   1  23
BRANCH   2  24
ATOM     24  O   UNL     1       8.473   6.147  25.454  0.00  0.00    -0.488 OA
ATOM     25  C   UNL     1       9.223   6.742  26.503  0.00  0.00    +0.277 C 
ENDBRANCH   2  24
BRANCH   3  26
ATOM     26  O   UNL     1       7.001   3.926  26.489  0.00  0.00    -0.489 OA
ATOM     27  C   UNL     1       5.699   4.362  26.126  0.00  0.00    +0.277 C 
ENDBRANCH   3  26
BRANCH  11  28
ATOM     28  O   UNL     1       4.773  -5.160  26.135  0.00  0.00    -0.447 OA
BRANCH  28  29
ATOM     29  C   UNL     1       4.583  -6.099  27.208  0.00  0.00    +0.267 C 
BRANCH  29  30
ATOM     30  C   UNL     1       5.727  -6.128  28.241  0.00  0.00    +0.094 C 
ATOM     31  C   UNL     1       5.377  -5.302  29.481  0.00  0.00    +0.044 C 
ATOM     32  C   UNL     1       7.059  -5.658  27.658  0.00  0.00    +0.044 C 
BRANCH  30  33
ATOM     33  O   UNL     1       5.896  -7.485  28.687  0.00  0.00    -0.386 OA
ATOM     34  H   UNL     1       5.718  -7.509  29.643  0.00  0.00    +0.210 HD
ENDBRANCH  30  33
ENDBRANCH  29  30
ENDBRANCH  28  29
ENDBRANCH  11  28
TORSDOF 7
ENDMDL
