MODEL 1
REMARK VINA RESULT:      -7.2      0.000      0.000
REMARK  Name = 
REMARK  7 active torsions:
REMARK  status: ('A' for Active; 'I' for Inactive)
REMARK    1  A    between atoms: C_2  and  C_21
REMARK    2  A    between atoms: C_8  and  C_10
REMARK    3  A    between atoms: C_10  and  O_11
REMARK    4  A    between atoms: C_12  and  O_14
REMARK    5  A    between atoms: C_15  and  O_17
REMARK    6  A    between atoms: C_18  and  O_20
REMARK    7  A    between atoms: C_24  and  C_25
REMARK                            x       y       z     vdW  Elec       q    Type
REMARK                         _______ _______ _______ _____ _____    ______ ____
ROOT
ATOM      1  C   UNL     1       9.653  -1.843  22.513  0.00  0.00    +0.116 C 
ATOM      2  N   UNL     1      10.614  -2.678  23.214  0.00  0.00    -0.190 NA
ATOM      3  H   UNL     1      10.917  -3.448  22.616  0.00  0.00    +0.155 HD
ATOM      4  O   UNL     1       9.868  -3.422  24.229  0.00  0.00    -0.261 OA
ATOM      5  C   UNL     1       8.441  -3.359  23.989  0.00  0.00    +0.220 C 
ATOM      6  C   UNL     1       7.798  -3.010  25.369  0.00  0.00    +0.206 C 
ATOM      7  C   UNL     1       6.283  -3.275  25.436  0.00  0.00    +0.179 C 
ATOM      8  C   UNL     1       5.955  -4.667  24.876  0.00  0.00    +0.177 C 
ATOM      9  C   UNL     1       6.582  -4.898  23.491  0.00  0.00    +0.178 C 
ATOM     10  O   UNL     1       7.994  -4.630  23.477  0.00  0.00    -0.337 OA
ATOM     11  C   UNL     1       8.268  -2.308  22.907  0.00  0.00    +0.095 C 
ENDROOT
BRANCH   1  12
ATOM     12  C   UNL     1       9.760  -0.356  22.771  0.00  0.00    -0.028 A 
ATOM     13  C   UNL     1      10.146   0.073  24.055  0.00  0.00    +0.005 A 
ATOM     14  C   UNL     1      10.445   1.409  24.306  0.00  0.00    +0.003 A 
ATOM     15  C   UNL     1      10.363   2.349  23.273  0.00  0.00    -0.050 A 
ATOM     16  C   UNL     1      10.743   3.777  23.543  0.00  0.00    +0.044 C 
ATOM     17  C   UNL     1       9.935   1.941  22.008  0.00  0.00    +0.003 A 
ATOM     18  C   UNL     1       9.641   0.599  21.755  0.00  0.00    +0.005 A 
ENDBRANCH   1  12
BRANCH   6  19
ATOM     19  O   UNL     1       8.411  -3.801  26.416  0.00  0.00    -0.384 OA
ATOM     20  H   UNL     1       9.374  -3.844  26.214  0.00  0.00    +0.210 HD
ENDBRANCH   6  19
BRANCH   7  21
ATOM     21  O   UNL     1       5.465  -2.261  24.860  0.00  0.00    -0.386 OA
ATOM     22  H   UNL     1       5.603  -2.180  23.907  0.00  0.00    +0.210 HD
ENDBRANCH   7  21
BRANCH   8  23
ATOM     23  O   UNL     1       6.509  -5.648  25.779  0.00  0.00    -0.386 OA
ATOM     24  H   UNL     1       5.796  -6.275  25.998  0.00  0.00    +0.210 HD
ENDBRANCH   8  23
BRANCH   9  25
ATOM     25  C   UNL     1       5.808  -4.232  22.342  0.00  0.00    +0.190 C 
BRANCH  25  26
ATOM     26  O   UNL     1       4.418  -4.138  22.628  0.00  0.00    -0.392 OA
ATOM     27  H   UNL     1       3.967  -3.825  21.828  0.00  0.00    +0.210 HD
ENDBRANCH  25  26
ENDBRANCH   9  25
TORSDOF 6
ENDMDL
MODEL 2
REMARK VINA RESULT:      -7.0      2.337      6.384
REMARK  Name = 
REMARK  7 active torsions:
REMARK  status: ('A' for Active; 'I' for Inactive)
REMARK    1  A    between atoms: C_2  and  C_21
REMARK    2  A    between atoms: C_8  and  C_10
REMARK    3  A    between atoms: C_10  and  O_11
REMARK    4  A    between atoms: C_12  and  O_14
REMARK    5  A    between atoms: C_15  and  O_17
REMARK    6  A    between atoms: C_18  and  O_20
REMARK    7  A    between atoms: C_24  and  C_25
REMARK                            x       y       z     vdW  Elec       q    Type
REMARK                         _______ _______ _______ _____ _____    ______ ____
ROOT
ATOM      1  C   UNL     1       8.666  -3.811  25.283  0.00  0.00    +0.116 C 
ATOM      2  N   UNL     1       9.941  -4.112  24.654  0.00  0.00    -0.190 NA
ATOM      3  H   UNL     1      10.708  -3.930  25.304  0.00  0.00    +0.155 HD
ATOM      4  O   UNL     1      10.187  -3.062  23.668  0.00  0.00    -0.261 OA
ATOM      5  C   UNL     1       9.307  -1.930  23.869  0.00  0.00    +0.220 C 
ATOM      6  C   UNL     1       8.740  -1.581  22.457  0.00  0.00    +0.206 C 
ATOM      7  C   UNL     1       8.096  -0.185  22.370  0.00  0.00    +0.179 C 
ATOM      8  C   UNL     1       9.015   0.871  23.003  0.00  0.00    +0.177 C 
ATOM      9  C   UNL     1       9.476   0.469  24.413  0.00  0.00    +0.178 C 
ATOM     10  O   UNL     1      10.061  -0.844  24.445  0.00  0.00    -0.337 OA
ATOM     11  C   UNL     1       8.281  -2.403  24.884  0.00  0.00    +0.095 C 
ENDROOT
BRANCH   1  12
ATOM     12  C   UNL     1       7.525  -4.744  24.939  0.00  0.00    -0.028 A 
ATOM     13  C   UNL     1       6.762  -5.282  25.992  0.00  0.00    +0.005 A 
ATOM     14  C   UNL     1       5.591  -5.991  25.742  0.00  0.00    +0.003 A 
ATOM     15  C   UNL     1       5.157  -6.178  24.425  0.00  0.00    -0.050 A 
ATOM     16  C   UNL     1       3.862  -6.896  24.170  0.00  0.00    +0.044 C 
ATOM     17  C   UNL     1       5.933  -5.690  23.372  0.00  0.00    +0.003 A 
ATOM     18  C   UNL     1       7.105  -4.973  23.625  0.00  0.00    +0.005 A 
ENDBRANCH   1  12
BRANCH   6  19
ATOM     19  O   UNL     1       9.802  -1.618  21.473  0.00  0.00    -0.384 OA
ATOM     20  H   UNL     1      10.627  -1.340  21.934  0.00  0.00    +0.210 HD
ENDBRANCH   6  19
BRANCH   7  21
ATOM     21  O   UNL     1       6.764  -0.101  22.865  0.00  0.00    -0.386 OA
ATOM     22  H   UNL     1       6.498  -0.903  23.335  0.00  0.00    +0.210 HD
ENDBRANCH   7  21
BRANCH   8  23
ATOM     23  O   UNL     1      10.190   0.989  22.172  0.00  0.00    -0.386 OA
ATOM     24  H   UNL     1      10.237   1.913  21.866  0.00  0.00    +0.210 HD
ENDBRANCH   8  23
BRANCH   9  25
ATOM     25  C   UNL     1       8.417   0.707  25.503  0.00  0.00    +0.190 C 
BRANCH  25  26
ATOM     26  O   UNL     1       7.543   1.776  25.163  0.00  0.00    -0.392 OA
ATOM     27  H   UNL     1       7.815   2.558  25.667  0.00  0.00    +0.210 HD
ENDBRANCH  25  26
ENDBRANCH   9  25
TORSDOF 6
ENDMDL
MODEL 3
REMARK VINA RESULT:      -6.8      3.191      6.474
REMARK  Name = 
REMARK  7 active torsions:
REMARK  status: ('A' for Active; 'I' for Inactive)
REMARK    1  A    between atoms: C_2  and  C_21
REMARK    2  A    between atoms: C_8  and  C_10
REMARK    3  A    between atoms: C_10  and  O_11
REMARK    4  A    between atoms: C_12  and  O_14
REMARK    5  A    between atoms: C_15  and  O_17
REMARK    6  A    between atoms: C_18  and  O_20
REMARK    7  A    between atoms: C_24  and  C_25
REMARK                            x       y       z     vdW  Elec       q    Type
REMARK                         _______ _______ _______ _____ _____    ______ ____
ROOT
ATOM      1  C   UNL     1       8.757  -1.870  24.335  0.00  0.00    +0.116 C 
ATOM      2  N   UNL     1      10.103  -1.653  23.832  0.00  0.00    -0.190 NA
ATOM      3  H   UNL     1      10.739  -1.444  24.603  0.00  0.00    +0.155 HD
ATOM      4  O   UNL     1      10.098  -0.361  23.148  0.00  0.00    -0.261 OA
ATOM      5  C   UNL     1       8.915   0.407  23.477  0.00  0.00    +0.220 C 
ATOM      6  C   UNL     1       8.365   0.938  22.116  0.00  0.00    +0.206 C 
ATOM      7  C   UNL     1       7.351   2.087  22.257  0.00  0.00    +0.179 C 
ATOM      8  C   UNL     1       7.880   3.154  23.228  0.00  0.00    +0.177 C 
ATOM      9  C   UNL     1       8.345   2.546  24.562  0.00  0.00    +0.178 C 
ATOM     10  O   UNL     1       9.282   1.473  24.377  0.00  0.00    -0.337 OA
ATOM     11  C   UNL     1       8.006  -0.562  24.213  0.00  0.00    +0.095 C 
ENDROOT
BRANCH   1  12
ATOM     12  C   UNL     1       7.961  -2.955  23.641  0.00  0.00    -0.028 A 
ATOM     13  C   UNL     1       7.065  -2.579  22.624  0.00  0.00    +0.005 A 
ATOM     14  C   UNL     1       6.446  -3.534  21.823  0.00  0.00    +0.003 A 
ATOM     15  C   UNL     1       6.712  -4.893  22.024  0.00  0.00    -0.050 A 
ATOM     16  C   UNL     1       6.083  -5.911  21.116  0.00  0.00    +0.044 C 
ATOM     17  C   UNL     1       7.563  -5.277  23.062  0.00  0.00    +0.003 A 
ATOM     18  C   UNL     1       8.188  -4.318  23.862  0.00  0.00    +0.005 A 
ENDBRANCH   1  12
BRANCH   6  19
ATOM     19  O   UNL     1       9.455   1.434  21.300  0.00  0.00    -0.384 OA
ATOM     20  H   UNL     1      10.047   1.947  21.898  0.00  0.00    +0.210 HD
ENDBRANCH   6  19
BRANCH   7  21
ATOM     21  O   UNL     1       6.022   1.687  22.575  0.00  0.00    -0.386 OA
ATOM     22  H   UNL     1       5.881   1.618  23.529  0.00  0.00    +0.210 HD
ENDBRANCH   7  21
BRANCH   8  23
ATOM     23  O   UNL     1       9.023   3.786  22.611  0.00  0.00    -0.386 OA
ATOM     24  H   UNL     1       9.099   4.681  22.990  0.00  0.00    +0.210 HD
ENDBRANCH   8  23
BRANCH   9  25
ATOM     25  C   UNL     1       7.193   2.211  25.524  0.00  0.00    +0.190 C 
BRANCH  25  26
ATOM     26  O   UNL     1       7.674   1.823  26.805  0.00  0.00    -0.392 OA
ATOM     27  H   UNL     1       7.920   0.886  26.763  0.00  0.00    +0.210 HD
ENDBRANCH  25  26
ENDBRANCH   9  25
TORSDOF 6
ENDMDL
MODEL 4
REMARK VINA RESULT:      -6.7      1.622      2.171
REMARK  Name = 
REMARK  7 active torsions:
REMARK  status: ('A' for Active; 'I' for Inactive)
REMARK    1  A    between atoms: C_2  and  C_21
REMARK    2  A    between atoms: C_8  and  C_10
REMARK    3  A    between atoms: C_10  and  O_11
REMARK    4  A    between atoms: C_12  and  O_14
REMARK    5  A    between atoms: C_15  and  O_17
REMARK    6  A    between atoms: C_18  and  O_20
REMARK    7  A    between atoms: C_24  and  C_25
REMARK                            x       y       z     vdW  Elec       q    Type
REMARK                         _______ _______ _______ _____ _____    ______ ____
ROOT
ATOM      1  C   UNL     1       8.621   0.208  21.756  0.00  0.00    +0.116 C 
ATOM      2  N   UNL     1       9.777  -0.492  21.219  0.00  0.00    -0.190 NA
ATOM      3  H   UNL     1       9.568  -0.858  20.289  0.00  0.00    +0.155 HD
ATOM      4  O   UNL     1       9.899  -1.743  21.965  0.00  0.00    -0.261 OA
ATOM      5  C   UNL     1       8.694  -2.034  22.713  0.00  0.00    +0.220 C 
ATOM      6  C   UNL     1       9.172  -2.427  24.146  0.00  0.00    +0.206 C 
ATOM      7  C   UNL     1       8.101  -3.144  24.988  0.00  0.00    +0.179 C 
ATOM      8  C   UNL     1       7.438  -4.265  24.171  0.00  0.00    +0.177 C 
ATOM      9  C   UNL     1       6.947  -3.771  22.801  0.00  0.00    +0.178 C 
ATOM     10  O   UNL     1       7.979  -3.101  22.058  0.00  0.00    -0.337 OA
ATOM     11  C   UNL     1       7.862  -0.766  22.630  0.00  0.00    +0.095 C 
ENDROOT
BRANCH   1  12
ATOM     12  C   UNL     1       8.921   1.455  22.561  0.00  0.00    -0.028 A 
ATOM     13  C   UNL     1      10.267   1.789  22.797  0.00  0.00    +0.005 A 
ATOM     14  C   UNL     1      10.614   3.013  23.363  0.00  0.00    +0.003 A 
ATOM     15  C   UNL     1       9.615   3.931  23.707  0.00  0.00    -0.050 A 
ATOM     16  C   UNL     1      10.005   5.271  24.264  0.00  0.00    +0.044 C 
ATOM     17  C   UNL     1       8.275   3.588  23.520  0.00  0.00    +0.003 A 
ATOM     18  C   UNL     1       7.928   2.362  22.946  0.00  0.00    +0.005 A 
ENDBRANCH   1  12
BRANCH   6  19
ATOM     19  O   UNL     1      10.310  -3.320  24.062  0.00  0.00    -0.384 OA
ATOM     20  H   UNL     1      10.513  -3.432  23.105  0.00  0.00    +0.210 HD
ENDBRANCH   6  19
BRANCH   7  21
ATOM     21  O   UNL     1       7.141  -2.290  25.602  0.00  0.00    -0.386 OA
ATOM     22  H   UNL     1       6.966  -2.539  26.519  0.00  0.00    +0.210 HD
ENDBRANCH   7  21
BRANCH   8  23
ATOM     23  O   UNL     1       8.429  -5.290  23.941  0.00  0.00    -0.386 OA
ATOM     24  H   UNL     1       9.087  -5.222  24.657  0.00  0.00    +0.210 HD
ENDBRANCH   8  23
BRANCH   9  25
ATOM     25  C   UNL     1       5.619  -2.999  22.859  0.00  0.00    +0.190 C 
BRANCH  25  26
ATOM     26  O   UNL     1       4.818  -3.412  23.960  0.00  0.00    -0.392 OA
ATOM     27  H   UNL     1       4.044  -2.830  24.003  0.00  0.00    +0.210 HD
ENDBRANCH  25  26
ENDBRANCH   9  25
TORSDOF 6
ENDMDL
MODEL 5
REMARK VINA RESULT:      -6.5      3.519      6.482
REMARK  Name = 
REMARK  7 active torsions:
REMARK  status: ('A' for Active; 'I' for Inactive)
REMARK    1  A    between atoms: C_2  and  C_21
REMARK    2  A    between atoms: C_8  and  C_10
REMARK    3  A    between atoms: C_10  and  O_11
REMARK    4  A    between atoms: C_12  and  O_14
REMARK    5  A    between atoms: C_15  and  O_17
REMARK    6  A    between atoms: C_18  and  O_20
REMARK    7  A    between atoms: C_24  and  C_25
REMARK                            x       y       z     vdW  Elec       q    Type
REMARK                         _______ _______ _______ _____ _____    ______ ____
ROOT
ATOM      1  C   UNL     1       9.222  -1.039  24.591  0.00  0.00    +0.116 C 
ATOM      2  N   UNL     1      10.529  -0.571  24.163  0.00  0.00    -0.190 NA
ATOM      3  H   UNL     1      11.052  -0.204  24.960  0.00  0.00    +0.155 HD
ATOM      4  O   UNL     1      10.313   0.662  23.409  0.00  0.00    -0.261 OA
ATOM      5  C   UNL     1       8.978   1.184  23.619  0.00  0.00    +0.220 C 
ATOM      6  C   UNL     1       8.434   1.532  22.198  0.00  0.00    +0.206 C 
ATOM      7  C   UNL     1       7.201   2.454  22.210  0.00  0.00    +0.179 C 
ATOM      8  C   UNL     1       7.430   3.646  23.151  0.00  0.00    +0.177 C 
ATOM      9  C   UNL     1       7.908   3.203  24.544  0.00  0.00    +0.178 C 
ATOM     10  O   UNL     1       9.055   2.339  24.479  0.00  0.00    -0.337 OA
ATOM     11  C   UNL     1       8.233   0.080  24.349  0.00  0.00    +0.095 C 
ENDROOT
BRANCH   1  12
ATOM     12  C   UNL     1       8.715  -2.293  23.910  0.00  0.00    -0.028 A 
ATOM     13  C   UNL     1       8.894  -3.526  24.563  0.00  0.00    +0.005 A 
ATOM     14  C   UNL     1       8.290  -4.686  24.086  0.00  0.00    +0.003 A 
ATOM     15  C   UNL     1       7.490  -4.635  22.939  0.00  0.00    -0.050 A 
ATOM     16  C   UNL     1       6.798  -5.882  22.467  0.00  0.00    +0.044 C 
ATOM     17  C   UNL     1       7.346  -3.425  22.257  0.00  0.00    +0.003 A 
ATOM     18  C   UNL     1       7.948  -2.261  22.741  0.00  0.00    +0.005 A 
ENDBRANCH   1  12
BRANCH   6  19
ATOM     19  O   UNL     1       9.457   2.208  21.427  0.00  0.00    -0.384 OA
ATOM     20  H   UNL     1       9.338   3.173  21.579  0.00  0.00    +0.210 HD
ENDBRANCH   6  19
BRANCH   7  21
ATOM     21  O   UNL     1       5.960   1.802  22.466  0.00  0.00    -0.386 OA
ATOM     22  H   UNL     1       5.429   2.274  23.120  0.00  0.00    +0.210 HD
ENDBRANCH   7  21
BRANCH   8  23
ATOM     23  O   UNL     1       8.463   4.473  22.574  0.00  0.00    -0.386 OA
ATOM     24  H   UNL     1       8.802   4.006  21.789  0.00  0.00    +0.210 HD
ENDBRANCH   8  23
BRANCH   9  25
ATOM     25  C   UNL     1       6.781   2.679  25.449  0.00  0.00    +0.190 C 
BRANCH  25  26
ATOM     26  O   UNL     1       5.522   3.240  25.099  0.00  0.00    -0.392 OA
ATOM     27  H   UNL     1       4.848   2.848  25.675  0.00  0.00    +0.210 HD
ENDBRANCH  25  26
ENDBRANCH   9  25
TORSDOF 6
ENDMDL
MODEL 6
REMARK VINA RESULT:      -6.4      3.254      6.568
REMARK  Name = 
REMARK  7 active torsions:
REMARK  status: ('A' for Active; 'I' for Inactive)
REMARK    1  A    between atoms: C_2  and  C_21
REMARK    2  A    between atoms: C_8  and  C_10
REMARK    3  A    between atoms: C_10  and  O_11
REMARK    4  A    between atoms: C_12  and  O_14
REMARK    5  A    between atoms: C_15  and  O_17
REMARK    6  A    between atoms: C_18  and  O_20
REMARK    7  A    between atoms: C_24  and  C_25
REMARK                            x       y       z     vdW  Elec       q    Type
REMARK                         _______ _______ _______ _____ _____    ______ ____
ROOT
ATOM      1  C   UNL     1       7.059  -1.175  24.802  0.00  0.00    +0.116 C 
ATOM      2  N   UNL     1       8.037  -1.247  25.874  0.00  0.00    -0.190 NA
ATOM      3  H   UNL     1       7.718  -0.709  26.681  0.00  0.00    +0.155 HD
ATOM      4  O   UNL     1       9.180  -0.433  25.461  0.00  0.00    -0.261 OA
ATOM      5  C   UNL     1       8.845   0.420  24.340  0.00  0.00    +0.220 C 
ATOM      6  C   UNL     1      10.013   0.251  23.318  0.00  0.00    +0.206 C 
ATOM      7  C   UNL     1      10.062   1.349  22.239  0.00  0.00    +0.179 C 
ATOM      8  C   UNL     1       9.927   2.739  22.880  0.00  0.00    +0.177 C 
ATOM      9  C   UNL     1       8.717   2.828  23.825  0.00  0.00    +0.178 C 
ATOM     10  O   UNL     1       8.711   1.778  24.807  0.00  0.00    -0.337 OA
ATOM     11  C   UNL     1       7.488  -0.068  23.864  0.00  0.00    +0.095 C 
ENDROOT
BRANCH   1  12
ATOM     12  C   UNL     1       6.865  -2.445  24.001  0.00  0.00    -0.028 A 
ATOM     13  C   UNL     1       6.037  -2.397  22.865  0.00  0.00    +0.005 A 
ATOM     14  C   UNL     1       5.965  -3.472  21.982  0.00  0.00    +0.003 A 
ATOM     15  C   UNL     1       6.726  -4.622  22.221  0.00  0.00    -0.050 A 
ATOM     16  C   UNL     1       6.684  -5.752  21.231  0.00  0.00    +0.044 C 
ATOM     17  C   UNL     1       7.513  -4.697  23.370  0.00  0.00    +0.003 A 
ATOM     18  C   UNL     1       7.589  -3.615  24.252  0.00  0.00    +0.005 A 
ENDBRANCH   1  12
BRANCH   6  19
ATOM     19  O   UNL     1      11.285   0.282  24.010  0.00  0.00    -0.384 OA
ATOM     20  H   UNL     1      11.277   1.080  24.586  0.00  0.00    +0.210 HD
ENDBRANCH   6  19
BRANCH   7  21
ATOM     21  O   UNL     1       9.159   1.171  21.153  0.00  0.00    -0.386 OA
ATOM     22  H   UNL     1       8.540   0.445  21.309  0.00  0.00    +0.210 HD
ENDBRANCH   7  21
BRANCH   8  23
ATOM     23  O   UNL     1      11.116   2.982  23.663  0.00  0.00    -0.386 OA
ATOM     24  H   UNL     1      11.135   3.933  23.872  0.00  0.00    +0.210 HD
ENDBRANCH   8  23
BRANCH   9  25
ATOM     25  C   UNL     1       7.375   3.010  23.097  0.00  0.00    +0.190 C 
BRANCH  25  26
ATOM     26  O   UNL     1       7.533   3.710  21.869  0.00  0.00    -0.392 OA
ATOM     27  H   UNL     1       6.932   4.471  21.879  0.00  0.00    +0.210 HD
ENDBRANCH  25  26
ENDBRANCH   9  25
TORSDOF 6
ENDMDL
MODEL 7
REMARK VINA RESULT:      -6.4      2.067      3.083
REMARK  Name = 
REMARK  7 active torsions:
REMARK  status: ('A' for Active; 'I' for Inactive)
REMARK    1  A    between atoms: C_2  and  C_21
REMARK    2  A    between atoms: C_8  and  C_10
REMARK    3  A    between atoms: C_10  and  O_11
REMARK    4  A    between atoms: C_12  and  O_14
REMARK    5  A    between atoms: C_15  and  O_17
REMARK    6  A    between atoms: C_18  and  O_20
REMARK    7  A    between atoms: C_24  and  C_25
REMARK                            x       y       z     vdW  Elec       q    Type
REMARK                         _______ _______ _______ _____ _____    ______ ____
ROOT
ATOM      1  C   UNL     1       8.209  -3.972  23.890  0.00  0.00    +0.116 C 
ATOM      2  N   UNL     1       8.991  -5.172  24.139  0.00  0.00    -0.190 NA
ATOM      3  H   UNL     1       8.791  -5.878  23.430  0.00  0.00    +0.155 HD
ATOM      4  O   UNL     1       8.412  -5.819  25.316  0.00  0.00    -0.261 OA
ATOM      5  C   UNL     1       7.104  -5.281  25.625  0.00  0.00    +0.220 C 
ATOM      6  C   UNL     1       7.116  -5.003  27.161  0.00  0.00    +0.206 C 
ATOM      7  C   UNL     1       5.716  -4.799  27.770  0.00  0.00    +0.179 C 
ATOM      8  C   UNL     1       4.758  -5.903  27.296  0.00  0.00    +0.177 C 
ATOM      9  C   UNL     1       4.770  -6.065  25.767  0.00  0.00    +0.178 C 
ATOM     10  O   UNL     1       6.098  -6.243  25.246  0.00  0.00    -0.337 OA
ATOM     11  C   UNL     1       6.962  -4.054  24.743  0.00  0.00    +0.095 C 
ENDROOT
BRANCH   1  12
ATOM     12  C   UNL     1       8.908  -2.659  24.172  0.00  0.00    -0.028 A 
ATOM     13  C   UNL     1       9.747  -2.123  23.178  0.00  0.00    +0.005 A 
ATOM     14  C   UNL     1      10.267  -0.837  23.295  0.00  0.00    +0.003 A 
ATOM     15  C   UNL     1       9.957  -0.058  24.415  0.00  0.00    -0.050 A 
ATOM     16  C   UNL     1      10.478   1.349  24.502  0.00  0.00    +0.044 C 
ATOM     17  C   UNL     1       9.165  -0.600  25.428  0.00  0.00    +0.003 A 
ATOM     18  C   UNL     1       8.638  -1.888  25.307  0.00  0.00    +0.005 A 
ENDBRANCH   1  12
BRANCH   6  19
ATOM     19  O   UNL     1       7.722  -6.116  27.863  0.00  0.00    -0.384 OA
ATOM     20  H   UNL     1       8.686  -6.085  27.666  0.00  0.00    +0.210 HD
ENDBRANCH   6  19
BRANCH   7  21
ATOM     21  O   UNL     1       5.163  -3.499  27.594  0.00  0.00    -0.386 OA
ATOM     22  H   UNL     1       4.210  -3.526  27.435  0.00  0.00    +0.210 HD
ENDBRANCH   7  21
BRANCH   8  23
ATOM     23  O   UNL     1       5.199  -7.150  27.875  0.00  0.00    -0.386 OA
ATOM     24  H   UNL     1       5.069  -7.843  27.202  0.00  0.00    +0.210 HD
ENDBRANCH   8  23
BRANCH   9  25
ATOM     25  C   UNL     1       3.946  -5.001  25.024  0.00  0.00    +0.190 C 
BRANCH  25  26
ATOM     26  O   UNL     1       2.888  -4.496  25.831  0.00  0.00    -0.392 OA
ATOM     27  H   UNL     1       2.678  -5.163  26.502  0.00  0.00    +0.210 HD
ENDBRANCH  25  26
ENDBRANCH   9  25
TORSDOF 6
ENDMDL
MODEL 8
REMARK VINA RESULT:      -6.1      2.615      4.220
REMARK  Name = 
REMARK  7 active torsions:
REMARK  status: ('A' for Active; 'I' for Inactive)
REMARK    1  A    between atoms: C_2  and  C_21
REMARK    2  A    between atoms: C_8  and  C_10
REMARK    3  A    between atoms: C_10  and  O_11
REMARK    4  A    between atoms: C_12  and  O_14
REMARK    5  A    between atoms: C_15  and  O_17
REMARK    6  A    between atoms: C_18  and  O_20
REMARK    7  A    between atoms: C_24  and  C_25
REMARK                            x       y       z     vdW  Elec       q    Type
REMARK                         _______ _______ _______ _____ _____    ______ ____
ROOT
ATOM      1  C   UNL     1       8.232  -5.290  25.072  0.00  0.00    +0.116 C 
ATOM      2  N   UNL     1       8.691  -5.187  26.447  0.00  0.00    -0.190 NA
ATOM      3  H   UNL     1       8.964  -6.107  26.799  0.00  0.00    +0.155 HD
ATOM      4  O   UNL     1       7.510  -4.938  27.271  0.00  0.00    -0.261 OA
ATOM      5  C   UNL     1       6.289  -5.211  26.543  0.00  0.00    +0.220 C 
ATOM      6  C   UNL     1       5.359  -3.984  26.804  0.00  0.00    +0.206 C 
ATOM      7  C   UNL     1       3.881  -4.235  26.453  0.00  0.00    +0.179 C 
ATOM      8  C   UNL     1       3.408  -5.572  27.042  0.00  0.00    +0.177 C 
ATOM      9  C   UNL     1       4.353  -6.731  26.684  0.00  0.00    +0.178 C 
ATOM     10  O   UNL     1       5.721  -6.447  27.023  0.00  0.00    -0.337 OA
ATOM     11  C   UNL     1       6.723  -5.402  25.100  0.00  0.00    +0.095 C 
ENDROOT
BRANCH   1  12
ATOM     12  C   UNL     1       8.619  -4.145  24.161  0.00  0.00    -0.028 A 
ATOM     13  C   UNL     1       7.764  -3.826  23.090  0.00  0.00    +0.005 A 
ATOM     14  C   UNL     1       7.961  -2.674  22.332  0.00  0.00    +0.003 A 
ATOM     15  C   UNL     1       9.024  -1.815  22.632  0.00  0.00    -0.050 A 
ATOM     16  C   UNL     1       9.192  -0.547  21.844  0.00  0.00    +0.044 C 
ATOM     17  C   UNL     1       9.905  -2.149  23.661  0.00  0.00    +0.003 A 
ATOM     18  C   UNL     1       9.703  -3.301  24.425  0.00  0.00    +0.005 A 
ENDBRANCH   1  12
BRANCH   6  19
ATOM     19  O   UNL     1       5.403  -3.618  28.205  0.00  0.00    -0.384 OA
ATOM     20  H   UNL     1       5.056  -4.387  28.712  0.00  0.00    +0.210 HD
ENDBRANCH   6  19
BRANCH   7  21
ATOM     21  O   UNL     1       3.559  -4.115  25.071  0.00  0.00    -0.386 OA
ATOM     22  H   UNL     1       4.014  -4.775  24.532  0.00  0.00    +0.210 HD
ENDBRANCH   7  21
BRANCH   8  23
ATOM     23  O   UNL     1       3.395  -5.442  28.480  0.00  0.00    -0.386 OA
ATOM     24  H   UNL     1       4.099  -6.019  28.829  0.00  0.00    +0.210 HD
ENDBRANCH   8  23
BRANCH   9  25
ATOM     25  C   UNL     1       4.162  -7.268  25.257  0.00  0.00    +0.190 C 
BRANCH  25  26
ATOM     26  O   UNL     1       3.236  -8.348  25.220  0.00  0.00    -0.392 OA
ATOM     27  H   UNL     1       2.826  -8.362  24.342  0.00  0.00    +0.210 HD
ENDBRANCH  25  26
ENDBRANCH   9  25
TORSDOF 6
ENDMDL
MODEL 9
REMARK VINA RESULT:      -6.1      2.051      3.475
REMARK  Name = 
REMARK  7 active torsions:
REMARK  status: ('A' for Active; 'I' for Inactive)
REMARK    1  A    between atoms: C_2  and  C_21
REMARK    2  A    between atoms: C_8  and  C_10
REMARK    3  A    between atoms: C_10  and  O_11
REMARK    4  A    between atoms: C_12  and  O_14
REMARK    5  A    between atoms: C_15  and  O_17
REMARK    6  A    between atoms: C_18  and  O_20
REMARK    7  A    between atoms: C_24  and  C_25
REMARK                            x       y       z     vdW  Elec       q    Type
REMARK                         _______ _______ _______ _____ _____    ______ ____
ROOT
ATOM      1  C   UNL     1       7.066  -0.380  25.698  0.00  0.00    +0.116 C 
ATOM      2  N   UNL     1       5.701  -0.204  25.232  0.00  0.00    -0.190 NA
ATOM      3  H   UNL     1       5.053  -0.221  26.021  0.00  0.00    +0.155 HD
ATOM      4  O   UNL     1       5.319  -1.445  24.560  0.00  0.00    -0.261 OA
ATOM      5  C   UNL     1       6.242  -2.518  24.866  0.00  0.00    +0.220 C 
ATOM      6  C   UNL     1       6.581  -3.186  23.496  0.00  0.00    +0.206 C 
ATOM      7  C   UNL     1       7.228  -4.577  23.622  0.00  0.00    +0.179 C 
ATOM      8  C   UNL     1       6.443  -5.447  24.616  0.00  0.00    +0.177 C 
ATOM      9  C   UNL     1       6.208  -4.730  25.956  0.00  0.00    +0.178 C 
ATOM     10  O   UNL     1       5.611  -3.433  25.785  0.00  0.00    -0.337 OA
ATOM     11  C   UNL     1       7.409  -1.848  25.569  0.00  0.00    +0.095 C 
ENDROOT
BRANCH   1  12
ATOM     12  C   UNL     1       8.120   0.432  24.975  0.00  0.00    -0.028 A 
ATOM     13  C   UNL     1       7.712   1.582  24.274  0.00  0.00    +0.005 A 
ATOM     14  C   UNL     1       8.645   2.472  23.749  0.00  0.00    +0.003 A 
ATOM     15  C   UNL     1      10.013   2.227  23.914  0.00  0.00    -0.050 A 
ATOM     16  C   UNL     1      11.009   3.223  23.392  0.00  0.00    +0.044 C 
ATOM     17  C   UNL     1      10.426   1.064  24.565  0.00  0.00    +0.003 A 
ATOM     18  C   UNL     1       9.489   0.175  25.098  0.00  0.00    +0.005 A 
ENDBRANCH   1  12
BRANCH   6  19
ATOM     19  O   UNL     1       5.373  -3.352  22.713  0.00  0.00    -0.384 OA
ATOM     20  H   UNL     1       5.489  -2.818  21.894  0.00  0.00    +0.210 HD
ENDBRANCH   6  19
BRANCH   7  21
ATOM     21  O   UNL     1       8.625  -4.572  23.903  0.00  0.00    -0.386 OA
ATOM     22  H   UNL     1       8.891  -3.796  24.414  0.00  0.00    +0.210 HD
ENDBRANCH   7  21
BRANCH   8  23
ATOM     23  O   UNL     1       5.152  -5.728  24.034  0.00  0.00    -0.386 OA
ATOM     24  H   UNL     1       5.010  -6.690  24.096  0.00  0.00    +0.210 HD
ENDBRANCH   8  23
BRANCH   9  25
ATOM     25  C   UNL     1       7.432  -4.735  26.885  0.00  0.00    +0.190 C 
BRANCH  25  26
ATOM     26  O   UNL     1       8.248  -5.881  26.674  0.00  0.00    -0.392 OA
ATOM     27  H   UNL     1       9.043  -5.600  26.196  0.00  0.00    +0.210 HD
ENDBRANCH  25  26
ENDBRANCH   9  25
TORSDOF 6
ENDMDL
