MODEL 1
REMARK VINA RESULT:      -7.2      0.000      0.000
REMARK  Name = 
REMARK  3 active torsions:
REMARK  status: ('A' for Active; 'I' for Inactive)
REMARK    1  A    between atoms: C_1  and  C_2
REMARK    2  A    between atoms: C_8  and  C_10
REMARK    3  A    between atoms: C_14  and  C_19
REMARK                            x       y       z     vdW  Elec       q    Type
REMARK                         _______ _______ _______ _____ _____    ______ ____
ROOT
ATOM      1  C   UNL     1       9.648   1.409  24.392  0.00  0.00    +0.139 A 
ATOM      2  N   UNL     1       9.040   1.039  25.571  0.00  0.00    -0.338 N 
ATOM      3  H   UNL     1       8.741   1.750  26.239  0.00  0.00    +0.167 HD
ATOM      4  C   UNL     1       8.942  -0.318  25.626  0.00  0.00    +0.067 A 
ATOM      5  C   UNL     1       9.523  -0.736  24.440  0.00  0.00    +0.090 A 
ATOM      6  C   UNL     1       9.598  -2.112  24.172  0.00  0.00    +0.045 A 
ATOM      7  C   UNL     1       9.066  -3.034  25.099  0.00  0.00    +0.063 A 
ATOM      8  C   UNL     1       8.476  -2.549  26.285  0.00  0.00    +0.018 A 
ATOM      9  C   UNL     1       8.412  -1.182  26.579  0.00  0.00    +0.028 A 
ATOM     10  N   UNL     1       9.953   0.327  23.685  0.00  0.00    -0.228 NA
ENDROOT
BRANCH   1  14
ATOM     11  C   UNL     1      12.899   4.928  23.011  0.00  0.00    +0.044 C 
ATOM     12  C   UNL     1      11.505   4.546  23.399  0.00  0.00    -0.049 A 
ATOM     13  C   UNL     1      11.188   3.224  23.710  0.00  0.00    +0.014 A 
ATOM     14  C   UNL     1       9.876   2.843  24.079  0.00  0.00    +0.011 A 
ATOM     15  C   UNL     1       8.796   3.800  24.148  0.00  0.00    -0.083 A 
ATOM     16  O   UNL     1       7.591   3.482  24.477  0.00  0.00    -0.872 OA
ATOM     17  C   UNL     1       9.182   5.131  23.821  0.00  0.00    +0.011 A 
ATOM     18 BR   UNL     1       7.914   6.577  23.847  0.00  0.00    -0.051 Br
ATOM     19  C   UNL     1      10.492   5.497  23.457  0.00  0.00    +0.018 A 
ENDBRANCH   1  14
BRANCH   7  20
ATOM     20  C   UNL     1       9.124  -4.481  24.827  0.00  0.00    +0.266 C 
ATOM     21  N   UNL     1       9.999  -5.237  25.459  0.00  0.00    -0.288 N 
ATOM     22  H   UNL     1      10.068  -6.232  25.310  0.00  0.00    +0.301 HD
ATOM     23  H   UNL     1      10.655  -4.817  26.110  0.00  0.00    +0.301 HD
ATOM     24  N   UNL     1       8.303  -5.021  23.951  0.00  0.00    -0.250 N 
ATOM     25  H   UNL     1       8.319  -6.005  23.721  0.00  0.00    +0.288 HD
ATOM     26  H   UNL     1       7.608  -4.446  23.486  0.00  0.00    +0.288 HD
ENDBRANCH   7  20
TORSDOF 2
ENDMDL
MODEL 2
REMARK VINA RESULT:      -7.1      4.287      7.981
REMARK  Name = 
REMARK  3 active torsions:
REMARK  status: ('A' for Active; 'I' for Inactive)
REMARK    1  A    between atoms: C_1  and  C_2
REMARK    2  A    between atoms: C_8  and  C_10
REMARK    3  A    between atoms: C_14  and  C_19
REMARK                            x       y       z     vdW  Elec       q    Type
REMARK                         _______ _______ _______ _____ _____    ______ ____
ROOT
ATOM      1  C   UNL     1       7.755  -2.147  23.601  0.00  0.00    +0.139 A 
ATOM      2  N   UNL     1       8.882  -1.996  24.379  0.00  0.00    -0.338 N 
ATOM      3  H   UNL     1       9.242  -2.782  24.919  0.00  0.00    +0.167 HD
ATOM      4  C   UNL     1       9.344  -0.719  24.267  0.00  0.00    +0.067 A 
ATOM      5  C   UNL     1       8.442  -0.119  23.403  0.00  0.00    +0.090 A 
ATOM      6  C   UNL     1       8.620   1.232  23.071  0.00  0.00    +0.045 A 
ATOM      7  C   UNL     1       9.717   1.944  23.604  0.00  0.00    +0.063 A 
ATOM      8  C   UNL     1      10.608   1.278  24.471  0.00  0.00    +0.018 A 
ATOM      9  C   UNL     1      10.435  -0.064  24.829  0.00  0.00    +0.028 A 
ATOM     10  N   UNL     1       7.470  -1.000  22.995  0.00  0.00    -0.228 NA
ENDROOT
BRANCH   1  14
ATOM     11  C   UNL     1       6.168  -5.917  20.751  0.00  0.00    +0.044 C 
ATOM     12  C   UNL     1       6.286  -5.288  22.104  0.00  0.00    -0.049 A 
ATOM     13  C   UNL     1       6.930  -4.063  22.268  0.00  0.00    +0.014 A 
ATOM     14  C   UNL     1       7.052  -3.453  23.540  0.00  0.00    +0.011 A 
ATOM     15  C   UNL     1       6.519  -4.069  24.733  0.00  0.00    -0.083 A 
ATOM     16  O   UNL     1       6.617  -3.539  25.904  0.00  0.00    -0.872 OA
ATOM     17  C   UNL     1       5.872  -5.315  24.500  0.00  0.00    +0.011 A 
ATOM     18 BR   UNL     1       5.082  -6.317  25.940  0.00  0.00    -0.051 Br
ATOM     19  C   UNL     1       5.757  -5.910  23.230  0.00  0.00    +0.018 A 
ENDBRANCH   1  14
BRANCH   7  20
ATOM     20  C   UNL     1       9.927   3.360  23.255  0.00  0.00    +0.266 C 
ATOM     21  N   UNL     1      11.150   3.837  23.141  0.00  0.00    -0.288 N 
ATOM     22  H   UNL     1      11.339   4.797  22.896  0.00  0.00    +0.301 HD
ATOM     23  H   UNL     1      11.948   3.238  23.325  0.00  0.00    +0.301 HD
ATOM     24  N   UNL     1       8.893   4.151  23.059  0.00  0.00    -0.250 N 
ATOM     25  H   UNL     1       8.990   5.131  22.835  0.00  0.00    +0.288 HD
ATOM     26  H   UNL     1       7.951   3.778  23.117  0.00  0.00    +0.288 HD
ENDBRANCH   7  20
TORSDOF 2
ENDMDL
MODEL 3
REMARK VINA RESULT:      -7.0      1.159      1.940
REMARK  Name = 
REMARK  3 active torsions:
REMARK  status: ('A' for Active; 'I' for Inactive)
REMARK    1  A    between atoms: C_1  and  C_2
REMARK    2  A    between atoms: C_8  and  C_10
REMARK    3  A    between atoms: C_14  and  C_19
REMARK                            x       y       z     vdW  Elec       q    Type
REMARK                         _______ _______ _______ _____ _____    ______ ____
ROOT
ATOM      1  C   UNL     1       9.897   1.836  23.666  0.00  0.00    +0.139 A 
ATOM      2  N   UNL     1       9.628   1.217  22.465  0.00  0.00    -0.338 N 
ATOM      3  H   UNL     1       9.654   1.749  21.596  0.00  0.00    +0.167 HD
ATOM      4  C   UNL     1       9.359  -0.101  22.683  0.00  0.00    +0.067 A 
ATOM      5  C   UNL     1       9.470  -0.234  24.058  0.00  0.00    +0.090 A 
ATOM      6  C   UNL     1       9.242  -1.492  24.635  0.00  0.00    +0.045 A 
ATOM      7  C   UNL     1       8.926  -2.593  23.809  0.00  0.00    +0.063 A 
ATOM      8  C   UNL     1       8.837  -2.400  22.415  0.00  0.00    +0.018 A 
ATOM      9  C   UNL     1       9.041  -1.148  21.824  0.00  0.00    +0.028 A 
ATOM     10  N   UNL     1       9.803   0.956  24.656  0.00  0.00    -0.228 NA
ENDROOT
BRANCH   1  14
ATOM     11  C   UNL     1      13.332   5.371  22.913  0.00  0.00    +0.044 C 
ATOM     12  C   UNL     1      11.945   4.993  23.329  0.00  0.00    -0.049 A 
ATOM     13  C   UNL     1      11.535   3.660  23.320  0.00  0.00    +0.014 A 
ATOM     14  C   UNL     1      10.228   3.283  23.710  0.00  0.00    +0.011 A 
ATOM     15  C   UNL     1       9.249   4.258  24.132  0.00  0.00    -0.083 A 
ATOM     16  O   UNL     1       8.050   3.945  24.488  0.00  0.00    -0.872 OA
ATOM     17  C   UNL     1       9.726   5.598  24.121  0.00  0.00    +0.011 A 
ATOM     18 BR   UNL     1       8.601   7.067  24.646  0.00  0.00    -0.051 Br
ATOM     19  C   UNL     1      11.030   5.960  23.732  0.00  0.00    +0.018 A 
ENDBRANCH   1  14
BRANCH   7  20
ATOM     20  C   UNL     1       8.697  -3.924  24.399  0.00  0.00    +0.266 C 
ATOM     21  N   UNL     1       8.046  -4.845  23.715  0.00  0.00    -0.288 N 
ATOM     22  H   UNL     1       7.875  -5.771  24.076  0.00  0.00    +0.301 HD
ATOM     23  H   UNL     1       7.676  -4.627  22.796  0.00  0.00    +0.301 HD
ATOM     24  N   UNL     1       9.139  -4.196  25.609  0.00  0.00    -0.250 N 
ATOM     25  H   UNL     1       8.990  -5.088  26.057  0.00  0.00    +0.288 HD
ATOM     26  H   UNL     1       9.666  -3.498  26.124  0.00  0.00    +0.288 HD
ENDBRANCH   7  20
TORSDOF 2
ENDMDL
MODEL 4
REMARK VINA RESULT:      -6.9      4.011      7.920
REMARK  Name = 
REMARK  3 active torsions:
REMARK  status: ('A' for Active; 'I' for Inactive)
REMARK    1  A    between atoms: C_1  and  C_2
REMARK    2  A    between atoms: C_8  and  C_10
REMARK    3  A    between atoms: C_14  and  C_19
REMARK                            x       y       z     vdW  Elec       q    Type
REMARK                         _______ _______ _______ _____ _____    ______ ____
ROOT
ATOM      1  C   UNL     1       7.811  -1.670  24.041  0.00  0.00    +0.139 A 
ATOM      2  N   UNL     1       8.322  -1.469  22.778  0.00  0.00    -0.338 N 
ATOM      3  H   UNL     1       8.240  -2.197  22.070  0.00  0.00    +0.167 HD
ATOM      4  C   UNL     1       8.885  -0.231  22.707  0.00  0.00    +0.067 A 
ATOM      5  C   UNL     1       8.697   0.288  23.978  0.00  0.00    +0.090 A 
ATOM      6  C   UNL     1       9.176   1.576  24.260  0.00  0.00    +0.045 A 
ATOM      7  C   UNL     1       9.819   2.320  23.247  0.00  0.00    +0.063 A 
ATOM      8  C   UNL     1       9.973   1.744  21.969  0.00  0.00    +0.018 A 
ATOM      9  C   UNL     1       9.520   0.453  21.675  0.00  0.00    +0.028 A 
ATOM     10  N   UNL     1       8.035  -0.597  24.793  0.00  0.00    -0.228 NA
ENDROOT
BRANCH   1  14
ATOM     11  C   UNL     1       7.431  -5.474  27.242  0.00  0.00    +0.044 C 
ATOM     12  C   UNL     1       6.979  -4.801  25.984  0.00  0.00    -0.049 A 
ATOM     13  C   UNL     1       7.549  -3.597  25.573  0.00  0.00    +0.014 A 
ATOM     14  C   UNL     1       7.135  -2.946  24.387  0.00  0.00    +0.011 A 
ATOM     15  C   UNL     1       6.098  -3.491  23.542  0.00  0.00    -0.083 A 
ATOM     16  O   UNL     1       5.697  -2.919  22.459  0.00  0.00    -0.872 OA
ATOM     17  C   UNL     1       5.556  -4.720  24.013  0.00  0.00    +0.011 A 
ATOM     18 BR   UNL     1       4.164  -5.635  23.051  0.00  0.00    -0.051 Br
ATOM     19  C   UNL     1       5.978  -5.358  25.194  0.00  0.00    +0.018 A 
ENDBRANCH   1  14
BRANCH   7  20
ATOM     20  C   UNL     1      10.317   3.679  23.523  0.00  0.00    +0.266 C 
ATOM     21  N   UNL     1       9.563   4.537  24.182  0.00  0.00    -0.288 N 
ATOM     22  H   UNL     1       9.867   5.473  24.400  0.00  0.00    +0.301 HD
ATOM     23  H   UNL     1       8.628   4.271  24.472  0.00  0.00    +0.301 HD
ATOM     24  N   UNL     1      11.513   4.041  23.109  0.00  0.00    -0.250 N 
ATOM     25  H   UNL     1      11.887   4.967  23.262  0.00  0.00    +0.288 HD
ATOM     26  H   UNL     1      12.107   3.373  22.628  0.00  0.00    +0.288 HD
ENDBRANCH   7  20
TORSDOF 2
ENDMDL
MODEL 5
REMARK VINA RESULT:      -6.8      4.063      7.920
REMARK  Name = 
REMARK  3 active torsions:
REMARK  status: ('A' for Active; 'I' for Inactive)
REMARK    1  A    between atoms: C_1  and  C_2
REMARK    2  A    between atoms: C_8  and  C_10
REMARK    3  A    between atoms: C_14  and  C_19
REMARK                            x       y       z     vdW  Elec       q    Type
REMARK                         _______ _______ _______ _____ _____    ______ ____
ROOT
ATOM      1  C   UNL     1       7.659  -0.750  23.569  0.00  0.00    +0.139 A 
ATOM      2  N   UNL     1       8.707  -0.016  24.079  0.00  0.00    -0.338 N 
ATOM      3  H   UNL     1       9.444  -0.477  24.613  0.00  0.00    +0.167 HD
ATOM      4  C   UNL     1       8.551   1.294  23.743  0.00  0.00    +0.067 A 
ATOM      5  C   UNL     1       7.366   1.309  23.025  0.00  0.00    +0.090 A 
ATOM      6  C   UNL     1       6.894   2.532  22.524  0.00  0.00    +0.045 A 
ATOM      7  C   UNL     1       7.639   3.711  22.745  0.00  0.00    +0.063 A 
ATOM      8  C   UNL     1       8.843   3.633  23.475  0.00  0.00    +0.018 A 
ATOM      9  C   UNL     1       9.319   2.426  23.999  0.00  0.00    +0.028 A 
ATOM     10  N   UNL     1       6.824   0.052  22.918  0.00  0.00    -0.228 NA
ENDROOT
BRANCH   1  14
ATOM     11  C   UNL     1       6.984  -5.258  21.549  0.00  0.00    +0.044 C 
ATOM     12  C   UNL     1       7.250  -4.417  22.758  0.00  0.00    -0.049 A 
ATOM     13  C   UNL     1       7.337  -3.029  22.657  0.00  0.00    +0.014 A 
ATOM     14  C   UNL     1       7.588  -2.217  23.789  0.00  0.00    +0.011 A 
ATOM     15  C   UNL     1       7.771  -2.782  25.105  0.00  0.00    -0.083 A 
ATOM     16  O   UNL     1       8.004  -2.068  26.153  0.00  0.00    -0.872 OA
ATOM     17  C   UNL     1       7.669  -4.201  25.144  0.00  0.00    +0.011 A 
ATOM     18 BR   UNL     1       7.874  -5.175  26.790  0.00  0.00    -0.051 Br
ATOM     19  C   UNL     1       7.418  -4.997  24.011  0.00  0.00    +0.018 A 
ENDBRANCH   1  14
BRANCH   7  20
ATOM     20  C   UNL     1       7.164   5.002  22.215  0.00  0.00    +0.266 C 
ATOM     21  N   UNL     1       5.872   5.234  22.104  0.00  0.00    -0.288 N 
ATOM     22  H   UNL     1       5.504   6.105  21.754  0.00  0.00    +0.301 HD
ATOM     23  H   UNL     1       5.203   4.512  22.353  0.00  0.00    +0.301 HD
ATOM     24  N   UNL     1       8.030   5.924  21.850  0.00  0.00    -0.250 N 
ATOM     25  H   UNL     1       7.750   6.815  21.466  0.00  0.00    +0.288 HD
ATOM     26  H   UNL     1       9.025   5.758  21.963  0.00  0.00    +0.288 HD
ENDBRANCH   7  20
TORSDOF 2
ENDMDL
MODEL 6
REMARK VINA RESULT:      -6.8      3.675      7.629
REMARK  Name = 
REMARK  3 active torsions:
REMARK  status: ('A' for Active; 'I' for Inactive)
REMARK    1  A    between atoms: C_1  and  C_2
REMARK    2  A    between atoms: C_8  and  C_10
REMARK    3  A    between atoms: C_14  and  C_19
REMARK                            x       y       z     vdW  Elec       q    Type
REMARK                         _______ _______ _______ _____ _____    ______ ____
ROOT
ATOM      1  C   UNL     1       8.883  -0.952  23.645  0.00  0.00    +0.139 A 
ATOM      2  N   UNL     1       7.861  -0.063  23.395  0.00  0.00    -0.338 N 
ATOM      3  H   UNL     1       6.910  -0.401  23.253  0.00  0.00    +0.167 HD
ATOM      4  C   UNL     1       8.355   1.206  23.388  0.00  0.00    +0.067 A 
ATOM      5  C   UNL     1       9.708   1.033  23.632  0.00  0.00    +0.090 A 
ATOM      6  C   UNL     1      10.536   2.164  23.685  0.00  0.00    +0.045 A 
ATOM      7  C   UNL     1       9.977   3.448  23.506  0.00  0.00    +0.063 A 
ATOM      8  C   UNL     1       8.591   3.564  23.270  0.00  0.00    +0.018 A 
ATOM      9  C   UNL     1       7.753   2.446  23.195  0.00  0.00    +0.028 A 
ATOM     10  N   UNL     1      10.027  -0.293  23.792  0.00  0.00    -0.228 NA
ENDROOT
BRANCH   1  14
ATOM     11  C   UNL     1       9.821  -5.286  25.924  0.00  0.00    +0.044 C 
ATOM     12  C   UNL     1       9.101  -4.524  24.856  0.00  0.00    -0.049 A 
ATOM     13  C   UNL     1       9.285  -3.149  24.713  0.00  0.00    +0.014 A 
ATOM     14  C   UNL     1       8.612  -2.411  23.710  0.00  0.00    +0.011 A 
ATOM     15  C   UNL     1       7.699  -3.041  22.785  0.00  0.00    -0.083 A 
ATOM     16  O   UNL     1       7.070  -2.395  21.864  0.00  0.00    -0.872 OA
ATOM     17  C   UNL     1       7.555  -4.444  22.981  0.00  0.00    +0.011 A 
ATOM     18 BR   UNL     1       6.393  -5.496  21.866  0.00  0.00    -0.051 Br
ATOM     19  C   UNL     1       8.231  -5.166  23.982  0.00  0.00    +0.018 A 
ENDBRANCH   1  14
BRANCH   7  20
ATOM     20  C   UNL     1      10.830   4.648  23.571  0.00  0.00    +0.266 C 
ATOM     21  N   UNL     1      12.030   4.634  23.025  0.00  0.00    -0.288 N 
ATOM     22  H   UNL     1      12.644   5.434  23.039  0.00  0.00    +0.301 HD
ATOM     23  H   UNL     1      12.379   3.787  22.589  0.00  0.00    +0.301 HD
ATOM     24  N   UNL     1      10.397   5.734  24.176  0.00  0.00    -0.250 N 
ATOM     25  H   UNL     1      10.955   6.572  24.258  0.00  0.00    +0.288 HD
ATOM     26  H   UNL     1       9.462   5.757  24.569  0.00  0.00    +0.288 HD
ENDBRANCH   7  20
TORSDOF 2
ENDMDL
MODEL 7
REMARK VINA RESULT:      -6.7      1.245      1.795
REMARK  Name = 
REMARK  3 active torsions:
REMARK  status: ('A' for Active; 'I' for Inactive)
REMARK    1  A    between atoms: C_1  and  C_2
REMARK    2  A    between atoms: C_8  and  C_10
REMARK    3  A    between atoms: C_14  and  C_19
REMARK                            x       y       z     vdW  Elec       q    Type
REMARK                         _______ _______ _______ _____ _____    ______ ____
ROOT
ATOM      1  C   UNL     1       9.004   0.619  24.132  0.00  0.00    +0.139 A 
ATOM      2  N   UNL     1       8.290  -0.135  23.227  0.00  0.00    -0.338 N 
ATOM      3  H   UNL     1       7.847   0.310  22.424  0.00  0.00    +0.167 HD
ATOM      4  C   UNL     1       8.317  -1.443  23.604  0.00  0.00    +0.067 A 
ATOM      5  C   UNL     1       9.064  -1.432  24.772  0.00  0.00    +0.090 A 
ATOM      6  C   UNL     1       9.284  -2.643  25.444  0.00  0.00    +0.045 A 
ATOM      7  C   UNL     1       8.761  -3.843  24.914  0.00  0.00    +0.063 A 
ATOM      8  C   UNL     1       8.017  -3.794  23.717  0.00  0.00    +0.018 A 
ATOM      9  C   UNL     1       7.770  -2.593  23.043  0.00  0.00    +0.028 A 
ATOM     10  N   UNL     1       9.485  -0.165  25.090  0.00  0.00    -0.228 NA
ENDROOT
BRANCH   1  14
ATOM     11  C   UNL     1      12.051   4.476  23.294  0.00  0.00    +0.044 C 
ATOM     12  C   UNL     1      10.668   3.958  23.538  0.00  0.00    -0.049 A 
ATOM     13  C   UNL     1      10.437   2.595  23.719  0.00  0.00    +0.014 A 
ATOM     14  C   UNL     1       9.137   2.087  23.950  0.00  0.00    +0.011 A 
ATOM     15  C   UNL     1       7.981   2.952  24.008  0.00  0.00    -0.083 A 
ATOM     16  O   UNL     1       6.785   2.518  24.214  0.00  0.00    -0.872 OA
ATOM     17  C   UNL     1       8.281   4.330  23.818  0.00  0.00    +0.011 A 
ATOM     18 BR   UNL     1       6.901   5.670  23.856  0.00  0.00    -0.051 Br
ATOM     19  C   UNL     1       9.579   4.823  23.590  0.00  0.00    +0.018 A 
ENDBRANCH   1  14
BRANCH   7  20
ATOM     20  C   UNL     1       8.995  -5.125  25.601  0.00  0.00    +0.266 C 
ATOM     21  N   UNL     1       8.025  -5.690  26.292  0.00  0.00    -0.288 N 
ATOM     22  H   UNL     1       8.139  -6.570  26.770  0.00  0.00    +0.301 HD
ATOM     23  H   UNL     1       7.127  -5.226  26.377  0.00  0.00    +0.301 HD
ATOM     24  N   UNL     1      10.173  -5.708  25.528  0.00  0.00    -0.250 N 
ATOM     25  H   UNL     1      10.382  -6.578  25.996  0.00  0.00    +0.288 HD
ATOM     26  H   UNL     1      10.912  -5.290  24.972  0.00  0.00    +0.288 HD
ENDBRANCH   7  20
TORSDOF 2
ENDMDL
MODEL 8
REMARK VINA RESULT:      -6.7      4.775      8.542
REMARK  Name = 
REMARK  3 active torsions:
REMARK  status: ('A' for Active; 'I' for Inactive)
REMARK    1  A    between atoms: C_1  and  C_2
REMARK    2  A    between atoms: C_8  and  C_10
REMARK    3  A    between atoms: C_14  and  C_19
REMARK                            x       y       z     vdW  Elec       q    Type
REMARK                         _______ _______ _______ _____ _____    ______ ____
ROOT
ATOM      1  C   UNL     1       6.721  -3.049  23.986  0.00  0.00    +0.139 A 
ATOM      2  N   UNL     1       7.525  -3.211  22.879  0.00  0.00    -0.338 N 
ATOM      3  H   UNL     1       7.512  -4.089  22.359  0.00  0.00    +0.167 HD
ATOM      4  C   UNL     1       8.242  -2.073  22.668  0.00  0.00    +0.067 A 
ATOM      5  C   UNL     1       7.840  -1.237  23.697  0.00  0.00    +0.090 A 
ATOM      6  C   UNL     1       8.403   0.045  23.786  0.00  0.00    +0.045 A 
ATOM      7  C   UNL     1       9.347   0.462  22.822  0.00  0.00    +0.063 A 
ATOM      8  C   UNL     1       9.711  -0.429  21.791  0.00  0.00    +0.018 A 
ATOM      9  C   UNL     1       9.175  -1.719  21.699  0.00  0.00    +0.028 A 
ATOM     10  N   UNL     1       6.904  -1.839  24.501  0.00  0.00    -0.228 NA
ENDROOT
BRANCH   1  14
ATOM     11  C   UNL     1       5.523  -6.253  27.614  0.00  0.00    +0.044 C 
ATOM     12  C   UNL     1       5.270  -5.709  26.243  0.00  0.00    -0.049 A 
ATOM     13  C   UNL     1       6.052  -4.675  25.729  0.00  0.00    +0.014 A 
ATOM     14  C   UNL     1       5.827  -4.147  24.435  0.00  0.00    +0.011 A 
ATOM     15  C   UNL     1       4.774  -4.647  23.582  0.00  0.00    -0.083 A 
ATOM     16  O   UNL     1       4.544  -4.184  22.401  0.00  0.00    -0.872 OA
ATOM     17  C   UNL     1       4.013  -5.701  24.161  0.00  0.00    +0.011 A 
ATOM     18 BR   UNL     1       2.559  -6.526  23.209  0.00  0.00    -0.051 Br
ATOM     19  C   UNL     1       4.247  -6.218  25.449  0.00  0.00    +0.018 A 
ENDBRANCH   1  14
BRANCH   7  20
ATOM     20  C   UNL     1       9.939   1.810  22.893  0.00  0.00    +0.266 C 
ATOM     21  N   UNL     1      10.303   2.429  21.788  0.00  0.00    -0.288 N 
ATOM     22  H   UNL     1      10.704   3.354  21.790  0.00  0.00    +0.301 HD
ATOM     23  H   UNL     1      10.206   1.965  20.891  0.00  0.00    +0.301 HD
ATOM     24  N   UNL     1      10.106   2.396  24.059  0.00  0.00    -0.250 N 
ATOM     25  H   UNL     1      10.522   3.311  24.156  0.00  0.00    +0.288 HD
ATOM     26  H   UNL     1       9.798   1.933  24.908  0.00  0.00    +0.288 HD
ENDBRANCH   7  20
TORSDOF 2
ENDMDL
MODEL 9
REMARK VINA RESULT:      -6.6      4.111      7.889
REMARK  Name = 
REMARK  3 active torsions:
REMARK  status: ('A' for Active; 'I' for Inactive)
REMARK    1  A    between atoms: C_1  and  C_2
REMARK    2  A    between atoms: C_8  and  C_10
REMARK    3  A    between atoms: C_14  and  C_19
REMARK                            x       y       z     vdW  Elec       q    Type
REMARK                         _______ _______ _______ _____ _____    ______ ____
ROOT
ATOM      1  C   UNL     1       7.979  -1.022  23.302  0.00  0.00    +0.139 A 
ATOM      2  N   UNL     1       9.045  -0.274  23.749  0.00  0.00    -0.338 N 
ATOM      3  H   UNL     1       9.846  -0.731  24.184  0.00  0.00    +0.167 HD
ATOM      4  C   UNL     1       8.811   1.045  23.501  0.00  0.00    +0.067 A 
ATOM      5  C   UNL     1       7.562   1.048  22.901  0.00  0.00    +0.090 A 
ATOM      6  C   UNL     1       7.001   2.275  22.515  0.00  0.00    +0.045 A 
ATOM      7  C   UNL     1       7.722   3.470  22.726  0.00  0.00    +0.063 A 
ATOM      8  C   UNL     1       8.993   3.404  23.333  0.00  0.00    +0.018 A 
ATOM      9  C   UNL     1       9.560   2.192  23.743  0.00  0.00    +0.028 A 
ATOM     10  N   UNL     1       7.057  -0.223  22.778  0.00  0.00    -0.228 NA
ENDROOT
BRANCH   1  14
ATOM     11  C   UNL     1       9.794  -4.987  25.721  0.00  0.00    +0.044 C 
ATOM     12  C   UNL     1       8.899  -4.426  24.660  0.00  0.00    -0.049 A 
ATOM     13  C   UNL     1       8.822  -3.050  24.445  0.00  0.00    +0.014 A 
ATOM     14  C   UNL     1       7.982  -2.500  23.448  0.00  0.00    +0.011 A 
ATOM     15  C   UNL     1       7.156  -3.333  22.605  0.00  0.00    -0.083 A 
ATOM     16  O   UNL     1       6.378  -2.861  21.692  0.00  0.00    -0.872 OA
ATOM     17  C   UNL     1       7.279  -4.726  22.871  0.00  0.00    +0.011 A 
ATOM     18 BR   UNL     1       6.277  -6.029  21.872  0.00  0.00    -0.051 Br
ATOM     19  C   UNL     1       8.120  -5.260  23.866  0.00  0.00    +0.018 A 
ENDBRANCH   1  14
BRANCH   7  20
ATOM     20  C   UNL     1       7.152   4.766  22.315  0.00  0.00    +0.266 C 
ATOM     21  N   UNL     1       5.845   4.922  22.254  0.00  0.00    -0.288 N 
ATOM     22  H   UNL     1       5.414   5.793  21.986  0.00  0.00    +0.301 HD
ATOM     23  H   UNL     1       5.231   4.142  22.460  0.00  0.00    +0.301 HD
ATOM     24  N   UNL     1       7.948   5.767  22.005  0.00  0.00    -0.250 N 
ATOM     25  H   UNL     1       7.602   6.667  21.702  0.00  0.00    +0.288 HD
ATOM     26  H   UNL     1       8.954   5.658  22.080  0.00  0.00    +0.288 HD
ENDBRANCH   7  20
TORSDOF 2
ENDMDL
