MODEL 1
REMARK VINA RESULT:      -7.5      0.000      0.000
REMARK  Name = 
REMARK  9 active torsions:
REMARK  status: ('A' for Active; 'I' for Inactive)
REMARK    1  A    between atoms: O_1  and  C_2
REMARK    2  A    between atoms: C_2  and  C_4
REMARK    3  A    between atoms: C_4  and  O_5
REMARK    4  A    between atoms: O_5  and  C_6
REMARK    5  A    between atoms: C_9  and  C_12
REMARK    6  A    between atoms: C_15  and  C_16
REMARK    7  A    between atoms: C_16  and  N_17
REMARK    8  A    between atoms: C_24  and  S_25
REMARK    9  A    between atoms: S_25  and  C_26
REMARK                            x       y       z     vdW  Elec       q    Type
REMARK                         _______ _______ _______ _____ _____    ______ ____
ROOT
ATOM      1  C   UNL     1       9.801  -3.288  24.373  0.00  0.00    +0.180 C 
ENDROOT
BRANCH   1   2
ATOM      2  N   UNL     1       9.319  -2.142  23.634  0.00  0.00    -0.292 N 
ATOM      3  H   UNL     1       9.091  -2.270  22.662  0.00  0.00    +0.151 HD
ATOM      4  C   UNL     1       9.022  -0.963  24.280  0.00  0.00    +0.306 C 
ATOM      5  N   UNL     1       8.662   0.023  23.395  0.00  0.00    -0.248 N 
ATOM      6  H   UNL     1       8.953  -0.052  22.439  0.00  0.00    +0.158 HD
ATOM      7  C   UNL     1       8.318   1.276  23.835  0.00  0.00    +0.167 A 
ATOM      8  S   UNL     1       8.439   2.487  22.644  0.00  0.00    -0.045 S 
ATOM      9  C   UNL     1       8.099   3.685  23.843  0.00  0.00    +0.072 A 
ATOM     10  C   UNL     1       7.811   3.044  25.032  0.00  0.00    +0.135 A 
ATOM     11  N   UNL     1       7.932   1.662  25.021  0.00  0.00    -0.232 NA
ATOM     12  O   UNL     1       9.139  -0.864  25.493  0.00  0.00    -0.252 OA
BRANCH   9  13
ATOM     13  S   UNL     1       8.290   5.380  23.452  0.00  0.00    -0.061 S 
BRANCH  13  14
ATOM     14  C   UNL     1       9.906   5.861  24.034  0.00  0.00    +0.102 A 
ATOM     15  C   UNL     1       9.944   6.709  25.141  0.00  0.00    +0.035 A 
ATOM     16  C   UNL     1      11.174   7.108  25.659  0.00  0.00    +0.004 A 
ATOM     17  C   UNL     1      12.336   6.656  25.052  0.00  0.00    +0.020 A 
ATOM     18  C   UNL     1      12.215   5.828  23.951  0.00  0.00    +0.112 A 
ATOM     19  N   UNL     1      11.030   5.418  23.432  0.00  0.00    -0.248 NA
ENDBRANCH  13  14
ENDBRANCH   9  13
ENDBRANCH   1   2
BRANCH   1  22
ATOM     20  C   UNL     1       6.744  -5.077  25.106  0.00  0.00    +0.089 A 
ATOM     21  N   UNL     1       7.531  -4.375  24.217  0.00  0.00    -0.231 NA
ATOM     22  C   UNL     1       8.639  -4.079  24.869  0.00  0.00    +0.125 A 
ATOM     23  N   UNL     1       8.608  -4.596  26.140  0.00  0.00    -0.346 N 
ATOM     24  H   UNL     1       9.364  -4.527  26.814  0.00  0.00    +0.167 HD
ATOM     25  C   UNL     1       7.399  -5.214  26.311  0.00  0.00    +0.112 A 
BRANCH  20  29
ATOM     26  C   UNL     1       2.886  -6.596  24.064  0.00  0.00    +0.121 A 
ATOM     27  C   UNL     1       3.638  -7.205  25.067  0.00  0.00    +0.046 A 
ATOM     28  C   UNL     1       4.890  -6.686  25.420  0.00  0.00    +0.013 A 
ATOM     29  C   UNL     1       5.402  -5.545  24.786  0.00  0.00    +0.002 A 
ATOM     30  C   UNL     1       4.603  -4.902  23.831  0.00  0.00    +0.013 A 
ATOM     31  C   UNL     1       3.350  -5.416  23.481  0.00  0.00    +0.046 A 
BRANCH  26  32
ATOM     32  O   UNL     1       1.722  -7.229  23.711  0.00  0.00    -0.481 OA
BRANCH  32  33
ATOM     33  C   UNL     1       1.417  -7.143  22.312  0.00  0.00    +0.349 C 
BRANCH  33  34
ATOM     34  C   UNL     1       1.102  -8.523  21.763  0.00  0.00    +0.343 C 
ATOM     35  O   UNL     1       0.475  -9.374  22.380  0.00  0.00    -0.247 OA
BRANCH  34  36
ATOM     36  O   UNL     1       1.583  -8.730  20.513  0.00  0.00    -0.478 OA
ATOM     37  H   UNL     1       1.366  -7.957  19.947  0.00  0.00    +0.295 HD
ENDBRANCH  34  36
ENDBRANCH  33  34
ENDBRANCH  32  33
ENDBRANCH  26  32
ENDBRANCH  20  29
ENDBRANCH   1  22
TORSDOF 9
ENDMDL
MODEL 2
REMARK VINA RESULT:      -7.3      4.243     12.369
REMARK  Name = 
REMARK  9 active torsions:
REMARK  status: ('A' for Active; 'I' for Inactive)
REMARK    1  A    between atoms: O_1  and  C_2
REMARK    2  A    between atoms: C_2  and  C_4
REMARK    3  A    between atoms: C_4  and  O_5
REMARK    4  A    between atoms: O_5  and  C_6
REMARK    5  A    between atoms: C_9  and  C_12
REMARK    6  A    between atoms: C_15  and  C_16
REMARK    7  A    between atoms: C_16  and  N_17
REMARK    8  A    between atoms: C_24  and  S_25
REMARK    9  A    between atoms: S_25  and  C_26
REMARK                            x       y       z     vdW  Elec       q    Type
REMARK                         _______ _______ _______ _____ _____    ______ ____
ROOT
ATOM      1  C   UNL     1       9.688  -3.143  24.486  0.00  0.00    +0.180 C 
ENDROOT
BRANCH   1   2
ATOM      2  N   UNL     1       8.592  -3.992  24.074  0.00  0.00    -0.292 N 
ATOM      3  H   UNL     1       8.535  -4.251  23.103  0.00  0.00    +0.151 HD
ATOM      4  C   UNL     1       7.756  -4.565  25.007  0.00  0.00    +0.306 C 
ATOM      5  N   UNL     1       6.735  -5.262  24.412  0.00  0.00    -0.248 N 
ATOM      6  H   UNL     1       6.478  -5.039  23.469  0.00  0.00    +0.158 HD
ATOM      7  C   UNL     1       5.793  -5.917  25.165  0.00  0.00    +0.167 A 
ATOM      8  S   UNL     1       4.344  -6.246  24.334  0.00  0.00    -0.045 S 
ATOM      9  C   UNL     1       3.642  -6.820  25.805  0.00  0.00    +0.072 A 
ATOM     10  C   UNL     1       4.616  -6.816  26.784  0.00  0.00    +0.135 A 
ATOM     11  N   UNL     1       5.850  -6.303  26.411  0.00  0.00    -0.232 NA
ATOM     12  O   UNL     1       7.933  -4.385  26.203  0.00  0.00    -0.252 OA
BRANCH   9  13
ATOM     13  S   UNL     1       1.927  -7.158  25.872  0.00  0.00    -0.061 S 
BRANCH  13  14
ATOM     14  C   UNL     1       1.354  -7.238  24.184  0.00  0.00    +0.102 A 
ATOM     15  C   UNL     1       1.391  -8.491  23.571  0.00  0.00    +0.035 A 
ATOM     16  C   UNL     1       0.940  -8.628  22.260  0.00  0.00    +0.004 A 
ATOM     17  C   UNL     1       0.472  -7.507  21.591  0.00  0.00    +0.020 A 
ATOM     18  C   UNL     1       0.478  -6.298  22.264  0.00  0.00    +0.112 A 
ATOM     19  N   UNL     1       0.904  -6.140  23.542  0.00  0.00    -0.248 NA
ENDBRANCH  13  14
ENDBRANCH   9  13
ENDBRANCH   1   2
BRANCH   1  22
ATOM     20  C   UNL     1       9.002   0.408  24.487  0.00  0.00    +0.089 A 
ATOM     21  N   UNL     1       9.797  -0.653  24.106  0.00  0.00    -0.231 NA
ATOM     22  C   UNL     1       9.211  -1.735  24.583  0.00  0.00    +0.125 A 
ATOM     23  N   UNL     1       8.046  -1.411  25.231  0.00  0.00    -0.346 N 
ATOM     24  H   UNL     1       7.407  -2.081  25.647  0.00  0.00    +0.167 HD
ATOM     25  C   UNL     1       7.912  -0.049  25.197  0.00  0.00    +0.112 A 
BRANCH  20  29
ATOM     26  C   UNL     1      10.108   4.477  23.783  0.00  0.00    +0.121 A 
ATOM     27  C   UNL     1      10.913   3.436  23.323  0.00  0.00    +0.046 A 
ATOM     28  C   UNL     1      10.530   2.105  23.535  0.00  0.00    +0.013 A 
ATOM     29  C   UNL     1       9.334   1.797  24.198  0.00  0.00    +0.002 A 
ATOM     30  C   UNL     1       8.501   2.853  24.590  0.00  0.00    +0.013 A 
ATOM     31  C   UNL     1       8.879   4.182  24.374  0.00  0.00    +0.046 A 
BRANCH  26  32
ATOM     32  O   UNL     1      10.608   5.744  23.625  0.00  0.00    -0.481 OA
BRANCH  32  33
ATOM     33  C   UNL     1      10.591   6.528  24.826  0.00  0.00    +0.349 C 
BRANCH  33  34
ATOM     34  C   UNL     1      12.006   6.721  25.341  0.00  0.00    +0.343 C 
ATOM     35  O   UNL     1      12.272   7.108  26.471  0.00  0.00    -0.247 OA
BRANCH  34  36
ATOM     36  O   UNL     1      12.959   6.424  24.425  0.00  0.00    -0.478 OA
ATOM     37  H   UNL     1      13.273   7.252  23.999  0.00  0.00    +0.295 HD
ENDBRANCH  34  36
ENDBRANCH  33  34
ENDBRANCH  32  33
ENDBRANCH  26  32
ENDBRANCH  20  29
ENDBRANCH   1  22
TORSDOF 9
ENDMDL
MODEL 3
REMARK VINA RESULT:      -7.1      4.785     12.048
REMARK  Name = 
REMARK  9 active torsions:
REMARK  status: ('A' for Active; 'I' for Inactive)
REMARK    1  A    between atoms: O_1  and  C_2
REMARK    2  A    between atoms: C_2  and  C_4
REMARK    3  A    between atoms: C_4  and  O_5
REMARK    4  A    between atoms: O_5  and  C_6
REMARK    5  A    between atoms: C_9  and  C_12
REMARK    6  A    between atoms: C_15  and  C_16
REMARK    7  A    between atoms: C_16  and  N_17
REMARK    8  A    between atoms: C_24  and  S_25
REMARK    9  A    between atoms: S_25  and  C_26
REMARK                            x       y       z     vdW  Elec       q    Type
REMARK                         _______ _______ _______ _____ _____    ______ ____
ROOT
ATOM      1  C   UNL     1       8.881  -4.599  26.432  0.00  0.00    +0.180 C 
ENDROOT
BRANCH   1   2
ATOM      2  N   UNL     1       7.852  -5.579  26.157  0.00  0.00    -0.292 N 
ATOM      3  H   UNL     1       8.112  -6.404  25.642  0.00  0.00    +0.151 HD
ATOM      4  C   UNL     1       6.604  -5.467  26.728  0.00  0.00    +0.306 C 
ATOM      5  N   UNL     1       5.752  -6.444  26.278  0.00  0.00    -0.248 N 
ATOM      6  H   UNL     1       5.948  -6.896  25.404  0.00  0.00    +0.158 HD
ATOM      7  C   UNL     1       4.459  -6.517  26.730  0.00  0.00    +0.167 A 
ATOM      8  S   UNL     1       3.414  -7.390  25.708  0.00  0.00    -0.045 S 
ATOM      9  C   UNL     1       2.074  -6.926  26.697  0.00  0.00    +0.072 A 
ATOM     10  C   UNL     1       2.559  -6.234  27.791  0.00  0.00    +0.135 A 
ATOM     11  N   UNL     1       3.927  -6.008  27.808  0.00  0.00    -0.232 NA
ATOM     12  O   UNL     1       6.343  -4.551  27.494  0.00  0.00    -0.252 OA
BRANCH   9  13
ATOM     13  S   UNL     1       0.443  -7.245  26.152  0.00  0.00    -0.061 S 
BRANCH  13  14
ATOM     14  C   UNL     1       0.507  -7.338  24.371  0.00  0.00    +0.102 A 
ATOM     15  C   UNL     1       0.518  -8.616  23.813  0.00  0.00    +0.035 A 
ATOM     16  C   UNL     1       0.547  -8.761  22.428  0.00  0.00    +0.004 A 
ATOM     17  C   UNL     1       0.575  -7.624  21.635  0.00  0.00    +0.020 A 
ATOM     18  C   UNL     1       0.575  -6.392  22.264  0.00  0.00    +0.112 A 
ATOM     19  N   UNL     1       0.538  -6.224  23.610  0.00  0.00    -0.248 NA
ENDBRANCH  13  14
ENDBRANCH   9  13
ENDBRANCH   1   2
BRANCH   1  22
ATOM     20  C   UNL     1       9.217  -1.882  24.068  0.00  0.00    +0.089 A 
ATOM     21  N   UNL     1       9.412  -2.392  25.335  0.00  0.00    -0.231 NA
ATOM     22  C   UNL     1       8.947  -3.626  25.305  0.00  0.00    +0.125 A 
ATOM     23  N   UNL     1       8.488  -3.942  24.051  0.00  0.00    -0.346 N 
ATOM     24  H   UNL     1       8.119  -4.848  23.779  0.00  0.00    +0.167 HD
ATOM     25  C   UNL     1       8.634  -2.835  23.261  0.00  0.00    +0.112 A 
BRANCH  20  29
ATOM     26  C   UNL     1      10.094   2.197  23.138  0.00  0.00    +0.121 A 
ATOM     27  C   UNL     1      10.762   1.550  24.176  0.00  0.00    +0.046 A 
ATOM     28  C   UNL     1      10.487   0.206  24.458  0.00  0.00    +0.013 A 
ATOM     29  C   UNL     1       9.552  -0.513  23.699  0.00  0.00    +0.002 A 
ATOM     30  C   UNL     1       8.944   0.130  22.614  0.00  0.00    +0.013 A 
ATOM     31  C   UNL     1       9.221   1.471  22.327  0.00  0.00    +0.046 A 
BRANCH  26  32
ATOM     32  O   UNL     1      10.347   3.537  22.998  0.00  0.00    -0.481 OA
BRANCH  32  33
ATOM     33  C   UNL     1      11.674   3.922  23.385  0.00  0.00    +0.349 C 
BRANCH  33  34
ATOM     34  C   UNL     1      11.719   5.411  23.678  0.00  0.00    +0.343 C 
ATOM     35  O   UNL     1      10.748   6.150  23.593  0.00  0.00    -0.247 OA
BRANCH  34  36
ATOM     36  O   UNL     1      12.946   5.852  24.044  0.00  0.00    -0.478 OA
ATOM     37  H   UNL     1      13.307   6.436  23.340  0.00  0.00    +0.295 HD
ENDBRANCH  34  36
ENDBRANCH  33  34
ENDBRANCH  32  33
ENDBRANCH  26  32
ENDBRANCH  20  29
ENDBRANCH   1  22
TORSDOF 9
ENDMDL
MODEL 4
REMARK VINA RESULT:      -7.1      3.800      6.040
REMARK  Name = 
REMARK  9 active torsions:
REMARK  status: ('A' for Active; 'I' for Inactive)
REMARK    1  A    between atoms: O_1  and  C_2
REMARK    2  A    between atoms: C_2  and  C_4
REMARK    3  A    between atoms: C_4  and  O_5
REMARK    4  A    between atoms: O_5  and  C_6
REMARK    5  A    between atoms: C_9  and  C_12
REMARK    6  A    between atoms: C_15  and  C_16
REMARK    7  A    between atoms: C_16  and  N_17
REMARK    8  A    between atoms: C_24  and  S_25
REMARK    9  A    between atoms: S_25  and  C_26
REMARK                            x       y       z     vdW  Elec       q    Type
REMARK                         _______ _______ _______ _____ _____    ______ ____
ROOT
ATOM      1  C   UNL     1      10.851   0.706  24.367  0.00  0.00    +0.180 C 
ENDROOT
BRANCH   1   2
ATOM      2  N   UNL     1       9.900   1.677  24.862  0.00  0.00    -0.292 N 
ATOM      3  H   UNL     1       9.784   1.757  25.859  0.00  0.00    +0.151 HD
ATOM      4  C   UNL     1       9.302   2.576  24.007  0.00  0.00    +0.306 C 
ATOM      5  N   UNL     1       8.375   3.351  24.657  0.00  0.00    -0.248 N 
ATOM      6  H   UNL     1       7.974   3.017  25.513  0.00  0.00    +0.158 HD
ATOM      7  C   UNL     1       7.669   4.319  23.987  0.00  0.00    +0.167 A 
ATOM      8  S   UNL     1       6.226   4.787  24.759  0.00  0.00    -0.045 S 
ATOM      9  C   UNL     1       5.820   5.760  23.389  0.00  0.00    +0.072 A 
ATOM     10  C   UNL     1       6.880   5.731  22.504  0.00  0.00    +0.135 A 
ATOM     11  N   UNL     1       7.941   4.909  22.854  0.00  0.00    -0.232 NA
ATOM     12  O   UNL     1       9.577   2.588  22.816  0.00  0.00    -0.252 OA
BRANCH   9  13
ATOM     13  S   UNL     1       4.221   6.460  23.268  0.00  0.00    -0.061 S 
BRANCH  13  14
ATOM     14  C   UNL     1       3.267   5.379  22.218  0.00  0.00    +0.102 A 
ATOM     15  C   UNL     1       2.462   5.991  21.257  0.00  0.00    +0.035 A 
ATOM     16  C   UNL     1       1.706   5.205  20.391  0.00  0.00    +0.004 A 
ATOM     17  C   UNL     1       1.766   3.825  20.513  0.00  0.00    +0.020 A 
ATOM     18  C   UNL     1       2.579   3.294  21.499  0.00  0.00    +0.112 A 
ATOM     19  N   UNL     1       3.332   4.037  22.348  0.00  0.00    -0.248 NA
ENDBRANCH  13  14
ENDBRANCH   9  13
ENDBRANCH   1   2
BRANCH   1  22
ATOM     20  C   UNL     1       9.034  -2.414  24.155  0.00  0.00    +0.089 A 
ATOM     21  N   UNL     1       9.459  -1.329  24.894  0.00  0.00    -0.231 NA
ATOM     22  C   UNL     1      10.141  -0.568  24.060  0.00  0.00    +0.125 A 
ATOM     23  N   UNL     1      10.143  -1.109  22.798  0.00  0.00    -0.346 N 
ATOM     24  H   UNL     1      10.574  -0.682  21.984  0.00  0.00    +0.167 HD
ATOM     25  C   UNL     1       9.461  -2.294  22.850  0.00  0.00    +0.112 A 
BRANCH  20  29
ATOM     26  C   UNL     1       6.679  -5.554  25.850  0.00  0.00    +0.121 A 
ATOM     27  C   UNL     1       6.529  -5.202  24.509  0.00  0.00    +0.046 A 
ATOM     28  C   UNL     1       7.323  -4.190  23.955  0.00  0.00    +0.013 A 
ATOM     29  C   UNL     1       8.284  -3.524  24.728  0.00  0.00    +0.002 A 
ATOM     30  C   UNL     1       8.473  -3.938  26.053  0.00  0.00    +0.013 A 
ATOM     31  C   UNL     1       7.685  -4.952  26.607  0.00  0.00    +0.046 A 
BRANCH  26  32
ATOM     32  O   UNL     1       5.792  -6.479  26.336  0.00  0.00    -0.481 OA
BRANCH  32  33
ATOM     33  C   UNL     1       5.066  -6.037  27.491  0.00  0.00    +0.349 C 
BRANCH  33  34
ATOM     34  C   UNL     1       5.227  -7.037  28.622  0.00  0.00    +0.343 C 
ATOM     35  O   UNL     1       6.311  -7.409  29.049  0.00  0.00    -0.247 OA
BRANCH  34  36
ATOM     36  O   UNL     1       4.050  -7.484  29.119  0.00  0.00    -0.478 OA
ATOM     37  H   UNL     1       4.203  -8.313  29.627  0.00  0.00    +0.295 HD
ENDBRANCH  34  36
ENDBRANCH  33  34
ENDBRANCH  32  33
ENDBRANCH  26  32
ENDBRANCH  20  29
ENDBRANCH   1  22
TORSDOF 9
ENDMDL
MODEL 5
REMARK VINA RESULT:      -7.1      3.663      5.285
REMARK  Name = 
REMARK  9 active torsions:
REMARK  status: ('A' for Active; 'I' for Inactive)
REMARK    1  A    between atoms: O_1  and  C_2
REMARK    2  A    between atoms: C_2  and  C_4
REMARK    3  A    between atoms: C_4  and  O_5
REMARK    4  A    between atoms: O_5  and  C_6
REMARK    5  A    between atoms: C_9  and  C_12
REMARK    6  A    between atoms: C_15  and  C_16
REMARK    7  A    between atoms: C_16  and  N_17
REMARK    8  A    between atoms: C_24  and  S_25
REMARK    9  A    between atoms: S_25  and  C_26
REMARK                            x       y       z     vdW  Elec       q    Type
REMARK                         _______ _______ _______ _____ _____    ______ ____
ROOT
ATOM      1  C   UNL     1       9.072  -0.179  20.975  0.00  0.00    +0.180 C 
ENDROOT
BRANCH   1   2
ATOM      2  N   UNL     1       9.459   1.110  21.504  0.00  0.00    -0.292 N 
ATOM      3  H   UNL     1      10.394   1.433  21.321  0.00  0.00    +0.151 HD
ATOM      4  C   UNL     1       8.527   1.939  22.089  0.00  0.00    +0.306 C 
ATOM      5  N   UNL     1       9.109   3.073  22.599  0.00  0.00    -0.248 N 
ATOM      6  H   UNL     1      10.087   3.063  22.815  0.00  0.00    +0.158 HD
ATOM      7  C   UNL     1       8.353   4.036  23.218  0.00  0.00    +0.167 A 
ATOM      8  S   UNL     1       9.242   5.062  24.246  0.00  0.00    -0.045 S 
ATOM      9  C   UNL     1       7.768   5.792  24.776  0.00  0.00    +0.072 A 
ATOM     10  C   UNL     1       6.728   5.264  24.036  0.00  0.00    +0.135 A 
ATOM     11  N   UNL     1       7.070   4.262  23.139  0.00  0.00    -0.232 NA
ATOM     12  O   UNL     1       7.351   1.613  22.156  0.00  0.00    -0.252 OA
BRANCH   9  13
ATOM     13  S   UNL     1       7.785   6.887  26.141  0.00  0.00    -0.061 S 
BRANCH  13  14
ATOM     14  C   UNL     1       7.332   5.925  27.574  0.00  0.00    +0.102 A 
ATOM     15  C   UNL     1       7.032   6.638  28.735  0.00  0.00    +0.035 A 
ATOM     16  C   UNL     1       6.652   5.950  29.885  0.00  0.00    +0.004 A 
ATOM     17  C   UNL     1       6.591   4.565  29.849  0.00  0.00    +0.020 A 
ATOM     18  C   UNL     1       6.916   3.931  28.663  0.00  0.00    +0.112 A 
ATOM     19  N   UNL     1       7.280   4.577  27.528  0.00  0.00    -0.248 NA
ENDBRANCH  13  14
ENDBRANCH   9  13
ENDBRANCH   1   2
BRANCH   1  22
ATOM     20  C   UNL     1       8.958  -2.776  23.490  0.00  0.00    +0.089 A 
ATOM     21  N   UNL     1       8.334  -2.048  22.499  0.00  0.00    -0.231 NA
ATOM     22  C   UNL     1       9.245  -1.217  22.031  0.00  0.00    +0.125 A 
ATOM     23  N   UNL     1      10.448  -1.408  22.664  0.00  0.00    -0.346 N 
ATOM     24  H   UNL     1      11.305  -0.909  22.445  0.00  0.00    +0.167 HD
ATOM     25  C   UNL     1      10.274  -2.382  23.609  0.00  0.00    +0.112 A 
BRANCH  20  29
ATOM     26  C   UNL     1       6.816  -5.569  25.916  0.00  0.00    +0.121 A 
ATOM     27  C   UNL     1       6.322  -5.193  24.668  0.00  0.00    +0.046 A 
ATOM     28  C   UNL     1       7.043  -4.297  23.868  0.00  0.00    +0.013 A 
ATOM     29  C   UNL     1       8.272  -3.775  24.298  0.00  0.00    +0.002 A 
ATOM     30  C   UNL     1       8.788  -4.218  25.523  0.00  0.00    +0.013 A 
ATOM     31  C   UNL     1       8.072  -5.117  26.320  0.00  0.00    +0.046 A 
BRANCH  26  32
ATOM     32  O   UNL     1       5.998  -6.365  26.676  0.00  0.00    -0.481 OA
BRANCH  32  33
ATOM     33  C   UNL     1       5.531  -5.739  27.879  0.00  0.00    +0.349 C 
BRANCH  33  34
ATOM     34  C   UNL     1       6.104  -6.450  29.092  0.00  0.00    +0.343 C 
ATOM     35  O   UNL     1       6.431  -7.629  29.097  0.00  0.00    -0.247 OA
BRANCH  34  36
ATOM     36  O   UNL     1       6.220  -5.653  30.181  0.00  0.00    -0.478 OA
ATOM     37  H   UNL     1       5.821  -4.775  29.987  0.00  0.00    +0.295 HD
ENDBRANCH  34  36
ENDBRANCH  33  34
ENDBRANCH  32  33
ENDBRANCH  26  32
ENDBRANCH  20  29
ENDBRANCH   1  22
TORSDOF 9
ENDMDL
MODEL 6
REMARK VINA RESULT:      -7.0      4.438     11.666
REMARK  Name = 
REMARK  9 active torsions:
REMARK  status: ('A' for Active; 'I' for Inactive)
REMARK    1  A    between atoms: O_1  and  C_2
REMARK    2  A    between atoms: C_2  and  C_4
REMARK    3  A    between atoms: C_4  and  O_5
REMARK    4  A    between atoms: O_5  and  C_6
REMARK    5  A    between atoms: C_9  and  C_12
REMARK    6  A    between atoms: C_15  and  C_16
REMARK    7  A    between atoms: C_16  and  N_17
REMARK    8  A    between atoms: C_24  and  S_25
REMARK    9  A    between atoms: S_25  and  C_26
REMARK                            x       y       z     vdW  Elec       q    Type
REMARK                         _______ _______ _______ _____ _____    ______ ____
ROOT
ATOM      1  C   UNL     1       9.758  -3.470  24.451  0.00  0.00    +0.180 C 
ENDROOT
BRANCH   1   2
ATOM      2  N   UNL     1       8.702  -4.411  24.151  0.00  0.00    -0.292 N 
ATOM      3  H   UNL     1       8.725  -4.877  23.259  0.00  0.00    +0.151 HD
ATOM      4  C   UNL     1       7.795  -4.782  25.118  0.00  0.00    +0.306 C 
ATOM      5  N   UNL     1       6.828  -5.615  24.612  0.00  0.00    -0.248 N 
ATOM      6  H   UNL     1       6.648  -5.609  23.626  0.00  0.00    +0.158 HD
ATOM      7  C   UNL     1       5.830  -6.108  25.414  0.00  0.00    +0.167 A 
ATOM      8  S   UNL     1       4.454  -6.641  24.564  0.00  0.00    -0.045 S 
ATOM      9  C   UNL     1       3.636  -6.894  26.066  0.00  0.00    +0.072 A 
ATOM     10  C   UNL     1       4.528  -6.655  27.094  0.00  0.00    +0.135 A 
ATOM     11  N   UNL     1       5.786  -6.211  26.715  0.00  0.00    -0.232 NA
ATOM     12  O   UNL     1       7.873  -4.342  26.256  0.00  0.00    -0.252 OA
BRANCH   9  13
ATOM     13  S   UNL     1       1.922  -7.245  26.070  0.00  0.00    -0.061 S 
BRANCH  13  14
ATOM     14  C   UNL     1       1.349  -7.017  24.396  0.00  0.00    +0.102 A 
ATOM     15  C   UNL     1       1.205  -8.169  23.623  0.00  0.00    +0.035 A 
ATOM     16  C   UNL     1       0.742  -8.065  22.314  0.00  0.00    +0.004 A 
ATOM     17  C   UNL     1       0.443  -6.809  21.806  0.00  0.00    +0.020 A 
ATOM     18  C   UNL     1       0.624  -5.714  22.631  0.00  0.00    +0.112 A 
ATOM     19  N   UNL     1       1.064  -5.790  23.912  0.00  0.00    -0.248 NA
ENDBRANCH  13  14
ENDBRANCH   9  13
ENDBRANCH   1   2
BRANCH   1  22
ATOM     20  C   UNL     1       9.058  -0.001  23.703  0.00  0.00    +0.089 A 
ATOM     21  N   UNL     1       9.691  -0.949  24.479  0.00  0.00    -0.231 NA
ATOM     22  C   UNL     1       9.369  -2.118  23.959  0.00  0.00    +0.125 A 
ATOM     23  N   UNL     1       8.575  -1.955  22.851  0.00  0.00    -0.346 N 
ATOM     24  H   UNL     1       8.234  -2.711  22.265  0.00  0.00    +0.167 HD
ATOM     25  C   UNL     1       8.352  -0.615  22.690  0.00  0.00    +0.112 A 
BRANCH  20  29
ATOM     26  C   UNL     1       9.085   4.217  24.397  0.00  0.00    +0.121 A 
ATOM     27  C   UNL     1       8.131   3.406  25.009  0.00  0.00    +0.046 A 
ATOM     28  C   UNL     1       8.145   2.021  24.797  0.00  0.00    +0.013 A 
ATOM     29  C   UNL     1       9.118   1.428  23.981  0.00  0.00    +0.002 A 
ATOM     30  C   UNL     1      10.112   2.246  23.431  0.00  0.00    +0.013 A 
ATOM     31  C   UNL     1      10.104   3.629  23.647  0.00  0.00    +0.046 A 
BRANCH  26  32
ATOM     32  O   UNL     1       8.935   5.568  24.574  0.00  0.00    -0.481 OA
BRANCH  32  33
ATOM     33  C   UNL     1       8.940   6.319  23.352  0.00  0.00    +0.349 C 
BRANCH  33  34
ATOM     34  C   UNL     1       7.573   6.253  22.695  0.00  0.00    +0.343 C 
ATOM     35  O   UNL     1       6.523   6.458  23.289  0.00  0.00    -0.247 OA
BRANCH  34  36
ATOM     36  O   UNL     1       7.621   5.941  21.378  0.00  0.00    -0.478 OA
ATOM     37  H   UNL     1       7.217   6.670  20.855  0.00  0.00    +0.295 HD
ENDBRANCH  34  36
ENDBRANCH  33  34
ENDBRANCH  32  33
ENDBRANCH  26  32
ENDBRANCH  20  29
ENDBRANCH   1  22
TORSDOF 9
ENDMDL
MODEL 7
REMARK VINA RESULT:      -7.0      1.930      2.796
REMARK  Name = 
REMARK  9 active torsions:
REMARK  status: ('A' for Active; 'I' for Inactive)
REMARK    1  A    between atoms: O_1  and  C_2
REMARK    2  A    between atoms: C_2  and  C_4
REMARK    3  A    between atoms: C_4  and  O_5
REMARK    4  A    between atoms: O_5  and  C_6
REMARK    5  A    between atoms: C_9  and  C_12
REMARK    6  A    between atoms: C_15  and  C_16
REMARK    7  A    between atoms: C_16  and  N_17
REMARK    8  A    between atoms: C_24  and  S_25
REMARK    9  A    between atoms: S_25  and  C_26
REMARK                            x       y       z     vdW  Elec       q    Type
REMARK                         _______ _______ _______ _____ _____    ______ ____
ROOT
ATOM      1  C   UNL     1       9.541  -2.646  23.898  0.00  0.00    +0.180 C 
ENDROOT
BRANCH   1   2
ATOM      2  N   UNL     1       9.209  -1.351  24.449  0.00  0.00    -0.292 N 
ATOM      3  H   UNL     1       8.609  -1.322  25.256  0.00  0.00    +0.151 HD
ATOM      4  C   UNL     1       9.830  -0.211  23.990  0.00  0.00    +0.306 C 
ATOM      5  N   UNL     1       9.317   0.918  24.579  0.00  0.00    -0.248 N 
ATOM      6  H   UNL     1       8.398   0.884  24.978  0.00  0.00    +0.158 HD
ATOM      7  C   UNL     1       9.805   2.162  24.266  0.00  0.00    +0.167 A 
ATOM      8  S   UNL     1       8.740   3.438  24.636  0.00  0.00    -0.045 S 
ATOM      9  C   UNL     1       9.814   4.546  23.858  0.00  0.00    +0.072 A 
ATOM     10  C   UNL     1      10.952   3.860  23.481  0.00  0.00    +0.135 A 
ATOM     11  N   UNL     1      10.944   2.494  23.723  0.00  0.00    -0.232 NA
ATOM     12  O   UNL     1      10.689  -0.270  23.122  0.00  0.00    -0.252 OA
BRANCH   9  13
ATOM     13  S   UNL     1       9.297   6.191  23.562  0.00  0.00    -0.061 S 
BRANCH  13  14
ATOM     14  C   UNL     1       7.519   6.203  23.709  0.00  0.00    +0.102 A 
ATOM     15  C   UNL     1       6.797   5.796  22.587  0.00  0.00    +0.035 A 
ATOM     16  C   UNL     1       5.406   5.762  22.640  0.00  0.00    +0.004 A 
ATOM     17  C   UNL     1       4.770   6.147  23.811  0.00  0.00    +0.020 A 
ATOM     18  C   UNL     1       5.555   6.549  24.876  0.00  0.00    +0.112 A 
ATOM     19  N   UNL     1       6.911   6.582  24.853  0.00  0.00    -0.248 NA
ENDBRANCH  13  14
ENDBRANCH   9  13
ENDBRANCH   1   2
BRANCH   1  22
ATOM     20  C   UNL     1       6.787  -4.878  24.617  0.00  0.00    +0.089 A 
ATOM     21  N   UNL     1       7.366  -3.920  23.811  0.00  0.00    -0.231 NA
ATOM     22  C   UNL     1       8.537  -3.648  24.356  0.00  0.00    +0.125 A 
ATOM     23  N   UNL     1       8.747  -4.423  25.469  0.00  0.00    -0.346 N 
ATOM     24  H   UNL     1       9.593  -4.415  26.031  0.00  0.00    +0.167 HD
ATOM     25  C   UNL     1       7.633  -5.194  25.658  0.00  0.00    +0.112 A 
BRANCH  20  29
ATOM     26  C   UNL     1       2.951  -6.601  23.847  0.00  0.00    +0.121 A 
ATOM     27  C   UNL     1       3.754  -7.094  24.875  0.00  0.00    +0.046 A 
ATOM     28  C   UNL     1       4.998  -6.507  25.137  0.00  0.00    +0.013 A 
ATOM     29  C   UNL     1       5.452  -5.413  24.386  0.00  0.00    +0.002 A 
ATOM     30  C   UNL     1       4.603  -4.884  23.405  0.00  0.00    +0.013 A 
ATOM     31  C   UNL     1       3.357  -5.465  23.146  0.00  0.00    +0.046 A 
BRANCH  26  32
ATOM     32  O   UNL     1       1.799  -7.298  23.592  0.00  0.00    -0.481 OA
BRANCH  32  33
ATOM     33  C   UNL     1       1.272  -7.087  22.274  0.00  0.00    +0.349 C 
BRANCH  33  34
ATOM     34  C   UNL     1       1.016  -8.421  21.596  0.00  0.00    +0.343 C 
ATOM     35  O   UNL     1       1.289  -8.652  20.426  0.00  0.00    -0.247 OA
BRANCH  34  36
ATOM     36  O   UNL     1       0.450  -9.342  22.412  0.00  0.00    -0.478 OA
ATOM     37  H   UNL     1       1.078 -10.085  22.552  0.00  0.00    +0.295 HD
ENDBRANCH  34  36
ENDBRANCH  33  34
ENDBRANCH  32  33
ENDBRANCH  26  32
ENDBRANCH  20  29
ENDBRANCH   1  22
TORSDOF 9
ENDMDL
MODEL 8
REMARK VINA RESULT:      -6.8      5.099     11.257
REMARK  Name = 
REMARK  9 active torsions:
REMARK  status: ('A' for Active; 'I' for Inactive)
REMARK    1  A    between atoms: O_1  and  C_2
REMARK    2  A    between atoms: C_2  and  C_4
REMARK    3  A    between atoms: C_4  and  O_5
REMARK    4  A    between atoms: O_5  and  C_6
REMARK    5  A    between atoms: C_9  and  C_12
REMARK    6  A    between atoms: C_15  and  C_16
REMARK    7  A    between atoms: C_16  and  N_17
REMARK    8  A    between atoms: C_24  and  S_25
REMARK    9  A    between atoms: S_25  and  C_26
REMARK                            x       y       z     vdW  Elec       q    Type
REMARK                         _______ _______ _______ _____ _____    ______ ____
ROOT
ATOM      1  C   UNL     1       7.358  -4.697  22.608  0.00  0.00    +0.180 C 
ENDROOT
BRANCH   1   2
ATOM      2  N   UNL     1       6.216  -5.139  23.379  0.00  0.00    -0.292 N 
ATOM      3  H   UNL     1       5.354  -5.310  22.888  0.00  0.00    +0.151 HD
ATOM      4  C   UNL     1       6.351  -5.477  24.706  0.00  0.00    +0.306 C 
ATOM      5  N   UNL     1       5.141  -5.789  25.275  0.00  0.00    -0.248 N 
ATOM      6  H   UNL     1       4.301  -5.443  24.852  0.00  0.00    +0.158 HD
ATOM      7  C   UNL     1       5.055  -6.162  26.593  0.00  0.00    +0.167 A 
ATOM      8  S   UNL     1       3.503  -5.977  27.268  0.00  0.00    -0.045 S 
ATOM      9  C   UNL     1       4.140  -6.390  28.821  0.00  0.00    +0.072 A 
ATOM     10  C   UNL     1       5.467  -6.745  28.668  0.00  0.00    +0.135 A 
ATOM     11  N   UNL     1       5.985  -6.618  27.388  0.00  0.00    -0.232 NA
ATOM     12  O   UNL     1       7.441  -5.432  25.258  0.00  0.00    -0.252 OA
BRANCH   9  13
ATOM     13  S   UNL     1       3.148  -6.183  30.247  0.00  0.00    -0.061 S 
BRANCH  13  14
ATOM     14  C   UNL     1       2.730  -4.451  30.333  0.00  0.00    +0.102 A 
ATOM     15  C   UNL     1       3.794  -3.550  30.323  0.00  0.00    +0.035 A 
ATOM     16  C   UNL     1       3.537  -2.181  30.367  0.00  0.00    +0.004 A 
ATOM     17  C   UNL     1       2.221  -1.748  30.431  0.00  0.00    +0.020 A 
ATOM     18  C   UNL     1       1.222  -2.704  30.449  0.00  0.00    +0.112 A 
ATOM     19  N   UNL     1       1.445  -4.041  30.397  0.00  0.00    -0.248 NA
ENDBRANCH  13  14
ENDBRANCH   9  13
ENDBRANCH   1   2
BRANCH   1  22
ATOM     20  C   UNL     1       8.198  -1.193  22.913  0.00  0.00    +0.089 A 
ATOM     21  N   UNL     1       8.594  -2.505  22.759  0.00  0.00    -0.231 NA
ATOM     22  C   UNL     1       7.484  -3.217  22.720  0.00  0.00    +0.125 A 
ATOM     23  N   UNL     1       6.382  -2.404  22.810  0.00  0.00    -0.346 N 
ATOM     24  H   UNL     1       5.419  -2.723  22.765  0.00  0.00    +0.167 HD
ATOM     25  C   UNL     1       6.822  -1.116  22.956  0.00  0.00    +0.112 A 
BRANCH  20  29
ATOM     26  C   UNL     1      10.835   2.127  23.463  0.00  0.00    +0.121 A 
ATOM     27  C   UNL     1      10.815   1.080  24.383  0.00  0.00    +0.046 A 
ATOM     28  C   UNL     1       9.967  -0.016  24.182  0.00  0.00    +0.013 A 
ATOM     29  C   UNL     1       9.137  -0.088  23.054  0.00  0.00    +0.002 A 
ATOM     30  C   UNL     1       9.221   0.936  22.102  0.00  0.00    +0.013 A 
ATOM     31  C   UNL     1      10.072   2.029  22.298  0.00  0.00    +0.046 A 
BRANCH  26  32
ATOM     32  O   UNL     1      11.616   3.206  23.789  0.00  0.00    -0.481 OA
BRANCH  32  33
ATOM     33  C   UNL     1      11.323   4.385  23.027  0.00  0.00    +0.349 C 
BRANCH  33  34
ATOM     34  C   UNL     1      12.572   5.238  22.890  0.00  0.00    +0.343 C 
ATOM     35  O   UNL     1      13.127   5.465  21.824  0.00  0.00    -0.247 OA
BRANCH  34  36
ATOM     36  O   UNL     1      13.022   5.731  24.069  0.00  0.00    -0.478 OA
ATOM     37  H   UNL     1      12.653   5.197  24.808  0.00  0.00    +0.295 HD
ENDBRANCH  34  36
ENDBRANCH  33  34
ENDBRANCH  32  33
ENDBRANCH  26  32
ENDBRANCH  20  29
ENDBRANCH   1  22
TORSDOF 9
ENDMDL
MODEL 9
REMARK VINA RESULT:      -6.8      1.914      2.460
REMARK  Name = 
REMARK  9 active torsions:
REMARK  status: ('A' for Active; 'I' for Inactive)
REMARK    1  A    between atoms: O_1  and  C_2
REMARK    2  A    between atoms: C_2  and  C_4
REMARK    3  A    between atoms: C_4  and  O_5
REMARK    4  A    between atoms: O_5  and  C_6
REMARK    5  A    between atoms: C_9  and  C_12
REMARK    6  A    between atoms: C_15  and  C_16
REMARK    7  A    between atoms: C_16  and  N_17
REMARK    8  A    between atoms: C_24  and  S_25
REMARK    9  A    between atoms: S_25  and  C_26
REMARK                            x       y       z     vdW  Elec       q    Type
REMARK                         _______ _______ _______ _____ _____    ______ ____
ROOT
ATOM      1  C   UNL     1       9.658  -4.229  24.494  0.00  0.00    +0.180 C 
ENDROOT
BRANCH   1   2
ATOM      2  N   UNL     1       9.772  -2.809  24.745  0.00  0.00    -0.292 N 
ATOM      3  H   UNL     1      10.254  -2.515  25.579  0.00  0.00    +0.151 HD
ATOM      4  C   UNL     1       9.386  -1.893  23.792  0.00  0.00    +0.306 C 
ATOM      5  N   UNL     1       9.495  -0.606  24.254  0.00  0.00    -0.248 N 
ATOM      6  H   UNL     1       9.496  -0.442  25.243  0.00  0.00    +0.158 HD
ATOM      7  C   UNL     1       9.167   0.461  23.456  0.00  0.00    +0.167 A 
ATOM      8  S   UNL     1       8.831   1.893  24.314  0.00  0.00    -0.045 S 
ATOM      9  C   UNL     1       8.345   2.652  22.839  0.00  0.00    +0.072 A 
ATOM     10  C   UNL     1       8.589   1.777  21.797  0.00  0.00    +0.135 A 
ATOM     11  N   UNL     1       9.066   0.525  22.156  0.00  0.00    -0.232 NA
ATOM     12  O   UNL     1       8.958  -2.259  22.707  0.00  0.00    -0.252 OA
BRANCH   9  13
ATOM     13  S   UNL     1       7.558   4.213  22.886  0.00  0.00    -0.061 S 
BRANCH  13  14
ATOM     14  C   UNL     1       8.436   5.194  24.089  0.00  0.00    +0.102 A 
ATOM     15  C   UNL     1       9.718   5.614  23.736  0.00  0.00    +0.035 A 
ATOM     16  C   UNL     1      10.452   6.400  24.622  0.00  0.00    +0.004 A 
ATOM     17  C   UNL     1       9.889   6.738  25.844  0.00  0.00    +0.020 A 
ATOM     18  C   UNL     1       8.617   6.272  26.125  0.00  0.00    +0.112 A 
ATOM     19  N   UNL     1       7.879   5.513  25.277  0.00  0.00    -0.248 NA
ENDBRANCH  13  14
ENDBRANCH   9  13
ENDBRANCH   1   2
BRANCH   1  22
ATOM     20  C   UNL     1       6.677  -5.626  25.992  0.00  0.00    +0.089 A 
ATOM     21  N   UNL     1       7.403  -5.294  24.867  0.00  0.00    -0.231 NA
ATOM     22  C   UNL     1       8.539  -4.785  25.306  0.00  0.00    +0.125 A 
ATOM     23  N   UNL     1       8.584  -4.808  26.678  0.00  0.00    -0.346 N 
ATOM     24  H   UNL     1       9.374  -4.502  27.238  0.00  0.00    +0.167 HD
ATOM     25  C   UNL     1       7.398  -5.320  27.127  0.00  0.00    +0.112 A 
BRANCH  20  29
ATOM     26  C   UNL     1       2.656  -7.061  25.774  0.00  0.00    +0.121 A 
ATOM     27  C   UNL     1       3.413  -6.898  24.614  0.00  0.00    +0.046 A 
ATOM     28  C   UNL     1       4.738  -6.452  24.696  0.00  0.00    +0.013 A 
ATOM     29  C   UNL     1       5.329  -6.175  25.938  0.00  0.00    +0.002 A 
ATOM     30  C   UNL     1       4.580  -6.412  27.097  0.00  0.00    +0.013 A 
ATOM     31  C   UNL     1       3.258  -6.863  27.017  0.00  0.00    +0.046 A 
BRANCH  26  32
ATOM     32  O   UNL     1       1.340  -7.399  25.596  0.00  0.00    -0.481 OA
BRANCH  32  33
ATOM     33  C   UNL     1       0.974  -8.647  26.203  0.00  0.00    +0.349 C 
BRANCH  33  34
ATOM     34  C   UNL     1       1.147  -9.780  25.208  0.00  0.00    +0.343 C 
ATOM     35  O   UNL     1       0.538  -9.854  24.149  0.00  0.00    -0.247 OA
BRANCH  34  36
ATOM     36  O   UNL     1       2.046 -10.713  25.603  0.00  0.00    -0.478 OA
ATOM     37  H   UNL     1       2.205 -11.346  24.867  0.00  0.00    +0.295 HD
ENDBRANCH  34  36
ENDBRANCH  33  34
ENDBRANCH  32  33
ENDBRANCH  26  32
ENDBRANCH  20  29
ENDBRANCH   1  22
TORSDOF 9
ENDMDL
