MODEL 1
REMARK VINA RESULT:      -5.4      0.000      0.000
REMARK  Name = 
REMARK  5 active torsions:
REMARK  status: ('A' for Active; 'I' for Inactive)
REMARK    1  A    between atoms: N_7  and  C_8
REMARK    2  A    between atoms: C_9  and  C_11
REMARK    3  A    between atoms: C_11  and  O_13
REMARK    4  A    between atoms: O_13  and  C_14
REMARK    5  A    between atoms: C_15  and  O_17
REMARK                            x       y       z     vdW  Elec       q    Type
REMARK                         _______ _______ _______ _____ _____    ______ ____
ROOT
ATOM      1  C   UNL     1       9.150   1.631  23.344  0.00  0.00    +0.059 C 
ATOM      2  C   UNL     1       9.265   1.013  21.943  0.00  0.00    +0.051 C 
ATOM      3  C   UNL     1      10.003  -0.335  21.885  0.00  0.00    +0.131 C 
ATOM      4  C   UNL     1      10.147  -1.113  23.209  0.00  0.00    +0.143 C 
ATOM      5  C   UNL     1       9.852  -0.268  24.461  0.00  0.00    +0.073 C 
ATOM      6  C   UNL     1      10.976   0.759  24.675  0.00  0.00    +0.021 C 
ATOM      7  N   UNL     1       8.709   0.647  24.332  0.00  0.00    -0.299 NA
ATOM      8  C   UNL     1       7.409   0.053  24.071  0.00  0.00    +0.105 C 
ATOM      9  C   UNL     1      10.507   2.014  23.935  0.00  0.00    +0.020 C 
ENDROOT
BRANCH   3  10
ATOM     10  O   UNL     1       9.445  -1.118  20.828  0.00  0.00    -0.391 OA
ATOM     11  H   UNL     1       8.968  -0.507  20.226  0.00  0.00    +0.210 HD
ENDBRANCH   3  10
BRANCH   4  12
ATOM     12  C   UNL     1       9.402  -2.431  23.284  0.00  0.00    +0.314 C 
ATOM     13  O   UNL     1       8.345  -2.678  22.721  0.00  0.00    -0.250 OA
BRANCH  12  14
ATOM     14  O   UNL     1      10.094  -3.316  24.064  0.00  0.00    -0.468 OA
ATOM     15  C   UNL     1       9.272  -4.163  24.869  0.00  0.00    +0.280 C 
ENDBRANCH  12  14
ENDBRANCH   4  12
TORSDOF 3
ENDMDL
MODEL 2
REMARK VINA RESULT:      -4.9      2.331      2.818
REMARK  Name = 
REMARK  5 active torsions:
REMARK  status: ('A' for Active; 'I' for Inactive)
REMARK    1  A    between atoms: N_7  and  C_8
REMARK    2  A    between atoms: C_9  and  C_11
REMARK    3  A    between atoms: C_11  and  O_13
REMARK    4  A    between atoms: O_13  and  C_14
REMARK    5  A    between atoms: C_15  and  O_17
REMARK                            x       y       z     vdW  Elec       q    Type
REMARK                         _______ _______ _______ _____ _____    ______ ____
ROOT
ATOM      1  C   UNL     1      10.618   2.138  23.854  0.00  0.00    +0.059 C 
ATOM      2  C   UNL     1      10.349   2.000  22.349  0.00  0.00    +0.051 C 
ATOM      3  C   UNL     1       9.388   0.863  21.963  0.00  0.00    +0.131 C 
ATOM      4  C   UNL     1       8.485   0.298  23.078  0.00  0.00    +0.143 C 
ATOM      5  C   UNL     1       8.926   0.701  24.496  0.00  0.00    +0.073 C 
ATOM      6  C   UNL     1      10.230  -0.027  24.865  0.00  0.00    +0.021 C 
ATOM      7  N   UNL     1       9.380   2.092  24.629  0.00  0.00    -0.299 NA
ATOM      8  C   UNL     1       8.419   3.137  24.318  0.00  0.00    +0.105 C 
ATOM      9  C   UNL     1      11.346   0.928  24.439  0.00  0.00    +0.020 C 
ENDROOT
BRANCH   3  10
ATOM     10  O   UNL     1       8.664   1.251  20.793  0.00  0.00    -0.391 OA
ATOM     11  H   UNL     1       7.851   1.715  21.088  0.00  0.00    +0.210 HD
ENDBRANCH   3  10
BRANCH   4  12
ATOM     12  C   UNL     1       6.998   0.537  22.908  0.00  0.00    +0.314 C 
ATOM     13  O   UNL     1       6.497   1.510  22.363  0.00  0.00    -0.250 OA
BRANCH  12  14
ATOM     14  O   UNL     1       6.292  -0.506  23.441  0.00  0.00    -0.468 OA
ATOM     15  C   UNL     1       6.638  -1.786  22.913  0.00  0.00    +0.280 C 
ENDBRANCH  12  14
ENDBRANCH   4  12
TORSDOF 3
ENDMDL
MODEL 3
REMARK VINA RESULT:      -4.9      2.790      5.514
REMARK  Name = 
REMARK  5 active torsions:
REMARK  status: ('A' for Active; 'I' for Inactive)
REMARK    1  A    between atoms: N_7  and  C_8
REMARK    2  A    between atoms: C_9  and  C_11
REMARK    3  A    between atoms: C_11  and  O_13
REMARK    4  A    between atoms: O_13  and  C_14
REMARK    5  A    between atoms: C_15  and  O_17
REMARK                            x       y       z     vdW  Elec       q    Type
REMARK                         _______ _______ _______ _____ _____    ______ ____
ROOT
ATOM      1  C   UNL     1       6.970  -4.736  26.684  0.00  0.00    +0.059 C 
ATOM      2  C   UNL     1       8.378  -5.294  26.434  0.00  0.00    +0.051 C 
ATOM      3  C   UNL     1       8.860  -5.212  24.975  0.00  0.00    +0.131 C 
ATOM      4  C   UNL     1       8.122  -4.226  24.047  0.00  0.00    +0.143 C 
ATOM      5  C   UNL     1       6.779  -3.729  24.612  0.00  0.00    +0.073 C 
ATOM      6  C   UNL     1       5.750  -4.873  24.597  0.00  0.00    +0.021 C 
ATOM      7  N   UNL     1       6.788  -3.431  26.051  0.00  0.00    -0.299 NA
ATOM      8  C   UNL     1       7.695  -2.392  26.508  0.00  0.00    +0.105 C 
ATOM      9  C   UNL     1       5.880  -5.535  25.970  0.00  0.00    +0.020 C 
ENDROOT
BRANCH   3  10
ATOM     10  O   UNL     1      10.278  -5.038  24.970  0.00  0.00    -0.391 OA
ATOM     11  H   UNL     1      10.503  -4.461  24.208  0.00  0.00    +0.210 HD
ENDBRANCH   3  10
BRANCH   4  12
ATOM     12  C   UNL     1       8.940  -3.053  23.545  0.00  0.00    +0.314 C 
ATOM     13  O   UNL     1       9.922  -2.586  24.105  0.00  0.00    -0.250 OA
BRANCH  12  14
ATOM     14  O   UNL     1       8.429  -2.598  22.361  0.00  0.00    -0.468 OA
ATOM     15  C   UNL     1       9.104  -1.460  21.823  0.00  0.00    +0.280 C 
ENDBRANCH  12  14
ENDBRANCH   4  12
TORSDOF 3
ENDMDL
MODEL 4
REMARK VINA RESULT:      -4.8      1.740      4.050
REMARK  Name = 
REMARK  5 active torsions:
REMARK  status: ('A' for Active; 'I' for Inactive)
REMARK    1  A    between atoms: N_7  and  C_8
REMARK    2  A    between atoms: C_9  and  C_11
REMARK    3  A    between atoms: C_11  and  O_13
REMARK    4  A    between atoms: O_13  and  C_14
REMARK    5  A    between atoms: C_15  and  O_17
REMARK                            x       y       z     vdW  Elec       q    Type
REMARK                         _______ _______ _______ _____ _____    ______ ____
ROOT
ATOM      1  C   UNL     1       9.046  -1.922  24.931  0.00  0.00    +0.059 C 
ATOM      2  C   UNL     1       9.744  -2.331  23.626  0.00  0.00    +0.051 C 
ATOM      3  C   UNL     1       9.167  -1.692  22.352  0.00  0.00    +0.131 C 
ATOM      4  C   UNL     1       8.298  -0.431  22.532  0.00  0.00    +0.143 C 
ATOM      5  C   UNL     1       7.834  -0.199  23.980  0.00  0.00    +0.073 C 
ATOM      6  C   UNL     1       6.787  -1.257  24.369  0.00  0.00    +0.021 C 
ATOM      7  N   UNL     1       8.849  -0.476  25.005  0.00  0.00    -0.299 NA
ATOM      8  C   UNL     1      10.068   0.315  24.963  0.00  0.00    +0.105 C 
ATOM      9  C   UNL     1       7.593  -2.395  24.998  0.00  0.00    +0.020 C 
ENDROOT
BRANCH   3  10
ATOM     10  O   UNL     1      10.225  -1.518  21.407  0.00  0.00    -0.391 OA
ATOM     11  H   UNL     1      11.038  -1.906  21.796  0.00  0.00    +0.210 HD
ENDBRANCH   3  10
BRANCH   4  12
ATOM     12  C   UNL     1       8.868   0.851  21.957  0.00  0.00    +0.314 C 
ATOM     13  O   UNL     1      10.058   1.120  21.876  0.00  0.00    -0.250 OA
BRANCH  12  14
ATOM     14  O   UNL     1       7.855   1.662  21.526  0.00  0.00    -0.468 OA
ATOM     15  C   UNL     1       7.831   2.954  22.134  0.00  0.00    +0.280 C 
ENDBRANCH  12  14
ENDBRANCH   4  12
TORSDOF 3
ENDMDL
MODEL 5
REMARK VINA RESULT:      -4.8      3.076      5.673
REMARK  Name = 
REMARK  5 active torsions:
REMARK  status: ('A' for Active; 'I' for Inactive)
REMARK    1  A    between atoms: N_7  and  C_8
REMARK    2  A    between atoms: C_9  and  C_11
REMARK    3  A    between atoms: C_11  and  O_13
REMARK    4  A    between atoms: O_13  and  C_14
REMARK    5  A    between atoms: C_15  and  O_17
REMARK                            x       y       z     vdW  Elec       q    Type
REMARK                         _______ _______ _______ _____ _____    ______ ____
ROOT
ATOM      1  C   UNL     1       5.472  -5.007  23.642  0.00  0.00    +0.059 C 
ATOM      2  C   UNL     1       6.045  -5.322  25.031  0.00  0.00    +0.051 C 
ATOM      3  C   UNL     1       7.578  -5.247  25.133  0.00  0.00    +0.131 C 
ATOM      4  C   UNL     1       8.318  -4.467  24.028  0.00  0.00    +0.143 C 
ATOM      5  C   UNL     1       7.454  -4.181  22.786  0.00  0.00    +0.073 C 
ATOM      6  C   UNL     1       7.199  -5.487  22.015  0.00  0.00    +0.021 C 
ATOM      7  N   UNL     1       6.066  -3.797  23.076  0.00  0.00    -0.299 NA
ATOM      8  C   UNL     1       5.861  -2.587  23.855  0.00  0.00    +0.105 C 
ATOM      9  C   UNL     1       5.886  -6.029  22.584  0.00  0.00    +0.020 C 
ENDROOT
BRANCH   3  10
ATOM     10  O   UNL     1       7.930  -4.826  26.453  0.00  0.00    -0.391 OA
ATOM     11  H   UNL     1       8.523  -5.508  26.834  0.00  0.00    +0.210 HD
ENDBRANCH   3  10
BRANCH   4  12
ATOM     12  C   UNL     1       9.024  -3.202  24.472  0.00  0.00    +0.314 C 
ATOM     13  O   UNL     1       8.647  -2.460  25.368  0.00  0.00    -0.250 OA
BRANCH  12  14
ATOM     14  O   UNL     1      10.160  -3.015  23.733  0.00  0.00    -0.468 OA
ATOM     15  C   UNL     1      10.192  -1.791  22.997  0.00  0.00    +0.280 C 
ENDBRANCH  12  14
ENDBRANCH   4  12
TORSDOF 3
ENDMDL
MODEL 6
REMARK VINA RESULT:      -4.7      2.653      4.400
REMARK  Name = 
REMARK  5 active torsions:
REMARK  status: ('A' for Active; 'I' for Inactive)
REMARK    1  A    between atoms: N_7  and  C_8
REMARK    2  A    between atoms: C_9  and  C_11
REMARK    3  A    between atoms: C_11  and  O_13
REMARK    4  A    between atoms: O_13  and  C_14
REMARK    5  A    between atoms: C_15  and  O_17
REMARK                            x       y       z     vdW  Elec       q    Type
REMARK                         _______ _______ _______ _____ _____    ______ ____
ROOT
ATOM      1  C   UNL     1       9.593  -1.307  22.927  0.00  0.00    +0.059 C 
ATOM      2  C   UNL     1      10.122  -0.254  21.941  0.00  0.00    +0.051 C 
ATOM      3  C   UNL     1       9.215   0.974  21.754  0.00  0.00    +0.131 C 
ATOM      4  C   UNL     1       8.156   1.237  22.844  0.00  0.00    +0.143 C 
ATOM      5  C   UNL     1       7.914   0.036  23.776  0.00  0.00    +0.073 C 
ATOM      6  C   UNL     1       7.184  -1.081  23.010  0.00  0.00    +0.021 C 
ATOM      7  N   UNL     1       9.127  -0.694  24.169  0.00  0.00    -0.299 NA
ATOM      8  C   UNL     1      10.136   0.046  24.908  0.00  0.00    +0.105 C 
ATOM      9  C   UNL     1       8.299  -1.967  22.451  0.00  0.00    +0.020 C 
ENDROOT
BRANCH   3  10
ATOM     10  O   UNL     1      10.035   2.112  21.479  0.00  0.00    -0.391 OA
ATOM     11  H   UNL     1       9.440   2.871  21.303  0.00  0.00    +0.210 HD
ENDBRANCH   3  10
BRANCH   4  12
ATOM     12  C   UNL     1       8.349   2.498  23.661  0.00  0.00    +0.314 C 
ATOM     13  O   UNL     1       9.428   2.973  23.984  0.00  0.00    -0.250 OA
BRANCH  12  14
ATOM     14  O   UNL     1       7.134   3.042  23.977  0.00  0.00    -0.468 OA
ATOM     15  C   UNL     1       6.307   3.337  22.850  0.00  0.00    +0.280 C 
ENDBRANCH  12  14
ENDBRANCH   4  12
TORSDOF 3
ENDMDL
MODEL 7
REMARK VINA RESULT:      -4.7      1.968      2.569
REMARK  Name = 
REMARK  5 active torsions:
REMARK  status: ('A' for Active; 'I' for Inactive)
REMARK    1  A    between atoms: N_7  and  C_8
REMARK    2  A    between atoms: C_9  and  C_11
REMARK    3  A    between atoms: C_11  and  O_13
REMARK    4  A    between atoms: O_13  and  C_14
REMARK    5  A    between atoms: C_15  and  O_17
REMARK                            x       y       z     vdW  Elec       q    Type
REMARK                         _______ _______ _______ _____ _____    ______ ____
ROOT
ATOM      1  C   UNL     1       8.919   0.078  23.595  0.00  0.00    +0.059 C 
ATOM      2  C   UNL     1       7.473  -0.257  23.203  0.00  0.00    +0.051 C 
ATOM      3  C   UNL     1       7.247  -1.701  22.724  0.00  0.00    +0.131 C 
ATOM      4  C   UNL     1       8.326  -2.739  23.094  0.00  0.00    +0.143 C 
ATOM      5  C   UNL     1       9.648  -2.116  23.575  0.00  0.00    +0.073 C 
ATOM      6  C   UNL     1      10.370  -1.444  22.395  0.00  0.00    +0.021 C 
ATOM      7  N   UNL     1       9.494  -0.952  24.459  0.00  0.00    -0.299 NA
ATOM      8  C   UNL     1       8.798  -1.160  25.717  0.00  0.00    +0.105 C 
ATOM      9  C   UNL     1       9.885   0.007  22.413  0.00  0.00    +0.020 C 
ENDROOT
BRANCH   3  10
ATOM     10  O   UNL     1       5.926  -2.105  23.091  0.00  0.00    -0.391 OA
ATOM     11  H   UNL     1       5.638  -2.792  22.453  0.00  0.00    +0.210 HD
ENDBRANCH   3  10
BRANCH   4  12
ATOM     12  C   UNL     1       7.890  -3.834  24.047  0.00  0.00    +0.314 C 
ATOM     13  O   UNL     1       6.887  -3.803  24.745  0.00  0.00    -0.250 OA
BRANCH  12  14
ATOM     14  O   UNL     1       8.776  -4.874  24.002  0.00  0.00    -0.468 OA
ATOM     15  C   UNL     1       9.176  -5.366  25.282  0.00  0.00    +0.280 C 
ENDBRANCH  12  14
ENDBRANCH   4  12
TORSDOF 3
ENDMDL
MODEL 8
REMARK VINA RESULT:      -4.6      2.488      4.437
REMARK  Name = 
REMARK  5 active torsions:
REMARK  status: ('A' for Active; 'I' for Inactive)
REMARK    1  A    between atoms: N_7  and  C_8
REMARK    2  A    between atoms: C_9  and  C_11
REMARK    3  A    between atoms: C_11  and  O_13
REMARK    4  A    between atoms: O_13  and  C_14
REMARK    5  A    between atoms: C_15  and  O_17
REMARK                            x       y       z     vdW  Elec       q    Type
REMARK                         _______ _______ _______ _____ _____    ______ ____
ROOT
ATOM      1  C   UNL     1       7.677  -1.349  23.387  0.00  0.00    +0.059 C 
ATOM      2  C   UNL     1       8.474  -1.228  24.694  0.00  0.00    +0.051 C 
ATOM      3  C   UNL     1       9.752  -0.379  24.599  0.00  0.00    +0.131 C 
ATOM      4  C   UNL     1       9.867   0.586  23.402  0.00  0.00    +0.143 C 
ATOM      5  C   UNL     1       8.854   0.304  22.279  0.00  0.00    +0.073 C 
ATOM      6  C   UNL     1       9.224  -1.003  21.557  0.00  0.00    +0.021 C 
ATOM      7  N   UNL     1       7.504  -0.049  22.740  0.00  0.00    -0.299 NA
ATOM      8  C   UNL     1       6.792   0.942  23.529  0.00  0.00    +0.105 C 
ATOM      9  C   UNL     1       8.442  -2.093  22.293  0.00  0.00    +0.020 C 
ENDROOT
BRANCH   3  10
ATOM     10  O   UNL     1       9.976   0.256  25.860  0.00  0.00    -0.391 OA
ATOM     11  H   UNL     1       9.623   1.170  25.798  0.00  0.00    +0.210 HD
ENDBRANCH   3  10
BRANCH   4  12
ATOM     12  C   UNL     1       9.868   2.063  23.743  0.00  0.00    +0.314 C 
ATOM     13  O   UNL     1       9.272   2.571  24.681  0.00  0.00    -0.250 OA
BRANCH  12  14
ATOM     14  O   UNL     1      10.649   2.748  22.853  0.00  0.00    -0.468 OA
ATOM     15  C   UNL     1      11.402   3.817  23.427  0.00  0.00    +0.280 C 
ENDBRANCH  12  14
ENDBRANCH   4  12
TORSDOF 3
ENDMDL
MODEL 9
REMARK VINA RESULT:      -4.5      4.169      5.884
REMARK  Name = 
REMARK  5 active torsions:
REMARK  status: ('A' for Active; 'I' for Inactive)
REMARK    1  A    between atoms: N_7  and  C_8
REMARK    2  A    between atoms: C_9  and  C_11
REMARK    3  A    between atoms: C_11  and  O_13
REMARK    4  A    between atoms: O_13  and  C_14
REMARK    5  A    between atoms: C_15  and  O_17
REMARK                            x       y       z     vdW  Elec       q    Type
REMARK                         _______ _______ _______ _____ _____    ______ ____
ROOT
ATOM      1  C   UNL     1       6.272  -3.911  21.793  0.00  0.00    +0.059 C 
ATOM      2  C   UNL     1       5.076  -3.672  22.726  0.00  0.00    +0.051 C 
ATOM      3  C   UNL     1       5.017  -4.594  23.956  0.00  0.00    +0.131 C 
ATOM      4  C   UNL     1       6.321  -5.315  24.355  0.00  0.00    +0.143 C 
ATOM      5  C   UNL     1       7.402  -5.294  23.260  0.00  0.00    +0.073 C 
ATOM      6  C   UNL     1       6.983  -6.206  22.094  0.00  0.00    +0.021 C 
ATOM      7  N   UNL     1       7.524  -4.020  22.539  0.00  0.00    -0.299 NA
ATOM      8  C   UNL     1       7.880  -2.847  23.319  0.00  0.00    +0.105 C 
ATOM      9  C   UNL     1       6.236  -5.286  21.126  0.00  0.00    +0.020 C 
ENDROOT
BRANCH   3  10
ATOM     10  O   UNL     1       4.414  -3.880  25.036  0.00  0.00    -0.391 OA
ATOM     11  H   UNL     1       3.454  -3.805  24.844  0.00  0.00    +0.210 HD
ENDBRANCH   3  10
BRANCH   4  12
ATOM     12  C   UNL     1       6.920  -4.905  25.686  0.00  0.00    +0.314 C 
ATOM     13  O   UNL     1       6.369  -4.206  26.523  0.00  0.00    -0.250 OA
BRANCH  12  14
ATOM     14  O   UNL     1       8.169  -5.446  25.823  0.00  0.00    -0.468 OA
ATOM     15  C   UNL     1       9.120  -4.587  26.454  0.00  0.00    +0.280 C 
ENDBRANCH  12  14
ENDBRANCH   4  12
TORSDOF 3
ENDMDL
