MODEL 1
REMARK VINA RESULT:      -6.2      0.000      0.000
REMARK  Name = 
REMARK  7 active torsions:
REMARK  status: ('A' for Active; 'I' for Inactive)
REMARK    1  A    between atoms: C_2  and  N_3
REMARK    2  A    between atoms: C_2  and  C_11
REMARK    3  A    between atoms: C_2  and  P_17
REMARK    4  A    between atoms: N_3  and  C_4
REMARK    5  A    between atoms: C_4  and  C_5
REMARK    6  A    between atoms: P_17  and  O_18
REMARK    7  A    between atoms: P_17  and  O_19
REMARK                            x       y       z     vdW  Elec       q    Type
REMARK                         _______ _______ _______ _____ _____    ______ ____
ROOT
ATOM      1  C   UNL     1       7.572  -3.600  22.708  0.00  0.00    +0.200 C 
ENDROOT
BRANCH   1   2
ATOM      2  C   UNL     1       8.142  -3.908  24.090  0.00  0.00    -0.019 A 
ATOM      3  C   UNL     1       7.969  -3.032  25.173  0.00  0.00    +0.006 A 
ATOM      4  C   UNL     1       8.457  -3.350  26.442  0.00  0.00    +0.000 A 
ATOM      5  C   UNL     1       9.114  -4.559  26.653  0.00  0.00    +0.000 A 
ATOM      6  C   UNL     1       9.290  -5.446  25.595  0.00  0.00    +0.000 A 
ATOM      7  C   UNL     1       8.814  -5.125  24.318  0.00  0.00    +0.006 A 
ENDBRANCH   1   2
BRANCH   1   8
ATOM      8  N   UNL     1       7.731  -2.162  22.332  0.00  0.00    -0.296 NA
ATOM      9  H   UNL     1       7.099  -2.007  21.537  0.00  0.00    +0.123 HD
BRANCH   8  10
ATOM     10  C   UNL     1       9.098  -1.850  21.892  0.00  0.00    +0.117 C 
BRANCH  10  11
ATOM     11  C   UNL     1       9.573  -0.530  22.458  0.00  0.00    -0.034 A 
ATOM     12  C   UNL     1       9.548   0.634  21.678  0.00  0.00    +0.005 A 
ATOM     13  C   UNL     1      10.007   1.848  22.196  0.00  0.00    +0.000 A 
ATOM     14  C   UNL     1      10.502   1.910  23.498  0.00  0.00    +0.000 A 
ATOM     15  C   UNL     1      10.540   0.760  24.283  0.00  0.00    +0.000 A 
ATOM     16  C   UNL     1      10.086  -0.456  23.768  0.00  0.00    +0.005 A 
ENDBRANCH  10  11
ENDBRANCH   8  10
ENDBRANCH   1   8
BRANCH   1  17
ATOM     17  P   UNL     1       5.775  -3.939  22.647  0.00  0.00    +0.349 P 
ATOM     18  O   UNL     1       4.254  -4.226  22.596  0.00  0.00    -0.257 OA
BRANCH  17  19
ATOM     19  O   UNL     1       5.915  -4.163  21.011  0.00  0.00    -0.323 OA
ATOM     20  H   UNL     1       5.622  -3.446  20.424  0.00  0.00    +0.220 HD
ENDBRANCH  17  19
BRANCH  17  21
ATOM     21  O   UNL     1       5.493  -2.309  22.574  0.00  0.00    -0.323 OA
ATOM     22  H   UNL     1       4.753  -2.223  21.933  0.00  0.00    +0.220 HD
ENDBRANCH  17  21
ENDBRANCH   1  17
TORSDOF 7
ENDMDL
MODEL 2
REMARK VINA RESULT:      -6.2      2.791      3.691
REMARK  Name = 
REMARK  7 active torsions:
REMARK  status: ('A' for Active; 'I' for Inactive)
REMARK    1  A    between atoms: C_2  and  N_3
REMARK    2  A    between atoms: C_2  and  C_11
REMARK    3  A    between atoms: C_2  and  P_17
REMARK    4  A    between atoms: N_3  and  C_4
REMARK    5  A    between atoms: C_4  and  C_5
REMARK    6  A    between atoms: P_17  and  O_18
REMARK    7  A    between atoms: P_17  and  O_19
REMARK                            x       y       z     vdW  Elec       q    Type
REMARK                         _______ _______ _______ _____ _____    ______ ____
ROOT
ATOM      1  C   UNL     1       8.168  -3.100  24.170  0.00  0.00    +0.200 C 
ENDROOT
BRANCH   1   2
ATOM      2  C   UNL     1       7.506  -3.944  23.085  0.00  0.00    -0.019 A 
ATOM      3  C   UNL     1       7.726  -5.326  22.986  0.00  0.00    +0.006 A 
ATOM      4  C   UNL     1       7.077  -6.092  22.016  0.00  0.00    +0.000 A 
ATOM      5  C   UNL     1       6.183  -5.488  21.136  0.00  0.00    +0.000 A 
ATOM      6  C   UNL     1       5.943  -4.120  21.220  0.00  0.00    +0.000 A 
ATOM      7  C   UNL     1       6.602  -3.347  22.184  0.00  0.00    +0.006 A 
ENDBRANCH   1   2
BRANCH   1   8
ATOM      8  N   UNL     1       9.602  -2.804  23.869  0.00  0.00    -0.296 NA
ATOM      9  H   UNL     1       9.937  -2.214  24.641  0.00  0.00    +0.123 HD
BRANCH   8  10
ATOM     10  C   UNL     1       9.764  -2.051  22.619  0.00  0.00    +0.117 C 
BRANCH  10  11
ATOM     11  C   UNL     1       9.955  -0.573  22.885  0.00  0.00    -0.034 A 
ATOM     12  C   UNL     1       9.785   0.366  21.857  0.00  0.00    +0.005 A 
ATOM     13  C   UNL     1       9.982   1.728  22.100  0.00  0.00    +0.000 A 
ATOM     14  C   UNL     1      10.356   2.165  23.370  0.00  0.00    +0.000 A 
ATOM     15  C   UNL     1      10.535   1.243  24.399  0.00  0.00    +0.000 A 
ATOM     16  C   UNL     1      10.343  -0.119  24.160  0.00  0.00    +0.005 A 
ENDBRANCH  10  11
ENDBRANCH   8  10
ENDBRANCH   1   8
BRANCH   1  17
ATOM     17  P   UNL     1       8.162  -3.973  25.778  0.00  0.00    +0.349 P 
ATOM     18  O   UNL     1       8.157  -4.713  27.139  0.00  0.00    -0.257 OA
BRANCH  17  19
ATOM     19  O   UNL     1       8.561  -2.541  26.511  0.00  0.00    -0.323 OA
ATOM     20  H   UNL     1       9.370  -2.512  27.048  0.00  0.00    +0.220 HD
ENDBRANCH  17  19
BRANCH  17  21
ATOM     21  O   UNL     1       9.719  -4.461  25.494  0.00  0.00    -0.323 OA
ATOM     22  H   UNL     1      10.173  -4.323  26.354  0.00  0.00    +0.220 HD
ENDBRANCH  17  21
ENDBRANCH   1  17
TORSDOF 7
ENDMDL
MODEL 3
REMARK VINA RESULT:      -6.1      3.297      4.146
REMARK  Name = 
REMARK  7 active torsions:
REMARK  status: ('A' for Active; 'I' for Inactive)
REMARK    1  A    between atoms: C_2  and  N_3
REMARK    2  A    between atoms: C_2  and  C_11
REMARK    3  A    between atoms: C_2  and  P_17
REMARK    4  A    between atoms: N_3  and  C_4
REMARK    5  A    between atoms: C_4  and  C_5
REMARK    6  A    between atoms: P_17  and  O_18
REMARK    7  A    between atoms: P_17  and  O_19
REMARK                            x       y       z     vdW  Elec       q    Type
REMARK                         _______ _______ _______ _____ _____    ______ ____
ROOT
ATOM      1  C   UNL     1       6.874  -3.940  25.845  0.00  0.00    +0.200 C 
ENDROOT
BRANCH   1   2
ATOM      2  C   UNL     1       6.614  -4.106  24.351  0.00  0.00    -0.019 A 
ATOM      3  C   UNL     1       5.673  -3.317  23.672  0.00  0.00    +0.006 A 
ATOM      4  C   UNL     1       5.480  -3.450  22.295  0.00  0.00    +0.000 A 
ATOM      5  C   UNL     1       6.239  -4.366  21.571  0.00  0.00    +0.000 A 
ATOM      6  C   UNL     1       7.183  -5.153  22.223  0.00  0.00    +0.000 A 
ATOM      7  C   UNL     1       7.370  -5.032  23.605  0.00  0.00    +0.006 A 
ENDBRANCH   1   2
BRANCH   1   8
ATOM      8  N   UNL     1       8.312  -3.669  26.149  0.00  0.00    -0.296 NA
ATOM      9  H   UNL     1       8.475  -4.034  27.095  0.00  0.00    +0.123 HD
BRANCH   8  10
ATOM     10  C   UNL     1       8.618  -2.233  26.158  0.00  0.00    +0.117 C 
BRANCH  10  11
ATOM     11  C   UNL     1       8.848  -1.707  24.758  0.00  0.00    -0.034 A 
ATOM     12  C   UNL     1       8.058  -0.669  24.244  0.00  0.00    +0.005 A 
ATOM     13  C   UNL     1       8.259  -0.200  22.943  0.00  0.00    +0.000 A 
ATOM     14  C   UNL     1       9.247  -0.767  22.140  0.00  0.00    +0.000 A 
ATOM     15  C   UNL     1      10.035  -1.804  22.634  0.00  0.00    +0.000 A 
ATOM     16  C   UNL     1       9.836  -2.279  23.931  0.00  0.00    +0.005 A 
ENDBRANCH  10  11
ENDBRANCH   8  10
ENDBRANCH   1   8
BRANCH   1  17
ATOM     17  P   UNL     1       6.446  -5.465  26.762  0.00  0.00    +0.349 P 
ATOM     18  O   UNL     1       6.083  -6.755  27.537  0.00  0.00    -0.257 OA
BRANCH  17  19
ATOM     19  O   UNL     1       6.325  -4.552  28.140  0.00  0.00    -0.323 OA
ATOM     20  H   UNL     1       7.083  -4.000  28.391  0.00  0.00    +0.220 HD
ENDBRANCH  17  19
BRANCH  17  21
ATOM     21  O   UNL     1       8.060  -5.798  26.917  0.00  0.00    -0.323 OA
ATOM     22  H   UNL     1       8.246  -6.423  26.180  0.00  0.00    +0.220 HD
ENDBRANCH  17  21
ENDBRANCH   1  17
TORSDOF 7
ENDMDL
MODEL 4
REMARK VINA RESULT:      -5.9      1.753      2.597
REMARK  Name = 
REMARK  7 active torsions:
REMARK  status: ('A' for Active; 'I' for Inactive)
REMARK    1  A    between atoms: C_2  and  N_3
REMARK    2  A    between atoms: C_2  and  C_11
REMARK    3  A    between atoms: C_2  and  P_17
REMARK    4  A    between atoms: N_3  and  C_4
REMARK    5  A    between atoms: C_4  and  C_5
REMARK    6  A    between atoms: P_17  and  O_18
REMARK    7  A    between atoms: P_17  and  O_19
REMARK                            x       y       z     vdW  Elec       q    Type
REMARK                         _______ _______ _______ _____ _____    ______ ____
ROOT
ATOM      1  C   UNL     1       7.914  -2.798  23.446  0.00  0.00    +0.200 C 
ENDROOT
BRANCH   1   2
ATOM      2  C   UNL     1       7.704  -1.773  24.558  0.00  0.00    -0.019 A 
ATOM      3  C   UNL     1       8.309  -1.913  25.816  0.00  0.00    +0.006 A 
ATOM      4  C   UNL     1       8.144  -0.943  26.807  0.00  0.00    +0.000 A 
ATOM      5  C   UNL     1       7.381   0.193  26.549  0.00  0.00    +0.000 A 
ATOM      6  C   UNL     1       6.778   0.356  25.306  0.00  0.00    +0.000 A 
ATOM      7  C   UNL     1       6.931  -0.621  24.315  0.00  0.00    +0.006 A 
ENDBRANCH   1   2
BRANCH   1   8
ATOM      8  N   UNL     1       8.670  -2.235  22.286  0.00  0.00    -0.296 NA
ATOM      9  H   UNL     1       8.744  -2.998  21.601  0.00  0.00    +0.123 HD
BRANCH   8  10
ATOM     10  C   UNL     1      10.030  -1.823  22.655  0.00  0.00    +0.117 C 
BRANCH  10  11
ATOM     11  C   UNL     1      10.127  -0.323  22.821  0.00  0.00    -0.034 A 
ATOM     12  C   UNL     1       9.735   0.539  21.787  0.00  0.00    +0.005 A 
ATOM     13  C   UNL     1       9.846   1.925  21.935  0.00  0.00    +0.000 A 
ATOM     14  C   UNL     1      10.354   2.463  23.116  0.00  0.00    +0.000 A 
ATOM     15  C   UNL     1      10.755   1.619  24.150  0.00  0.00    +0.000 A 
ATOM     16  C   UNL     1      10.650   0.235  24.005  0.00  0.00    +0.005 A 
ENDBRANCH  10  11
ENDBRANCH   8  10
ENDBRANCH   1   8
BRANCH   1  17
ATOM     17  P   UNL     1       6.313  -3.374  22.771  0.00  0.00    +0.349 P 
ATOM     18  O   UNL     1       4.959  -3.862  22.200  0.00  0.00    -0.257 OA
BRANCH  17  19
ATOM     19  O   UNL     1       6.095  -4.258  24.157  0.00  0.00    -0.323 OA
ATOM     20  H   UNL     1       6.659  -4.056  24.921  0.00  0.00    +0.220 HD
ENDBRANCH  17  19
BRANCH  17  21
ATOM     21  O   UNL     1       7.117  -4.558  21.937  0.00  0.00    -0.323 OA
ATOM     22  H   UNL     1       7.591  -4.070  21.227  0.00  0.00    +0.220 HD
ENDBRANCH  17  21
ENDBRANCH   1  17
TORSDOF 7
ENDMDL
MODEL 5
REMARK VINA RESULT:      -5.9      3.022      3.804
REMARK  Name = 
REMARK  7 active torsions:
REMARK  status: ('A' for Active; 'I' for Inactive)
REMARK    1  A    between atoms: C_2  and  N_3
REMARK    2  A    between atoms: C_2  and  C_11
REMARK    3  A    between atoms: C_2  and  P_17
REMARK    4  A    between atoms: N_3  and  C_4
REMARK    5  A    between atoms: C_4  and  C_5
REMARK    6  A    between atoms: P_17  and  O_18
REMARK    7  A    between atoms: P_17  and  O_19
REMARK                            x       y       z     vdW  Elec       q    Type
REMARK                         _______ _______ _______ _____ _____    ______ ____
ROOT
ATOM      1  C   UNL     1       9.209  -2.887  25.064  0.00  0.00    +0.200 C 
ENDROOT
BRANCH   1   2
ATOM      2  C   UNL     1       8.240  -1.764  25.419  0.00  0.00    -0.019 A 
ATOM      3  C   UNL     1       8.461  -0.914  26.513  0.00  0.00    +0.006 A 
ATOM      4  C   UNL     1       7.588   0.138  26.797  0.00  0.00    +0.000 A 
ATOM      5  C   UNL     1       6.485   0.368  25.980  0.00  0.00    +0.000 A 
ATOM      6  C   UNL     1       6.250  -0.458  24.884  0.00  0.00    +0.000 A 
ATOM      7  C   UNL     1       7.116  -1.522  24.605  0.00  0.00    +0.006 A 
ENDBRANCH   1   2
BRANCH   1   8
ATOM      8  N   UNL     1       9.484  -2.963  23.597  0.00  0.00    -0.296 NA
ATOM      9  H   UNL     1       9.713  -3.946  23.403  0.00  0.00    +0.123 HD
BRANCH   8  10
ATOM     10  C   UNL     1      10.638  -2.143  23.204  0.00  0.00    +0.117 C 
BRANCH  10  11
ATOM     11  C   UNL     1      10.220  -0.731  22.856  0.00  0.00    -0.034 A 
ATOM     12  C   UNL     1      10.578   0.345  23.681  0.00  0.00    +0.005 A 
ATOM     13  C   UNL     1      10.173   1.646  23.369  0.00  0.00    +0.000 A 
ATOM     14  C   UNL     1       9.400   1.884  22.233  0.00  0.00    +0.000 A 
ATOM     15  C   UNL     1       9.030   0.824  21.408  0.00  0.00    +0.000 A 
ATOM     16  C   UNL     1       9.429  -0.477  21.718  0.00  0.00    +0.005 A 
ENDBRANCH  10  11
ENDBRANCH   8  10
ENDBRANCH   1   8
BRANCH   1  17
ATOM     17  P   UNL     1       8.526  -4.519  25.532  0.00  0.00    +0.349 P 
ATOM     18  O   UNL     1       7.947  -5.900  25.927  0.00  0.00    -0.257 OA
BRANCH  17  19
ATOM     19  O   UNL     1       9.230  -4.341  27.022  0.00  0.00    -0.323 OA
ATOM     20  H   UNL     1       8.748  -3.836  27.697  0.00  0.00    +0.220 HD
ENDBRANCH  17  19
BRANCH  17  21
ATOM     21  O   UNL     1       9.828  -5.246  24.811  0.00  0.00    -0.323 OA
ATOM     22  H   UNL     1      10.569  -4.621  24.972  0.00  0.00    +0.220 HD
ENDBRANCH  17  21
ENDBRANCH   1  17
TORSDOF 7
ENDMDL
MODEL 6
REMARK VINA RESULT:      -5.8      3.175      5.455
REMARK  Name = 
REMARK  7 active torsions:
REMARK  status: ('A' for Active; 'I' for Inactive)
REMARK    1  A    between atoms: C_2  and  N_3
REMARK    2  A    between atoms: C_2  and  C_11
REMARK    3  A    between atoms: C_2  and  P_17
REMARK    4  A    between atoms: N_3  and  C_4
REMARK    5  A    between atoms: C_4  and  C_5
REMARK    6  A    between atoms: P_17  and  O_18
REMARK    7  A    between atoms: P_17  and  O_19
REMARK                            x       y       z     vdW  Elec       q    Type
REMARK                         _______ _______ _______ _____ _____    ______ ____
ROOT
ATOM      1  C   UNL     1       8.763  -1.755  23.647  0.00  0.00    +0.200 C 
ENDROOT
BRANCH   1   2
ATOM      2  C   UNL     1       7.726  -2.754  23.141  0.00  0.00    -0.019 A 
ATOM      3  C   UNL     1       7.997  -4.129  23.074  0.00  0.00    +0.006 A 
ATOM      4  C   UNL     1       7.022  -5.036  22.652  0.00  0.00    +0.000 A 
ATOM      5  C   UNL     1       5.752  -4.582  22.305  0.00  0.00    +0.000 A 
ATOM      6  C   UNL     1       5.460  -3.223  22.372  0.00  0.00    +0.000 A 
ATOM      7  C   UNL     1       6.438  -2.310  22.782  0.00  0.00    +0.006 A 
ENDBRANCH   1   2
BRANCH   1   8
ATOM      8  N   UNL     1       8.281  -0.984  24.834  0.00  0.00    -0.296 NA
ATOM      9  H   UNL     1       8.705  -0.051  24.756  0.00  0.00    +0.123 HD
BRANCH   8  10
ATOM     10  C   UNL     1       8.726  -1.578  26.102  0.00  0.00    +0.117 C 
BRANCH  10  11
ATOM     11  C   UNL     1       7.960  -2.845  26.416  0.00  0.00    -0.034 A 
ATOM     12  C   UNL     1       8.631  -4.067  26.572  0.00  0.00    +0.005 A 
ATOM     13  C   UNL     1       7.919  -5.239  26.842  0.00  0.00    +0.000 A 
ATOM     14  C   UNL     1       6.530  -5.204  26.953  0.00  0.00    +0.000 A 
ATOM     15  C   UNL     1       5.849  -3.999  26.794  0.00  0.00    +0.000 A 
ATOM     16  C   UNL     1       6.556  -2.826  26.521  0.00  0.00    +0.005 A 
ENDBRANCH  10  11
ENDBRANCH   8  10
ENDBRANCH   1   8
BRANCH   1  17
ATOM     17  P   UNL     1       9.157  -0.509  22.366  0.00  0.00    +0.349 P 
ATOM     18  O   UNL     1       9.490   0.545  21.281  0.00  0.00    -0.257 OA
BRANCH  17  19
ATOM     19  O   UNL     1      10.022  -1.672  21.561  0.00  0.00    -0.323 OA
ATOM     20  H   UNL     1      10.990  -1.647  21.625  0.00  0.00    +0.220 HD
ENDBRANCH  17  19
BRANCH  17  21
ATOM     21  O   UNL     1      10.414   0.024  23.302  0.00  0.00    -0.323 OA
ATOM     22  H   UNL     1      10.965  -0.778  23.441  0.00  0.00    +0.220 HD
ENDBRANCH  17  21
ENDBRANCH   1  17
TORSDOF 7
ENDMDL
MODEL 7
REMARK VINA RESULT:      -5.7      3.946      5.664
REMARK  Name = 
REMARK  7 active torsions:
REMARK  status: ('A' for Active; 'I' for Inactive)
REMARK    1  A    between atoms: C_2  and  N_3
REMARK    2  A    between atoms: C_2  and  C_11
REMARK    3  A    between atoms: C_2  and  P_17
REMARK    4  A    between atoms: N_3  and  C_4
REMARK    5  A    between atoms: C_4  and  C_5
REMARK    6  A    between atoms: P_17  and  O_18
REMARK    7  A    between atoms: P_17  and  O_19
REMARK                            x       y       z     vdW  Elec       q    Type
REMARK                         _______ _______ _______ _____ _____    ______ ____
ROOT
ATOM      1  C   UNL     1       8.981   1.062  22.879  0.00  0.00    +0.200 C 
ENDROOT
BRANCH   1   2
ATOM      2  C   UNL     1       8.062   0.643  24.023  0.00  0.00    -0.019 A 
ATOM      3  C   UNL     1       6.694   0.406  23.823  0.00  0.00    +0.006 A 
ATOM      4  C   UNL     1       5.875  -0.022  24.870  0.00  0.00    +0.000 A 
ATOM      5  C   UNL     1       6.417  -0.236  26.134  0.00  0.00    +0.000 A 
ATOM      6  C   UNL     1       7.773  -0.015  26.354  0.00  0.00    +0.000 A 
ATOM      7  C   UNL     1       8.594   0.427  25.309  0.00  0.00    +0.006 A 
ENDBRANCH   1   2
BRANCH   1   8
ATOM      8  N   UNL     1      10.105   0.100  22.667  0.00  0.00    -0.296 NA
ATOM      9  H   UNL     1      10.822   0.615  22.140  0.00  0.00    +0.123 HD
BRANCH   8  10
ATOM     10  C   UNL     1       9.700  -1.062  21.865  0.00  0.00    +0.117 C 
BRANCH  10  11
ATOM     11  C   UNL     1       9.137  -2.164  22.735  0.00  0.00    -0.034 A 
ATOM     12  C   UNL     1       9.852  -2.634  23.847  0.00  0.00    +0.005 A 
ATOM     13  C   UNL     1       9.339  -3.667  24.637  0.00  0.00    +0.000 A 
ATOM     14  C   UNL     1       8.111  -4.246  24.321  0.00  0.00    +0.000 A 
ATOM     15  C   UNL     1       7.393  -3.795  23.215  0.00  0.00    +0.000 A 
ATOM     16  C   UNL     1       7.902  -2.766  22.421  0.00  0.00    +0.005 A 
ENDBRANCH  10  11
ENDBRANCH   8  10
ENDBRANCH   1   8
BRANCH   1  17
ATOM     17  P   UNL     1       9.763   2.680  23.223  0.00  0.00    +0.349 P 
ATOM     18  O   UNL     1      10.426   4.049  23.515  0.00  0.00    -0.257 OA
BRANCH  17  19
ATOM     19  O   UNL     1       8.415   3.418  22.603  0.00  0.00    -0.323 OA
ATOM     20  H   UNL     1       8.179   4.298  22.939  0.00  0.00    +0.220 HD
ENDBRANCH  17  19
BRANCH  17  21
ATOM     21  O   UNL     1      10.576   2.568  21.785  0.00  0.00    -0.323 OA
ATOM     22  H   UNL     1      11.523   2.645  22.039  0.00  0.00    +0.220 HD
ENDBRANCH  17  21
ENDBRANCH   1  17
TORSDOF 7
ENDMDL
MODEL 8
REMARK VINA RESULT:      -5.6      2.978      6.018
REMARK  Name = 
REMARK  7 active torsions:
REMARK  status: ('A' for Active; 'I' for Inactive)
REMARK    1  A    between atoms: C_2  and  N_3
REMARK    2  A    between atoms: C_2  and  C_11
REMARK    3  A    between atoms: C_2  and  P_17
REMARK    4  A    between atoms: N_3  and  C_4
REMARK    5  A    between atoms: C_4  and  C_5
REMARK    6  A    between atoms: P_17  and  O_18
REMARK    7  A    between atoms: P_17  and  O_19
REMARK                            x       y       z     vdW  Elec       q    Type
REMARK                         _______ _______ _______ _____ _____    ______ ____
ROOT
ATOM      1  C   UNL     1       8.760  -1.032  25.172  0.00  0.00    +0.200 C 
ENDROOT
BRANCH   1   2
ATOM      2  C   UNL     1       9.201  -0.014  24.124  0.00  0.00    -0.019 A 
ATOM      3  C   UNL     1       9.977   1.105  24.462  0.00  0.00    +0.006 A 
ATOM      4  C   UNL     1      10.411   2.003  23.484  0.00  0.00    +0.000 A 
ATOM      5  C   UNL     1      10.088   1.787  22.147  0.00  0.00    +0.000 A 
ATOM      6  C   UNL     1       9.326   0.679  21.789  0.00  0.00    +0.000 A 
ATOM      7  C   UNL     1       8.878  -0.216  22.768  0.00  0.00    +0.006 A 
ENDBRANCH   1   2
BRANCH   1   8
ATOM      8  N   UNL     1       7.797  -2.035  24.624  0.00  0.00    -0.296 NA
ATOM      9  H   UNL     1       7.138  -2.239  25.385  0.00  0.00    +0.123 HD
BRANCH   8  10
ATOM     10  C   UNL     1       8.457  -3.292  24.247  0.00  0.00    +0.117 C 
BRANCH  10  11
ATOM     11  C   UNL     1       7.673  -4.032  23.185  0.00  0.00    -0.034 A 
ATOM     12  C   UNL     1       6.826  -3.338  22.308  0.00  0.00    +0.005 A 
ATOM     13  C   UNL     1       6.087  -4.026  21.341  0.00  0.00    +0.000 A 
ATOM     14  C   UNL     1       6.181  -5.413  21.245  0.00  0.00    +0.000 A 
ATOM     15  C   UNL     1       7.012  -6.117  22.114  0.00  0.00    +0.000 A 
ATOM     16  C   UNL     1       7.750  -5.434  23.084  0.00  0.00    +0.005 A 
ENDBRANCH  10  11
ENDBRANCH   8  10
ENDBRANCH   1   8
BRANCH   1  17
ATOM     17  P   UNL     1       7.896  -0.214  26.562  0.00  0.00    +0.349 P 
ATOM     18  O   UNL     1       7.165   0.478  27.738  0.00  0.00    -0.257 OA
BRANCH  17  19
ATOM     19  O   UNL     1       9.208  -0.549  27.519  0.00  0.00    -0.323 OA
ATOM     20  H   UNL     1       9.781  -1.291  27.266  0.00  0.00    +0.220 HD
ENDBRANCH  17  19
BRANCH  17  21
ATOM     21  O   UNL     1       7.094  -1.630  26.868  0.00  0.00    -0.323 OA
ATOM     22  H   UNL     1       7.298  -1.822  27.810  0.00  0.00    +0.220 HD
ENDBRANCH  17  21
ENDBRANCH   1  17
TORSDOF 7
ENDMDL
MODEL 9
REMARK VINA RESULT:      -5.6      3.246      4.213
REMARK  Name = 
REMARK  7 active torsions:
REMARK  status: ('A' for Active; 'I' for Inactive)
REMARK    1  A    between atoms: C_2  and  N_3
REMARK    2  A    between atoms: C_2  and  C_11
REMARK    3  A    between atoms: C_2  and  P_17
REMARK    4  A    between atoms: N_3  and  C_4
REMARK    5  A    between atoms: C_4  and  C_5
REMARK    6  A    between atoms: P_17  and  O_18
REMARK    7  A    between atoms: P_17  and  O_19
REMARK                            x       y       z     vdW  Elec       q    Type
REMARK                         _______ _______ _______ _____ _____    ______ ____
ROOT
ATOM      1  C   UNL     1       7.020  -4.414  25.425  0.00  0.00    +0.200 C 
ENDROOT
BRANCH   1   2
ATOM      2  C   UNL     1       6.619  -4.935  24.048  0.00  0.00    -0.019 A 
ATOM      3  C   UNL     1       7.574  -5.261  23.074  0.00  0.00    +0.006 A 
ATOM      4  C   UNL     1       7.194  -5.780  21.835  0.00  0.00    +0.000 A 
ATOM      5  C   UNL     1       5.847  -5.996  21.555  0.00  0.00    +0.000 A 
ATOM      6  C   UNL     1       4.882  -5.687  22.509  0.00  0.00    +0.000 A 
ATOM      7  C   UNL     1       5.260  -5.154  23.747  0.00  0.00    +0.006 A 
ENDBRANCH   1   2
BRANCH   1   8
ATOM      8  N   UNL     1       6.898  -2.928  25.532  0.00  0.00    -0.296 NA
ATOM      9  H   UNL     1       5.987  -2.750  25.973  0.00  0.00    +0.123 HD
BRANCH   8  10
ATOM     10  C   UNL     1       6.900  -2.274  24.217  0.00  0.00    +0.117 C 
BRANCH  10  11
ATOM     11  C   UNL     1       8.198  -1.537  23.969  0.00  0.00    -0.034 A 
ATOM     12  C   UNL     1       8.712  -0.650  24.925  0.00  0.00    +0.005 A 
ATOM     13  C   UNL     1       9.901   0.046  24.684  0.00  0.00    +0.000 A 
ATOM     14  C   UNL     1      10.585  -0.134  23.483  0.00  0.00    +0.000 A 
ATOM     15  C   UNL     1      10.083  -1.007  22.520  0.00  0.00    +0.000 A 
ATOM     16  C   UNL     1       8.894  -1.701  22.755  0.00  0.00    +0.005 A 
ENDBRANCH  10  11
ENDBRANCH   8  10
ENDBRANCH   1   8
BRANCH   1  17
ATOM     17  P   UNL     1       8.770  -4.802  25.792  0.00  0.00    +0.349 P 
ATOM     18  O   UNL     1      10.251  -5.130  26.102  0.00  0.00    -0.257 OA
BRANCH  17  19
ATOM     19  O   UNL     1       8.248  -6.014  26.795  0.00  0.00    -0.323 OA
ATOM     20  H   UNL     1       8.768  -6.833  26.831  0.00  0.00    +0.220 HD
ENDBRANCH  17  19
BRANCH  17  21
ATOM     21  O   UNL     1       8.769  -3.612  26.944  0.00  0.00    -0.323 OA
ATOM     22  H   UNL     1       9.455  -3.902  27.586  0.00  0.00    +0.220 HD
ENDBRANCH  17  21
ENDBRANCH   1  17
TORSDOF 7
ENDMDL
