MODEL 1
REMARK VINA RESULT:      -8.4      0.000      0.000
REMARK  Name = 
REMARK  4 active torsions:
REMARK  status: ('A' for Active; 'I' for Inactive)
REMARK    1  A    between atoms: C_7  and  S_9
REMARK    2  A    between atoms: S_9  and  N_12
REMARK    3  A    between atoms: C_18  and  C_20
REMARK    4  A    between atoms: C_23  and  C_26
REMARK                            x       y       z     vdW  Elec       q    Type
REMARK                         _______ _______ _______ _____ _____    ______ ____
ROOT
ATOM      1  N   UNL     1       9.129  -0.773  23.322  0.00  0.00    -0.172 NA
ATOM      2  C   UNL     1       7.699  -1.176  23.441  0.00  0.00    +0.128 C 
ATOM      3  C   UNL     1       7.451  -2.360  24.397  0.00  0.00    +0.125 C 
ATOM      4  N   UNL     1       8.430  -3.449  24.265  0.00  0.00    -0.292 N 
ATOM      5  C   UNL     1       8.185  -4.829  24.408  0.00  0.00    +0.284 C 
ATOM      6  O   UNL     1       9.110  -5.648  24.337  0.00  0.00    -0.267 OA
ATOM      7  C   UNL     1       9.825  -3.013  24.199  0.00  0.00    +0.125 C 
ATOM      8  C   UNL     1      10.012  -1.956  23.112  0.00  0.00    +0.128 C 
ENDROOT
BRANCH   5   9
ATOM      9  C   UNL     1       6.785  -5.361  24.597  0.00  0.00    +0.216 A 
ATOM     10  N   UNL     1       6.022  -5.591  23.513  0.00  0.00    -0.231 NA
ATOM     11  C   UNL     1       4.820  -6.161  23.750  0.00  0.00    +0.123 A 
ATOM     12  C   UNL     1       4.333  -6.514  25.001  0.00  0.00    +0.018 A 
ATOM     13  C   UNL     1       5.194  -6.174  26.033  0.00  0.00    +0.123 A 
ATOM     14  N   UNL     1       6.408  -5.608  25.869  0.00  0.00    -0.231 NA
BRANCH  12  15
ATOM     15  C   UNL     1       3.051  -7.206  25.206  0.00  0.00    -0.012 A 
ATOM     16  C   UNL     1       2.462  -7.970  24.184  0.00  0.00    +0.028 A 
ATOM     17  C   UNL     1       1.261  -8.623  24.421  0.00  0.00    +0.111 A 
ATOM     18  N   UNL     1       0.605  -8.579  25.596  0.00  0.00    -0.263 NA
ATOM     19  C   UNL     1       1.172  -7.849  26.576  0.00  0.00    +0.111 A 
ATOM     20  C   UNL     1       2.368  -7.158  26.432  0.00  0.00    +0.028 A 
ENDBRANCH  12  15
ENDBRANCH   5   9
BRANCH   1  21
ATOM     21  S   UNL     1       9.664   0.431  24.384  0.00  0.00    +0.076 S 
ATOM     22  O   UNL     1       8.859   0.370  25.581  0.00  0.00    -0.151 OA
ATOM     23  O   UNL     1      11.107   0.423  24.419  0.00  0.00    -0.151 OA
BRANCH  21  31
ATOM     24 CL   UNL     1       6.206   7.108  21.739  0.00  0.00    -0.084 Cl
ATOM     25  C   UNL     1       7.349   6.001  22.401  0.00  0.00    +0.042 A 
ATOM     26  C   UNL     1       8.353   6.473  23.245  0.00  0.00    +0.022 A 
ATOM     27  C   UNL     1       9.280   5.595  23.817  0.00  0.00    +0.027 A 
ATOM     28  C   UNL     1       9.130   4.230  23.543  0.00  0.00    +0.048 A 
ATOM     29  N   UNL     1       9.840   3.141  24.000  0.00  0.00    -0.339 N 
ATOM     30  H   UNL     1      10.642   3.181  24.618  0.00  0.00    +0.167 HD
ATOM     31  C   UNL     1       9.214   1.971  23.635  0.00  0.00    +0.173 A 
ATOM     32  C   UNL     1       8.243   2.320  22.711  0.00  0.00    +0.057 A 
ATOM     33  C   UNL     1       8.131   3.737  22.705  0.00  0.00    +0.003 A 
ATOM     34  C   UNL     1       7.236   4.641  22.101  0.00  0.00    +0.030 A 
ENDBRANCH  21  31
ENDBRANCH   1  21
TORSDOF 4
ENDMDL
MODEL 2
REMARK VINA RESULT:      -8.1      1.890      2.467
REMARK  Name = 
REMARK  4 active torsions:
REMARK  status: ('A' for Active; 'I' for Inactive)
REMARK    1  A    between atoms: C_7  and  S_9
REMARK    2  A    between atoms: S_9  and  N_12
REMARK    3  A    between atoms: C_18  and  C_20
REMARK    4  A    between atoms: C_23  and  C_26
REMARK                            x       y       z     vdW  Elec       q    Type
REMARK                         _______ _______ _______ _____ _____    ______ ____
ROOT
ATOM      1  N   UNL     1       8.679  -0.473  22.644  0.00  0.00    -0.172 NA
ATOM      2  C   UNL     1       7.477  -1.006  23.345  0.00  0.00    +0.128 C 
ATOM      3  C   UNL     1       7.796  -1.912  24.551  0.00  0.00    +0.125 C 
ATOM      4  N   UNL     1       8.891  -2.864  24.310  0.00  0.00    -0.292 N 
ATOM      5  C   UNL     1       8.999  -4.174  24.817  0.00  0.00    +0.284 C 
ATOM      6  O   UNL     1      10.006  -4.859  24.594  0.00  0.00    -0.267 OA
ATOM      7  C   UNL     1      10.070  -2.288  23.664  0.00  0.00    +0.125 C 
ATOM      8  C   UNL     1       9.681  -1.547  22.386  0.00  0.00    +0.128 C 
ENDROOT
BRANCH   5   9
ATOM      9  C   UNL     1       7.874  -4.809  25.596  0.00  0.00    +0.216 A 
ATOM     10  N   UNL     1       7.952  -4.850  26.939  0.00  0.00    -0.231 NA
ATOM     11  C   UNL     1       6.866  -5.340  27.576  0.00  0.00    +0.123 A 
ATOM     12  C   UNL     1       5.708  -5.791  26.956  0.00  0.00    +0.018 A 
ATOM     13  C   UNL     1       5.781  -5.743  25.572  0.00  0.00    +0.123 A 
ATOM     14  N   UNL     1       6.830  -5.264  24.873  0.00  0.00    -0.231 NA
BRANCH  12  15
ATOM     15  C   UNL     1       4.517  -6.243  27.694  0.00  0.00    -0.012 A 
ATOM     16  C   UNL     1       3.253  -6.287  27.082  0.00  0.00    +0.028 A 
ATOM     17  C   UNL     1       2.157  -6.736  27.804  0.00  0.00    +0.111 A 
ATOM     18  N   UNL     1       2.223  -7.150  29.083  0.00  0.00    -0.263 NA
ATOM     19  C   UNL     1       3.436  -7.110  29.667  0.00  0.00    +0.111 A 
ATOM     20  C   UNL     1       4.588  -6.672  29.028  0.00  0.00    +0.028 A 
ENDBRANCH  12  15
ENDBRANCH   5   9
BRANCH   1  21
ATOM     21  S   UNL     1       9.254   1.030  23.170  0.00  0.00    +0.076 S 
ATOM     22  O   UNL     1       9.271   1.028  24.614  0.00  0.00    -0.151 OA
ATOM     23  O   UNL     1      10.406   1.397  22.382  0.00  0.00    -0.151 OA
BRANCH  21  31
ATOM     24 CL   UNL     1       3.207   6.214  22.860  0.00  0.00    -0.084 Cl
ATOM     25  C   UNL     1       4.743   5.466  22.632  0.00  0.00    +0.042 A 
ATOM     26  C   UNL     1       5.856   6.255  22.349  0.00  0.00    +0.022 A 
ATOM     27  C   UNL     1       7.121   5.678  22.183  0.00  0.00    +0.027 A 
ATOM     28  C   UNL     1       7.225   4.293  22.358  0.00  0.00    +0.048 A 
ATOM     29  N   UNL     1       8.326   3.466  22.316  0.00  0.00    -0.339 N 
ATOM     30  H   UNL     1       9.274   3.760  22.112  0.00  0.00    +0.167 HD
ATOM     31  C   UNL     1       7.995   2.203  22.750  0.00  0.00    +0.173 A 
ATOM     32  C   UNL     1       6.612   2.162  22.813  0.00  0.00    +0.057 A 
ATOM     33  C   UNL     1       6.125   3.486  22.644  0.00  0.00    +0.003 A 
ATOM     34  C   UNL     1       4.853   4.078  22.760  0.00  0.00    +0.030 A 
ENDBRANCH  21  31
ENDBRANCH   1  21
TORSDOF 4
ENDMDL
MODEL 3
REMARK VINA RESULT:      -8.1      4.056     10.752
REMARK  Name = 
REMARK  4 active torsions:
REMARK  status: ('A' for Active; 'I' for Inactive)
REMARK    1  A    between atoms: C_7  and  S_9
REMARK    2  A    between atoms: S_9  and  N_12
REMARK    3  A    between atoms: C_18  and  C_20
REMARK    4  A    between atoms: C_23  and  C_26
REMARK                            x       y       z     vdW  Elec       q    Type
REMARK                         _______ _______ _______ _____ _____    ______ ____
ROOT
ATOM      1  N   UNL     1       6.467  -4.032  22.267  0.00  0.00    -0.172 NA
ATOM      2  C   UNL     1       7.541  -3.046  21.956  0.00  0.00    +0.128 C 
ATOM      3  C   UNL     1       7.812  -2.028  23.082  0.00  0.00    +0.125 C 
ATOM      4  N   UNL     1       6.595  -1.495  23.711  0.00  0.00    -0.292 N 
ATOM      5  C   UNL     1       6.400  -0.190  24.206  0.00  0.00    +0.284 C 
ATOM      6  O   UNL     1       5.346   0.121  24.775  0.00  0.00    -0.267 OA
ATOM      7  C   UNL     1       5.587  -2.502  24.043  0.00  0.00    +0.125 C 
ATOM      8  C   UNL     1       5.257  -3.362  22.824  0.00  0.00    +0.128 C 
ENDROOT
BRANCH   5   9
ATOM      9  C   UNL     1       7.439   0.886  24.009  0.00  0.00    +0.216 A 
ATOM     10  N   UNL     1       7.129   1.968  23.274  0.00  0.00    -0.231 NA
ATOM     11  C   UNL     1       8.071   2.936  23.223  0.00  0.00    +0.123 A 
ATOM     12  C   UNL     1       9.302   2.889  23.863  0.00  0.00    +0.018 A 
ATOM     13  C   UNL     1       9.516   1.699  24.541  0.00  0.00    +0.123 A 
ATOM     14  N   UNL     1       8.620   0.695  24.635  0.00  0.00    -0.231 NA
BRANCH  12  15
ATOM     15  C   UNL     1      10.266   4.001  23.847  0.00  0.00    -0.012 A 
ATOM     16  C   UNL     1      11.561   3.838  23.324  0.00  0.00    +0.028 A 
ATOM     17  C   UNL     1      12.435   4.915  23.310  0.00  0.00    +0.111 A 
ATOM     18  N   UNL     1      12.119   6.141  23.768  0.00  0.00    -0.263 NA
ATOM     19  C   UNL     1      10.877   6.297  24.266  0.00  0.00    +0.111 A 
ATOM     20  C   UNL     1       9.935   5.278  24.327  0.00  0.00    +0.028 A 
ENDBRANCH  12  15
ENDBRANCH   5   9
BRANCH   1  21
ATOM     21  S   UNL     1       6.962  -5.485  22.980  0.00  0.00    +0.076 S 
ATOM     22  O   UNL     1       6.415  -6.577  22.208  0.00  0.00    -0.151 OA
ATOM     23  O   UNL     1       8.364  -5.396  23.312  0.00  0.00    -0.151 OA
BRANCH  21  31
ATOM     24 CL   UNL     1       3.112  -7.504  29.661  0.00  0.00    -0.084 Cl
ATOM     25  C   UNL     1       4.210  -6.766  28.557  0.00  0.00    +0.042 A 
ATOM     26  C   UNL     1       5.426  -6.272  29.025  0.00  0.00    +0.022 A 
ATOM     27  C   UNL     1       6.349  -5.689  28.148  0.00  0.00    +0.027 A 
ATOM     28  C   UNL     1       6.019  -5.665  26.788  0.00  0.00    +0.048 A 
ATOM     29  N   UNL     1       6.736  -5.218  25.700  0.00  0.00    -0.339 N 
ATOM     30  H   UNL     1       7.654  -4.789  25.739  0.00  0.00    +0.167 HD
ATOM     31  C   UNL     1       6.110  -5.578  24.529  0.00  0.00    +0.173 A 
ATOM     32  C   UNL     1       4.848  -6.026  24.884  0.00  0.00    +0.057 A 
ATOM     33  C   UNL     1       4.809  -6.156  26.298  0.00  0.00    +0.003 A 
ATOM     34  C   UNL     1       3.874  -6.696  27.202  0.00  0.00    +0.030 A 
ENDBRANCH  21  31
ENDBRANCH   1  21
TORSDOF 4
ENDMDL
MODEL 4
REMARK VINA RESULT:      -8.1      3.735     10.974
REMARK  Name = 
REMARK  4 active torsions:
REMARK  status: ('A' for Active; 'I' for Inactive)
REMARK    1  A    between atoms: C_7  and  S_9
REMARK    2  A    between atoms: S_9  and  N_12
REMARK    3  A    between atoms: C_18  and  C_20
REMARK    4  A    between atoms: C_23  and  C_26
REMARK                            x       y       z     vdW  Elec       q    Type
REMARK                         _______ _______ _______ _____ _____    ______ ____
ROOT
ATOM      1  N   UNL     1       6.468  -4.016  22.262  0.00  0.00    -0.172 NA
ATOM      2  C   UNL     1       7.536  -3.029  21.937  0.00  0.00    +0.128 C 
ATOM      3  C   UNL     1       7.821  -2.010  23.060  0.00  0.00    +0.125 C 
ATOM      4  N   UNL     1       6.610  -1.479  23.705  0.00  0.00    -0.292 N 
ATOM      5  C   UNL     1       6.420  -0.174  24.201  0.00  0.00    +0.284 C 
ATOM      6  O   UNL     1       5.374   0.136  24.784  0.00  0.00    -0.267 OA
ATOM      7  C   UNL     1       5.609  -2.487  24.049  0.00  0.00    +0.125 C 
ATOM      8  C   UNL     1       5.264  -3.348  22.835  0.00  0.00    +0.128 C 
ENDROOT
BRANCH   5   9
ATOM      9  C   UNL     1       7.456   0.903  23.992  0.00  0.00    +0.216 A 
ATOM     10  N   UNL     1       7.135   1.984  23.259  0.00  0.00    -0.231 NA
ATOM     11  C   UNL     1       8.074   2.953  23.196  0.00  0.00    +0.123 A 
ATOM     12  C   UNL     1       9.314   2.909  23.821  0.00  0.00    +0.018 A 
ATOM     13  C   UNL     1       9.537   1.719  24.498  0.00  0.00    +0.123 A 
ATOM     14  N   UNL     1       8.644   0.714  24.603  0.00  0.00    -0.231 NA
BRANCH  12  15
ATOM     15  C   UNL     1      10.276   4.022  23.792  0.00  0.00    -0.012 A 
ATOM     16  C   UNL     1       9.914   5.311  24.221  0.00  0.00    +0.028 A 
ATOM     17  C   UNL     1      10.854   6.330  24.196  0.00  0.00    +0.111 A 
ATOM     18  N   UNL     1      12.125   6.166  23.786  0.00  0.00    -0.263 NA
ATOM     19  C   UNL     1      12.472   4.930  23.379  0.00  0.00    +0.111 A 
ATOM     20  C   UNL     1      11.601   3.849  23.362  0.00  0.00    +0.028 A 
ENDBRANCH  12  15
ENDBRANCH   5   9
BRANCH   1  21
ATOM     21  S   UNL     1       6.973  -5.469  22.968  0.00  0.00    +0.076 S 
ATOM     22  O   UNL     1       7.143  -6.447  21.920  0.00  0.00    -0.151 OA
ATOM     23  O   UNL     1       8.002  -5.188  23.941  0.00  0.00    -0.151 OA
BRANCH  21  31
ATOM     24 CL   UNL     1       0.443  -6.560  27.408  0.00  0.00    -0.084 Cl
ATOM     25  C   UNL     1       1.618  -6.692  26.154  0.00  0.00    +0.042 A 
ATOM     26  C   UNL     1       1.233  -7.158  24.899  0.00  0.00    +0.022 A 
ATOM     27  C   UNL     1       2.160  -7.253  23.854  0.00  0.00    +0.027 A 
ATOM     28  C   UNL     1       3.467  -6.821  24.110  0.00  0.00    +0.048 A 
ATOM     29  N   UNL     1       4.562  -6.741  23.279  0.00  0.00    -0.339 N 
ATOM     30  H   UNL     1       4.585  -7.029  22.308  0.00  0.00    +0.167 HD
ATOM     31  C   UNL     1       5.588  -6.062  23.898  0.00  0.00    +0.173 A 
ATOM     32  C   UNL     1       5.228  -5.946  25.231  0.00  0.00    +0.057 A 
ATOM     33  C   UNL     1       3.872  -6.348  25.358  0.00  0.00    +0.003 A 
ATOM     34  C   UNL     1       2.937  -6.304  26.409  0.00  0.00    +0.030 A 
ENDBRANCH  21  31
ENDBRANCH   1  21
TORSDOF 4
ENDMDL
MODEL 5
REMARK VINA RESULT:      -7.9      3.859     10.554
REMARK  Name = 
REMARK  4 active torsions:
REMARK  status: ('A' for Active; 'I' for Inactive)
REMARK    1  A    between atoms: C_7  and  S_9
REMARK    2  A    between atoms: S_9  and  N_12
REMARK    3  A    between atoms: C_18  and  C_20
REMARK    4  A    between atoms: C_23  and  C_26
REMARK                            x       y       z     vdW  Elec       q    Type
REMARK                         _______ _______ _______ _____ _____    ______ ____
ROOT
ATOM      1  N   UNL     1       7.726  -4.781  26.357  0.00  0.00    -0.172 NA
ATOM      2  C   UNL     1       8.322  -3.460  26.705  0.00  0.00    +0.128 C 
ATOM      3  C   UNL     1       7.893  -2.307  25.776  0.00  0.00    +0.125 C 
ATOM      4  N   UNL     1       7.878  -2.664  24.349  0.00  0.00    -0.292 N 
ATOM      5  C   UNL     1       8.208  -1.828  23.264  0.00  0.00    +0.284 C 
ATOM      6  O   UNL     1       8.093  -2.228  22.098  0.00  0.00    -0.267 OA
ATOM      7  C   UNL     1       7.242  -3.946  24.047  0.00  0.00    +0.125 C 
ATOM      8  C   UNL     1       7.842  -5.064  24.898  0.00  0.00    +0.128 C 
ENDROOT
BRANCH   5   9
ATOM      9  C   UNL     1       8.763  -0.442  23.483  0.00  0.00    +0.216 A 
ATOM     10  N   UNL     1      10.065  -0.301  23.790  0.00  0.00    -0.231 NA
ATOM     11  C   UNL     1      10.516   0.970  23.872  0.00  0.00    +0.123 A 
ATOM     12  C   UNL     1       9.747   2.108  23.667  0.00  0.00    +0.018 A 
ATOM     13  C   UNL     1       8.414   1.822  23.411  0.00  0.00    +0.123 A 
ATOM     14  N   UNL     1       7.899   0.580  23.312  0.00  0.00    -0.231 NA
BRANCH  12  15
ATOM     15  C   UNL     1      10.297   3.472  23.688  0.00  0.00    -0.012 A 
ATOM     16  C   UNL     1      11.624   3.731  23.304  0.00  0.00    +0.028 A 
ATOM     17  C   UNL     1      12.102   5.033  23.320  0.00  0.00    +0.111 A 
ATOM     18  N   UNL     1      11.361   6.097  23.681  0.00  0.00    -0.263 NA
ATOM     19  C   UNL     1      10.088   5.849  24.045  0.00  0.00    +0.111 A 
ATOM     20  C   UNL     1       9.523   4.580  24.067  0.00  0.00    +0.028 A 
ENDBRANCH  12  15
ENDBRANCH   5   9
BRANCH   1  21
ATOM     21  S   UNL     1       6.269  -5.176  27.123  0.00  0.00    +0.076 S 
ATOM     22  O   UNL     1       6.461  -6.406  27.856  0.00  0.00    -0.151 OA
ATOM     23  O   UNL     1       5.717  -3.989  27.731  0.00  0.00    -0.151 OA
BRANCH  21  31
ATOM     24 CL   UNL     1       0.518  -8.078  22.427  0.00  0.00    -0.084 Cl
ATOM     25  C   UNL     1       1.617  -7.002  23.205  0.00  0.00    +0.042 A 
ATOM     26  C   UNL     1       1.305  -5.647  23.294  0.00  0.00    +0.022 A 
ATOM     27  C   UNL     1       2.166  -4.753  23.941  0.00  0.00    +0.027 A 
ATOM     28  C   UNL     1       3.320  -5.283  24.530  0.00  0.00    +0.048 A 
ATOM     29  N   UNL     1       4.308  -4.672  25.271  0.00  0.00    -0.339 N 
ATOM     30  H   UNL     1       4.355  -3.683  25.484  0.00  0.00    +0.167 HD
ATOM     31  C   UNL     1       5.145  -5.614  25.826  0.00  0.00    +0.173 A 
ATOM     32  C   UNL     1       4.840  -6.817  25.211  0.00  0.00    +0.057 A 
ATOM     33  C   UNL     1       3.650  -6.636  24.457  0.00  0.00    +0.003 A 
ATOM     34  C   UNL     1       2.795  -7.511  23.760  0.00  0.00    +0.030 A 
ENDBRANCH  21  31
ENDBRANCH   1  21
TORSDOF 4
ENDMDL
MODEL 6
REMARK VINA RESULT:      -7.7      3.278      4.413
REMARK  Name = 
REMARK  4 active torsions:
REMARK  status: ('A' for Active; 'I' for Inactive)
REMARK    1  A    between atoms: C_7  and  S_9
REMARK    2  A    between atoms: S_9  and  N_12
REMARK    3  A    between atoms: C_18  and  C_20
REMARK    4  A    between atoms: C_23  and  C_26
REMARK                            x       y       z     vdW  Elec       q    Type
REMARK                         _______ _______ _______ _____ _____    ______ ____
ROOT
ATOM      1  N   UNL     1       8.530   2.170  22.204  0.00  0.00    -0.172 NA
ATOM      2  C   UNL     1       7.382   1.232  22.360  0.00  0.00    +0.128 C 
ATOM      3  C   UNL     1       7.685  -0.001  23.234  0.00  0.00    +0.125 C 
ATOM      4  N   UNL     1       8.999  -0.610  22.974  0.00  0.00    -0.292 N 
ATOM      5  C   UNL     1       9.321  -1.980  23.024  0.00  0.00    +0.284 C 
ATOM      6  O   UNL     1      10.484  -2.365  22.847  0.00  0.00    -0.267 OA
ATOM      7  C   UNL     1      10.105   0.343  22.875  0.00  0.00    +0.125 C 
ATOM      8  C   UNL     1       9.786   1.442  21.863  0.00  0.00    +0.128 C 
ENDROOT
BRANCH   5   9
ATOM      9  C   UNL     1       8.257  -3.029  23.238  0.00  0.00    +0.216 A 
ATOM     10  N   UNL     1       8.190  -3.659  24.424  0.00  0.00    -0.231 NA
ATOM     11  C   UNL     1       7.153  -4.511  24.580  0.00  0.00    +0.123 A 
ATOM     12  C   UNL     1       6.179  -4.772  23.625  0.00  0.00    +0.018 A 
ATOM     13  C   UNL     1       6.396  -4.098  22.432  0.00  0.00    +0.123 A 
ATOM     14  N   UNL     1       7.407  -3.233  22.210  0.00  0.00    -0.231 NA
BRANCH  12  15
ATOM     15  C   UNL     1       5.021  -5.647  23.866  0.00  0.00    -0.012 A 
ATOM     16  C   UNL     1       4.960  -6.482  24.994  0.00  0.00    +0.028 A 
ATOM     17  C   UNL     1       3.843  -7.279  25.197  0.00  0.00    +0.111 A 
ATOM     18  N   UNL     1       2.781  -7.304  24.370  0.00  0.00    -0.263 NA
ATOM     19  C   UNL     1       2.840  -6.500  23.290  0.00  0.00    +0.111 A 
ATOM     20  C   UNL     1       3.916  -5.672  23.001  0.00  0.00    +0.028 A 
ENDBRANCH  12  15
ENDBRANCH   5   9
BRANCH   1  21
ATOM     21  S   UNL     1       8.630   3.431  23.328  0.00  0.00    +0.076 S 
ATOM     22  O   UNL     1       9.969   3.450  23.870  0.00  0.00    -0.151 OA
ATOM     23  O   UNL     1       8.001   4.608  22.775  0.00  0.00    -0.151 OA
BRANCH  21  31
ATOM     24 CL   UNL     1       3.249   0.379  28.354  0.00  0.00    -0.084 Cl
ATOM     25  C   UNL     1       4.737   0.906  27.661  0.00  0.00    +0.042 A 
ATOM     26  C   UNL     1       5.933   0.331  28.086  0.00  0.00    +0.022 A 
ATOM     27  C   UNL     1       7.155   0.721  27.524  0.00  0.00    +0.027 A 
ATOM     28  C   UNL     1       7.118   1.670  26.495  0.00  0.00    +0.048 A 
ATOM     29  N   UNL     1       8.132   2.196  25.726  0.00  0.00    -0.339 N 
ATOM     30  H   UNL     1       9.116   1.976  25.822  0.00  0.00    +0.167 HD
ATOM     31  C   UNL     1       7.614   2.945  24.693  0.00  0.00    +0.173 A 
ATOM     32  C   UNL     1       6.267   3.111  24.971  0.00  0.00    +0.057 A 
ATOM     33  C   UNL     1       5.931   2.254  26.053  0.00  0.00    +0.003 A 
ATOM     34  C   UNL     1       4.717   1.884  26.663  0.00  0.00    +0.030 A 
ENDBRANCH  21  31
ENDBRANCH   1  21
TORSDOF 4
ENDMDL
MODEL 7
REMARK VINA RESULT:      -7.6      3.498     10.449
REMARK  Name = 
REMARK  4 active torsions:
REMARK  status: ('A' for Active; 'I' for Inactive)
REMARK    1  A    between atoms: C_7  and  S_9
REMARK    2  A    between atoms: S_9  and  N_12
REMARK    3  A    between atoms: C_18  and  C_20
REMARK    4  A    between atoms: C_23  and  C_26
REMARK                            x       y       z     vdW  Elec       q    Type
REMARK                         _______ _______ _______ _____ _____    ______ ____
ROOT
ATOM      1  N   UNL     1       7.635  -3.817  24.346  0.00  0.00    -0.172 NA
ATOM      2  C   UNL     1       6.866  -2.549  24.191  0.00  0.00    +0.128 C 
ATOM      3  C   UNL     1       7.599  -1.458  23.384  0.00  0.00    +0.125 C 
ATOM      4  N   UNL     1       9.025  -1.324  23.718  0.00  0.00    -0.292 N 
ATOM      5  C   UNL     1       9.780  -0.135  23.742  0.00  0.00    +0.284 C 
ATOM      6  O   UNL     1      10.994  -0.160  23.977  0.00  0.00    -0.267 OA
ATOM      7  C   UNL     1       9.752  -2.590  23.814  0.00  0.00    +0.125 C 
ATOM      8  C   UNL     1       9.042  -3.554  24.763  0.00  0.00    +0.128 C 
ENDROOT
BRANCH   5   9
ATOM      9  C   UNL     1       9.129   1.211  23.537  0.00  0.00    +0.216 A 
ATOM     10  N   UNL     1       9.052   1.717  22.293  0.00  0.00    -0.231 NA
ATOM     11  C   UNL     1       8.369   2.876  22.170  0.00  0.00    +0.123 A 
ATOM     12  C   UNL     1       7.758   3.561  23.213  0.00  0.00    +0.018 A 
ATOM     13  C   UNL     1       7.958   2.960  24.447  0.00  0.00    +0.123 A 
ATOM     14  N   UNL     1       8.626   1.804  24.640  0.00  0.00    -0.231 NA
BRANCH  12  15
ATOM     15  C   UNL     1       6.955   4.779  23.022  0.00  0.00    -0.012 A 
ATOM     16  C   UNL     1       7.318   5.753  22.076  0.00  0.00    +0.028 A 
ATOM     17  C   UNL     1       6.525   6.879  21.912  0.00  0.00    +0.111 A 
ATOM     18  N   UNL     1       5.398   7.108  22.610  0.00  0.00    -0.263 NA
ATOM     19  C   UNL     1       5.048   6.172  23.514  0.00  0.00    +0.111 A 
ATOM     20  C   UNL     1       5.779   5.016  23.753  0.00  0.00    +0.028 A 
ENDBRANCH  12  15
ENDBRANCH   5   9
BRANCH   1  21
ATOM     21  S   UNL     1       7.372  -5.007  23.171  0.00  0.00    +0.076 S 
ATOM     22  O   UNL     1       7.064  -4.350  21.922  0.00  0.00    -0.151 OA
ATOM     23  O   UNL     1       8.397  -6.017  23.283  0.00  0.00    -0.151 OA
BRANCH  21  31
ATOM     24 CL   UNL     1       0.444  -7.408  26.297  0.00  0.00    -0.084 Cl
ATOM     25  C   UNL     1       1.686  -7.001  25.174  0.00  0.00    +0.042 A 
ATOM     26  C   UNL     1       1.345  -6.654  23.869  0.00  0.00    +0.022 A 
ATOM     27  C   UNL     1       2.330  -6.295  22.941  0.00  0.00    +0.027 A 
ATOM     28  C   UNL     1       3.655  -6.258  23.390  0.00  0.00    +0.048 A 
ATOM     29  N   UNL     1       4.812  -5.893  22.737  0.00  0.00    -0.339 N 
ATOM     30  H   UNL     1       4.874  -5.609  21.767  0.00  0.00    +0.167 HD
ATOM     31  C   UNL     1       5.860  -5.809  23.625  0.00  0.00    +0.173 A 
ATOM     32  C   UNL     1       5.418  -6.385  24.805  0.00  0.00    +0.057 A 
ATOM     33  C   UNL     1       4.018  -6.598  24.693  0.00  0.00    +0.003 A 
ATOM     34  C   UNL     1       3.018  -7.002  25.598  0.00  0.00    +0.030 A 
ENDBRANCH  21  31
ENDBRANCH   1  21
TORSDOF 4
ENDMDL
MODEL 8
REMARK VINA RESULT:      -7.5      3.796     10.176
REMARK  Name = 
REMARK  4 active torsions:
REMARK  status: ('A' for Active; 'I' for Inactive)
REMARK    1  A    between atoms: C_7  and  S_9
REMARK    2  A    between atoms: S_9  and  N_12
REMARK    3  A    between atoms: C_18  and  C_20
REMARK    4  A    between atoms: C_23  and  C_26
REMARK                            x       y       z     vdW  Elec       q    Type
REMARK                         _______ _______ _______ _____ _____    ______ ____
ROOT
ATOM      1  N   UNL     1       7.748  -4.488  26.672  0.00  0.00    -0.172 NA
ATOM      2  C   UNL     1       7.957  -3.014  26.735  0.00  0.00    +0.128 C 
ATOM      3  C   UNL     1       7.363  -2.239  25.542  0.00  0.00    +0.125 C 
ATOM      4  N   UNL     1       7.594  -2.879  24.238  0.00  0.00    -0.292 N 
ATOM      5  C   UNL     1       7.826  -2.233  23.008  0.00  0.00    +0.284 C 
ATOM      6  O   UNL     1       7.943  -2.885  21.962  0.00  0.00    -0.267 OA
ATOM      7  C   UNL     1       7.332  -4.318  24.209  0.00  0.00    +0.125 C 
ATOM      8  C   UNL     1       8.092  -5.031  25.327  0.00  0.00    +0.128 C 
ENDROOT
BRANCH   5   9
ATOM      9  C   UNL     1       7.994  -0.736  22.928  0.00  0.00    +0.216 A 
ATOM     10  N   UNL     1       6.903   0.037  22.784  0.00  0.00    -0.231 NA
ATOM     11  C   UNL     1       7.117   1.371  22.821  0.00  0.00    +0.123 A 
ATOM     12  C   UNL     1       8.354   1.979  22.992  0.00  0.00    +0.018 A 
ATOM     13  C   UNL     1       9.398   1.070  23.073  0.00  0.00    +0.123 A 
ATOM     14  N   UNL     1       9.255  -0.271  23.047  0.00  0.00    -0.231 NA
BRANCH  12  15
ATOM     15  C   UNL     1       8.532   3.435  23.106  0.00  0.00    -0.012 A 
ATOM     16  C   UNL     1       7.568   4.330  22.610  0.00  0.00    +0.028 A 
ATOM     17  C   UNL     1       7.763   5.696  22.754  0.00  0.00    +0.111 A 
ATOM     18  N   UNL     1       8.836   6.239  23.357  0.00  0.00    -0.263 NA
ATOM     19  C   UNL     1       9.757   5.381  23.835  0.00  0.00    +0.111 A 
ATOM     20  C   UNL     1       9.653   4.000  23.735  0.00  0.00    +0.028 A 
ENDBRANCH  12  15
ENDBRANCH   5   9
BRANCH   1  21
ATOM     21  S   UNL     1       6.358  -5.086  27.431  0.00  0.00    +0.076 S 
ATOM     22  O   UNL     1       6.696  -6.332  28.079  0.00  0.00    -0.151 OA
ATOM     23  O   UNL     1       5.696  -4.006  28.124  0.00  0.00    -0.151 OA
BRANCH  21  31
ATOM     24 CL   UNL     1       0.671  -8.077  22.715  0.00  0.00    -0.084 Cl
ATOM     25  C   UNL     1       1.772  -6.990  23.473  0.00  0.00    +0.042 A 
ATOM     26  C   UNL     1       1.489  -5.626  23.491  0.00  0.00    +0.022 A 
ATOM     27  C   UNL     1       2.352  -4.722  24.121  0.00  0.00    +0.027 A 
ATOM     28  C   UNL     1       3.478  -5.249  24.766  0.00  0.00    +0.048 A 
ATOM     29  N   UNL     1       4.460  -4.626  25.505  0.00  0.00    -0.339 N 
ATOM     30  H   UNL     1       4.523  -3.629  25.674  0.00  0.00    +0.167 HD
ATOM     31  C   UNL     1       5.260  -5.559  26.125  0.00  0.00    +0.173 A 
ATOM     32  C   UNL     1       4.944  -6.782  25.557  0.00  0.00    +0.057 A 
ATOM     33  C   UNL     1       3.779  -6.611  24.763  0.00  0.00    +0.003 A 
ATOM     34  C   UNL     1       2.923  -7.499  24.083  0.00  0.00    +0.030 A 
ENDBRANCH  21  31
ENDBRANCH   1  21
TORSDOF 4
ENDMDL
MODEL 9
REMARK VINA RESULT:      -7.5      2.069      2.616
REMARK  Name = 
REMARK  4 active torsions:
REMARK  status: ('A' for Active; 'I' for Inactive)
REMARK    1  A    between atoms: C_7  and  S_9
REMARK    2  A    between atoms: S_9  and  N_12
REMARK    3  A    between atoms: C_18  and  C_20
REMARK    4  A    between atoms: C_23  and  C_26
REMARK                            x       y       z     vdW  Elec       q    Type
REMARK                         _______ _______ _______ _____ _____    ______ ____
ROOT
ATOM      1  N   UNL     1       8.773  -0.641  22.707  0.00  0.00    -0.172 NA
ATOM      2  C   UNL     1       7.428  -1.225  22.973  0.00  0.00    +0.128 C 
ATOM      3  C   UNL     1       7.401  -2.258  24.118  0.00  0.00    +0.125 C 
ATOM      4  N   UNL     1       8.533  -3.196  24.103  0.00  0.00    -0.292 N 
ATOM      5  C   UNL     1       8.511  -4.555  24.478  0.00  0.00    +0.284 C 
ATOM      6  O   UNL     1       9.549  -5.228  24.483  0.00  0.00    -0.267 OA
ATOM      7  C   UNL     1       9.839  -2.575  23.887  0.00  0.00    +0.125 C 
ATOM      8  C   UNL     1       9.823  -1.697  22.636  0.00  0.00    +0.128 C 
ENDROOT
BRANCH   5   9
ATOM      9  C   UNL     1       7.218  -5.249  24.830  0.00  0.00    +0.216 A 
ATOM     10  N   UNL     1       6.927  -5.469  26.125  0.00  0.00    -0.231 NA
ATOM     11  C   UNL     1       5.710  -6.003  26.372  0.00  0.00    +0.123 A 
ATOM     12  C   UNL     1       4.769  -6.332  25.406  0.00  0.00    +0.018 A 
ATOM     13  C   UNL     1       5.216  -6.106  24.113  0.00  0.00    +0.123 A 
ATOM     14  N   UNL     1       6.414  -5.573  23.796  0.00  0.00    -0.231 NA
BRANCH  12  15
ATOM     15  C   UNL     1       3.424  -6.838  25.725  0.00  0.00    -0.012 A 
ATOM     16  C   UNL     1       2.671  -6.297  26.781  0.00  0.00    +0.028 A 
ATOM     17  C   UNL     1       1.400  -6.787  27.039  0.00  0.00    +0.111 A 
ATOM     18  N   UNL     1       0.818  -7.768  26.325  0.00  0.00    -0.263 NA
ATOM     19  C   UNL     1       1.539  -8.284  25.310  0.00  0.00    +0.111 A 
ATOM     20  C   UNL     1       2.819  -7.862  24.979  0.00  0.00    +0.028 A 
ENDBRANCH  12  15
ENDBRANCH   5   9
BRANCH   1  21
ATOM     21  S   UNL     1       9.150   0.789  23.531  0.00  0.00    +0.076 S 
ATOM     22  O   UNL     1       9.335   0.472  24.928  0.00  0.00    -0.151 OA
ATOM     23  O   UNL     1      10.126   1.531  22.769  0.00  0.00    -0.151 OA
BRANCH  21  31
ATOM     24 CL   UNL     1       1.973   4.054  22.361  0.00  0.00    -0.084 Cl
ATOM     25  C   UNL     1       3.409   3.469  23.114  0.00  0.00    +0.042 A 
ATOM     26  C   UNL     1       3.379   3.106  24.459  0.00  0.00    +0.022 A 
ATOM     27  C   UNL     1       4.523   2.604  25.091  0.00  0.00    +0.027 A 
ATOM     28  C   UNL     1       5.673   2.442  24.310  0.00  0.00    +0.048 A 
ATOM     29  N   UNL     1       6.910   1.928  24.632  0.00  0.00    -0.339 N 
ATOM     30  H   UNL     1       7.188   1.598  25.549  0.00  0.00    +0.167 HD
ATOM     31  C   UNL     1       7.675   1.769  23.499  0.00  0.00    +0.173 A 
ATOM     32  C   UNL     1       7.012   2.438  22.484  0.00  0.00    +0.057 A 
ATOM     33  C   UNL     1       5.723   2.797  22.962  0.00  0.00    +0.003 A 
ATOM     34  C   UNL     1       4.576   3.344  22.356  0.00  0.00    +0.030 A 
ENDBRANCH  21  31
ENDBRANCH   1  21
TORSDOF 4
ENDMDL
