MODEL 1
REMARK VINA RESULT:      -8.1      0.000      0.000
REMARK  Name = 
REMARK  4 active torsions:
REMARK  status: ('A' for Active; 'I' for Inactive)
REMARK    1  A    between atoms: C_1  and  C_2
REMARK    2  A    between atoms: C_5  and  C_6
REMARK    3  A    between atoms: C_6  and  C_7
REMARK    4  A    between atoms: C_7  and  C_8
REMARK                            x       y       z     vdW  Elec       q    Type
REMARK                         _______ _______ _______ _____ _____    ______ ____
ROOT
ATOM      1  C   UNL     1       6.110  -4.859  23.587  0.00  0.00    +0.007 A 
ATOM      2  C   UNL     1       6.923  -5.122  24.723  0.00  0.00    +0.085 A 
ATOM      3  N   UNL     1       8.330  -5.106  24.595  0.00  0.00    -0.216 NA
ATOM      4  C   UNL     1       9.060  -5.360  25.632  0.00  0.00    +0.194 A 
ATOM      5  N   UNL     1       8.538  -5.631  26.859  0.00  0.00    -0.295 N 
ATOM      6  H   UNL     1       9.145  -5.769  27.650  0.00  0.00    +0.172 HD
ATOM      7  C   UNL     1       7.196  -5.642  27.124  0.00  0.00    +0.260 A 
ATOM      8  O   UNL     1       6.756  -5.843  28.251  0.00  0.00    -0.267 OA
ATOM      9  N   UNL     1      10.413  -5.383  25.549  0.00  0.00    -0.329 N 
ATOM     10  H   UNL     1      10.902  -6.015  26.168  0.00  0.00    +0.145 HD
ATOM     11  H   UNL     1      10.738  -5.437  24.587  0.00  0.00    +0.145 HD
ATOM     12  C   UNL     1       6.319  -5.404  25.963  0.00  0.00    +0.067 A 
ATOM     13  C   UNL     1       4.934  -5.470  26.146  0.00  0.00    +0.043 A 
ATOM     14  C   UNL     1       4.167  -5.301  25.000  0.00  0.00    +0.067 A 
ATOM     15  N   UNL     1       2.814  -5.357  24.794  0.00  0.00    -0.344 N 
ATOM     16  H   UNL     1       2.115  -5.548  25.497  0.00  0.00    +0.167 HD
ATOM     17  C   UNL     1       2.586  -5.144  23.466  0.00  0.00    +0.197 A 
ATOM     18  N   UNL     1       3.703  -4.903  22.817  0.00  0.00    -0.236 NA
ATOM     19  C   UNL     1       4.710  -5.012  23.751  0.00  0.00    +0.094 A 
ENDROOT
BRANCH   1  20
ATOM     20  C   UNL     1       6.691  -4.380  22.268  0.00  0.00    +0.044 C 
BRANCH  20  21
ATOM     21  C   UNL     1       6.676  -2.856  22.077  0.00  0.00    +0.040 C 
BRANCH  21  26
ATOM     22  C   UNL     1      10.820   0.508  24.495  0.00  0.00    +0.044 C 
ATOM     23  C   UNL     1       9.794  -0.423  23.919  0.00  0.00    -0.050 A 
ATOM     24  C   UNL     1       8.597  -0.663  24.601  0.00  0.00    +0.003 A 
ATOM     25  C   UNL     1       7.598  -1.472  24.040  0.00  0.00    +0.004 A 
ATOM     26  C   UNL     1       7.775  -2.075  22.786  0.00  0.00    -0.047 A 
ATOM     27  C   UNL     1       8.988  -1.840  22.117  0.00  0.00    +0.004 A 
ATOM     28  C   UNL     1       9.985  -1.029  22.675  0.00  0.00    +0.003 A 
ENDBRANCH  21  26
ENDBRANCH  20  21
ENDBRANCH   1  20
TORSDOF 3
ENDMDL
MODEL 2
REMARK VINA RESULT:      -7.7      3.088      4.794
REMARK  Name = 
REMARK  4 active torsions:
REMARK  status: ('A' for Active; 'I' for Inactive)
REMARK    1  A    between atoms: C_1  and  C_2
REMARK    2  A    between atoms: C_5  and  C_6
REMARK    3  A    between atoms: C_6  and  C_7
REMARK    4  A    between atoms: C_7  and  C_8
REMARK                            x       y       z     vdW  Elec       q    Type
REMARK                         _______ _______ _______ _____ _____    ______ ____
ROOT
ATOM      1  C   UNL     1       8.314  -2.494  24.038  0.00  0.00    +0.007 A 
ATOM      2  C   UNL     1       7.338  -1.641  24.622  0.00  0.00    +0.085 A 
ATOM      3  N   UNL     1       6.888  -0.505  23.913  0.00  0.00    -0.216 NA
ATOM      4  C   UNL     1       6.010   0.272  24.459  0.00  0.00    +0.194 A 
ATOM      5  N   UNL     1       5.480   0.042  25.692  0.00  0.00    -0.295 N 
ATOM      6  H   UNL     1       4.759   0.644  26.055  0.00  0.00    +0.172 HD
ATOM      7  C   UNL     1       5.804  -1.039  26.464  0.00  0.00    +0.260 A 
ATOM      8  O   UNL     1       5.274  -1.245  27.551  0.00  0.00    -0.267 OA
ATOM      9  N   UNL     1       5.571   1.388  23.828  0.00  0.00    -0.329 N 
ATOM     10  H   UNL     1       5.305   2.172  24.408  0.00  0.00    +0.145 HD
ATOM     11  H   UNL     1       6.173   1.653  23.052  0.00  0.00    +0.145 HD
ATOM     12  C   UNL     1       6.836  -1.931  25.905  0.00  0.00    +0.067 A 
ATOM     13  C   UNL     1       7.267  -3.019  26.672  0.00  0.00    +0.043 A 
ATOM     14  C   UNL     1       8.287  -3.781  26.115  0.00  0.00    +0.067 A 
ATOM     15  N   UNL     1       8.981  -4.860  26.592  0.00  0.00    -0.344 N 
ATOM     16  H   UNL     1       8.849  -5.299  27.492  0.00  0.00    +0.167 HD
ATOM     17  C   UNL     1       9.902  -5.213  25.650  0.00  0.00    +0.197 A 
ATOM     18  N   UNL     1       9.807  -4.461  24.577  0.00  0.00    -0.236 NA
ATOM     19  C   UNL     1       8.815  -3.545  24.848  0.00  0.00    +0.094 A 
ENDROOT
BRANCH   1  20
ATOM     20  C   UNL     1       8.768  -2.339  22.597  0.00  0.00    +0.044 C 
BRANCH  20  21
ATOM     21  C   UNL     1      10.129  -1.649  22.425  0.00  0.00    +0.040 C 
BRANCH  21  26
ATOM     22  C   UNL     1       9.843   4.057  23.732  0.00  0.00    +0.044 C 
ATOM     23  C   UNL     1       9.999   2.609  23.367  0.00  0.00    -0.050 A 
ATOM     24  C   UNL     1      10.542   1.705  24.284  0.00  0.00    +0.003 A 
ATOM     25  C   UNL     1      10.625   0.337  23.984  0.00  0.00    +0.004 A 
ATOM     26  C   UNL     1      10.179  -0.161  22.751  0.00  0.00    -0.047 A 
ATOM     27  C   UNL     1       9.650   0.759  21.831  0.00  0.00    +0.004 A 
ATOM     28  C   UNL     1       9.563   2.124  22.131  0.00  0.00    +0.003 A 
ENDBRANCH  21  26
ENDBRANCH  20  21
ENDBRANCH   1  20
TORSDOF 3
ENDMDL
MODEL 3
REMARK VINA RESULT:      -7.4      1.989      3.217
REMARK  Name = 
REMARK  4 active torsions:
REMARK  status: ('A' for Active; 'I' for Inactive)
REMARK    1  A    between atoms: C_1  and  C_2
REMARK    2  A    between atoms: C_5  and  C_6
REMARK    3  A    between atoms: C_6  and  C_7
REMARK    4  A    between atoms: C_7  and  C_8
REMARK                            x       y       z     vdW  Elec       q    Type
REMARK                         _______ _______ _______ _____ _____    ______ ____
ROOT
ATOM      1  C   UNL     1       7.203  -5.272  25.311  0.00  0.00    +0.007 A 
ATOM      2  C   UNL     1       6.296  -5.849  26.239  0.00  0.00    +0.085 A 
ATOM      3  N   UNL     1       6.693  -6.032  27.584  0.00  0.00    -0.216 NA
ATOM      4  C   UNL     1       5.864  -6.571  28.418  0.00  0.00    +0.194 A 
ATOM      5  N   UNL     1       4.608  -6.963  28.068  0.00  0.00    -0.295 N 
ATOM      6  H   UNL     1       3.978  -7.327  28.763  0.00  0.00    +0.172 HD
ATOM      7  C   UNL     1       4.091  -6.808  26.812  0.00  0.00    +0.260 A 
ATOM      8  O   UNL     1       2.938  -7.127  26.538  0.00  0.00    -0.267 OA
ATOM      9  N   UNL     1       6.212  -6.792  29.709  0.00  0.00    -0.329 N 
ATOM     10  H   UNL     1       5.794  -7.589  30.169  0.00  0.00    +0.145 HD
ATOM     11  H   UNL     1       7.217  -6.730  29.852  0.00  0.00    +0.145 HD
ATOM     12  C   UNL     1       5.013  -6.241  25.812  0.00  0.00    +0.067 A 
ATOM     13  C   UNL     1       4.573  -6.119  24.489  0.00  0.00    +0.043 A 
ATOM     14  C   UNL     1       5.513  -5.638  23.585  0.00  0.00    +0.067 A 
ATOM     15  N   UNL     1       5.457  -5.445  22.230  0.00  0.00    -0.344 N 
ATOM     16  H   UNL     1       4.665  -5.641  21.636  0.00  0.00    +0.167 HD
ATOM     17  C   UNL     1       6.672  -4.975  21.826  0.00  0.00    +0.197 A 
ATOM     18  N   UNL     1       7.487  -4.805  22.843  0.00  0.00    -0.236 NA
ATOM     19  C   UNL     1       6.792  -5.229  23.955  0.00  0.00    +0.094 A 
ENDROOT
BRANCH   1  20
ATOM     20  C   UNL     1       8.531  -4.672  25.740  0.00  0.00    +0.044 C 
BRANCH  20  21
ATOM     21  C   UNL     1       8.475  -3.177  26.088  0.00  0.00    +0.040 C 
BRANCH  21  26
ATOM     22  C   UNL     1       9.410   0.221  21.405  0.00  0.00    +0.044 C 
ATOM     23  C   UNL     1       9.222  -0.594  22.652  0.00  0.00    -0.050 A 
ATOM     24  C   UNL     1       8.182  -0.298  23.538  0.00  0.00    +0.003 A 
ATOM     25  C   UNL     1       7.950  -1.097  24.668  0.00  0.00    +0.004 A 
ATOM     26  C   UNL     1       8.761  -2.206  24.949  0.00  0.00    -0.047 A 
ATOM     27  C   UNL     1       9.812  -2.484  24.060  0.00  0.00    +0.004 A 
ATOM     28  C   UNL     1      10.043  -1.690  22.930  0.00  0.00    +0.003 A 
ENDBRANCH  21  26
ENDBRANCH  20  21
ENDBRANCH   1  20
TORSDOF 3
ENDMDL
MODEL 4
REMARK VINA RESULT:      -7.4      5.726      8.363
REMARK  Name = 
REMARK  4 active torsions:
REMARK  status: ('A' for Active; 'I' for Inactive)
REMARK    1  A    between atoms: C_1  and  C_2
REMARK    2  A    between atoms: C_5  and  C_6
REMARK    3  A    between atoms: C_6  and  C_7
REMARK    4  A    between atoms: C_7  and  C_8
REMARK                            x       y       z     vdW  Elec       q    Type
REMARK                         _______ _______ _______ _____ _____    ______ ____
ROOT
ATOM      1  C   UNL     1       9.704   2.118  24.077  0.00  0.00    +0.007 A 
ATOM      2  C   UNL     1      10.182   3.430  23.812  0.00  0.00    +0.085 A 
ATOM      3  N   UNL     1      11.552   3.630  23.526  0.00  0.00    -0.216 NA
ATOM      4  C   UNL     1      11.979   4.830  23.299  0.00  0.00    +0.194 A 
ATOM      5  N   UNL     1      11.166   5.921  23.306  0.00  0.00    -0.295 N 
ATOM      6  H   UNL     1      11.532   6.829  23.070  0.00  0.00    +0.172 HD
ATOM      7  C   UNL     1       9.819   5.859  23.532  0.00  0.00    +0.260 A 
ATOM      8  O   UNL     1       9.103   6.854  23.485  0.00  0.00    -0.267 OA
ATOM      9  N   UNL     1      13.289   5.072  23.049  0.00  0.00    -0.329 N 
ATOM     10  H   UNL     1      13.658   5.964  23.348  0.00  0.00    +0.145 HD
ATOM     11  H   UNL     1      13.882   4.288  23.309  0.00  0.00    +0.145 HD
ATOM     12  C   UNL     1       9.290   4.519  23.843  0.00  0.00    +0.067 A 
ATOM     13  C   UNL     1       7.932   4.391  24.153  0.00  0.00    +0.043 A 
ATOM     14  C   UNL     1       7.512   3.112  24.500  0.00  0.00    +0.067 A 
ATOM     15  N   UNL     1       6.296   2.632  24.909  0.00  0.00    -0.344 N 
ATOM     16  H   UNL     1       5.456   3.178  25.033  0.00  0.00    +0.167 HD
ATOM     17  C   UNL     1       6.434   1.297  25.149  0.00  0.00    +0.197 A 
ATOM     18  N   UNL     1       7.648   0.879  24.871  0.00  0.00    -0.236 NA
ATOM     19  C   UNL     1       8.349   1.999  24.478  0.00  0.00    +0.094 A 
ENDROOT
BRANCH   1  20
ATOM     20  C   UNL     1      10.571   0.886  23.891  0.00  0.00    +0.044 C 
BRANCH  20  21
ATOM     21  C   UNL     1      10.255   0.065  22.632  0.00  0.00    +0.040 C 
BRANCH  21  26
ATOM     22  C   UNL     1       7.399  -4.898  23.880  0.00  0.00    +0.044 C 
ATOM     23  C   UNL     1       8.181  -3.673  23.503  0.00  0.00    -0.050 A 
ATOM     24  C   UNL     1       7.777  -2.883  22.422  0.00  0.00    +0.003 A 
ATOM     25  C   UNL     1       8.455  -1.697  22.106  0.00  0.00    +0.004 A 
ATOM     26  C   UNL     1       9.564  -1.275  22.854  0.00  0.00    -0.047 A 
ATOM     27  C   UNL     1       9.970  -2.085  23.928  0.00  0.00    +0.004 A 
ATOM     28  C   UNL     1       9.292  -3.268  24.247  0.00  0.00    +0.003 A 
ENDBRANCH  21  26
ENDBRANCH  20  21
ENDBRANCH   1  20
TORSDOF 3
ENDMDL
MODEL 5
REMARK VINA RESULT:      -7.3      2.214      4.019
REMARK  Name = 
REMARK  4 active torsions:
REMARK  status: ('A' for Active; 'I' for Inactive)
REMARK    1  A    between atoms: C_1  and  C_2
REMARK    2  A    between atoms: C_5  and  C_6
REMARK    3  A    between atoms: C_6  and  C_7
REMARK    4  A    between atoms: C_7  and  C_8
REMARK                            x       y       z     vdW  Elec       q    Type
REMARK                         _______ _______ _______ _____ _____    ______ ____
ROOT
ATOM      1  C   UNL     1       6.805  -5.573  26.026  0.00  0.00    +0.007 A 
ATOM      2  C   UNL     1       5.982  -5.720  24.877  0.00  0.00    +0.085 A 
ATOM      3  N   UNL     1       6.388  -5.149  23.649  0.00  0.00    -0.216 NA
ATOM      4  C   UNL     1       5.625  -5.278  22.612  0.00  0.00    +0.194 A 
ATOM      5  N   UNL     1       4.445  -5.955  22.638  0.00  0.00    -0.295 N 
ATOM      6  H   UNL     1       3.910  -6.076  21.793  0.00  0.00    +0.172 HD
ATOM      7  C   UNL     1       3.958  -6.582  23.751  0.00  0.00    +0.260 A 
ATOM      8  O   UNL     1       2.913  -7.226  23.732  0.00  0.00    -0.267 OA
ATOM      9  N   UNL     1       5.960  -4.722  21.421  0.00  0.00    -0.329 N 
ATOM     10  H   UNL     1       5.202  -4.423  20.823  0.00  0.00    +0.145 HD
ATOM     11  H   UNL     1       6.693  -4.024  21.515  0.00  0.00    +0.145 HD
ATOM     12  C   UNL     1       4.768  -6.426  24.972  0.00  0.00    +0.067 A 
ATOM     13  C   UNL     1       4.295  -6.983  26.165  0.00  0.00    +0.043 A 
ATOM     14  C   UNL     1       5.074  -6.743  27.291  0.00  0.00    +0.067 A 
ATOM     15  N   UNL     1       4.897  -7.077  28.608  0.00  0.00    -0.344 N 
ATOM     16  H   UNL     1       4.113  -7.584  28.990  0.00  0.00    +0.167 HD
ATOM     17  C   UNL     1       5.952  -6.572  29.310  0.00  0.00    +0.197 A 
ATOM     18  N   UNL     1       6.820  -5.982  28.520  0.00  0.00    -0.236 NA
ATOM     19  C   UNL     1       6.286  -6.059  27.252  0.00  0.00    +0.094 A 
ENDROOT
BRANCH   1  20
ATOM     20  C   UNL     1       8.200  -4.977  25.954  0.00  0.00    +0.044 C 
BRANCH  20  21
ATOM     21  C   UNL     1       8.253  -3.449  26.098  0.00  0.00    +0.040 C 
BRANCH  21  26
ATOM     22  C   UNL     1       9.473  -0.025  21.502  0.00  0.00    +0.044 C 
ATOM     23  C   UNL     1       9.128  -0.962  22.622  0.00  0.00    -0.050 A 
ATOM     24  C   UNL     1      10.048  -1.927  23.043  0.00  0.00    +0.003 A 
ATOM     25  C   UNL     1       9.768  -2.761  24.136  0.00  0.00    +0.004 A 
ATOM     26  C   UNL     1       8.554  -2.659  24.830  0.00  0.00    -0.047 A 
ATOM     27  C   UNL     1       7.631  -1.696  24.389  0.00  0.00    +0.004 A 
ATOM     28  C   UNL     1       7.911  -0.862  23.300  0.00  0.00    +0.003 A 
ENDBRANCH  21  26
ENDBRANCH  20  21
ENDBRANCH   1  20
TORSDOF 3
ENDMDL
MODEL 6
REMARK VINA RESULT:      -7.2      2.843      3.934
REMARK  Name = 
REMARK  4 active torsions:
REMARK  status: ('A' for Active; 'I' for Inactive)
REMARK    1  A    between atoms: C_1  and  C_2
REMARK    2  A    between atoms: C_5  and  C_6
REMARK    3  A    between atoms: C_6  and  C_7
REMARK    4  A    between atoms: C_7  and  C_8
REMARK                            x       y       z     vdW  Elec       q    Type
REMARK                         _______ _______ _______ _____ _____    ______ ____
ROOT
ATOM      1  C   UNL     1       8.136  -2.945  24.212  0.00  0.00    +0.007 A 
ATOM      2  C   UNL     1       7.382  -2.137  25.106  0.00  0.00    +0.085 A 
ATOM      3  N   UNL     1       8.052  -1.284  26.012  0.00  0.00    -0.216 NA
ATOM      4  C   UNL     1       7.357  -0.563  26.831  0.00  0.00    +0.194 A 
ATOM      5  N   UNL     1       5.996  -0.572  26.856  0.00  0.00    -0.295 N 
ATOM      6  H   UNL     1       5.495   0.046  27.473  0.00  0.00    +0.172 HD
ATOM      7  C   UNL     1       5.230  -1.324  26.009  0.00  0.00    +0.260 A 
ATOM      8  O   UNL     1       4.004  -1.276  26.023  0.00  0.00    -0.267 OA
ATOM      9  N   UNL     1       7.958   0.247  27.736  0.00  0.00    -0.329 N 
ATOM     10  H   UNL     1       7.476   0.397  28.612  0.00  0.00    +0.145 HD
ATOM     11  H   UNL     1       8.943   0.027  27.855  0.00  0.00    +0.145 HD
ATOM     12  C   UNL     1       5.976  -2.199  25.087  0.00  0.00    +0.067 A 
ATOM     13  C   UNL     1       5.255  -3.048  24.240  0.00  0.00    +0.043 A 
ATOM     14  C   UNL     1       6.019  -3.893  23.444  0.00  0.00    +0.067 A 
ATOM     15  N   UNL     1       5.665  -4.874  22.556  0.00  0.00    -0.344 N 
ATOM     16  H   UNL     1       4.722  -5.156  22.330  0.00  0.00    +0.167 HD
ATOM     17  C   UNL     1       6.812  -5.421  22.060  0.00  0.00    +0.197 A 
ATOM     18  N   UNL     1       7.879  -4.818  22.534  0.00  0.00    -0.236 NA
ATOM     19  C   UNL     1       7.411  -3.868  23.416  0.00  0.00    +0.094 A 
ENDROOT
BRANCH   1  20
ATOM     20  C   UNL     1       9.640  -2.800  24.060  0.00  0.00    +0.044 C 
BRANCH  20  21
ATOM     21  C   UNL     1      10.085  -2.001  22.827  0.00  0.00    +0.040 C 
BRANCH  21  26
ATOM     22  C   UNL     1      10.157   3.816  23.538  0.00  0.00    +0.044 C 
ATOM     23  C   UNL     1      10.225   2.330  23.334  0.00  0.00    -0.050 A 
ATOM     24  C   UNL     1      10.590   1.489  24.389  0.00  0.00    +0.003 A 
ATOM     25  C   UNL     1      10.585   0.095  24.233  0.00  0.00    +0.004 A 
ATOM     26  C   UNL     1      10.229  -0.495  23.012  0.00  0.00    -0.047 A 
ATOM     27  C   UNL     1       9.880   0.360  21.953  0.00  0.00    +0.004 A 
ATOM     28  C   UNL     1       9.881   1.752  22.109  0.00  0.00    +0.003 A 
ENDBRANCH  21  26
ENDBRANCH  20  21
ENDBRANCH   1  20
TORSDOF 3
ENDMDL
MODEL 7
REMARK VINA RESULT:      -7.2      2.403      3.815
REMARK  Name = 
REMARK  4 active torsions:
REMARK  status: ('A' for Active; 'I' for Inactive)
REMARK    1  A    between atoms: C_1  and  C_2
REMARK    2  A    between atoms: C_5  and  C_6
REMARK    3  A    between atoms: C_6  and  C_7
REMARK    4  A    between atoms: C_7  and  C_8
REMARK                            x       y       z     vdW  Elec       q    Type
REMARK                         _______ _______ _______ _____ _____    ______ ____
ROOT
ATOM      1  C   UNL     1       6.925  -2.738  23.556  0.00  0.00    +0.007 A 
ATOM      2  C   UNL     1       6.389  -4.036  23.336  0.00  0.00    +0.085 A 
ATOM      3  N   UNL     1       6.431  -4.599  22.040  0.00  0.00    -0.216 NA
ATOM      4  C   UNL     1       5.928  -5.775  21.847  0.00  0.00    +0.194 A 
ATOM      5  N   UNL     1       5.367  -6.514  22.843  0.00  0.00    -0.295 N 
ATOM      6  H   UNL     1       5.038  -7.448  22.658  0.00  0.00    +0.172 HD
ATOM      7  C   UNL     1       5.297  -6.100  24.144  0.00  0.00    +0.260 A 
ATOM      8  O   UNL     1       4.828  -6.808  25.029  0.00  0.00    -0.267 OA
ATOM      9  N   UNL     1       5.921  -6.342  20.616  0.00  0.00    -0.329 N 
ATOM     10  H   UNL     1       5.155  -6.965  20.401  0.00  0.00    +0.145 HD
ATOM     11  H   UNL     1       6.103  -5.665  19.880  0.00  0.00    +0.145 HD
ATOM     12  C   UNL     1       5.815  -4.745  24.407  0.00  0.00    +0.067 A 
ATOM     13  C   UNL     1       5.712  -4.229  25.703  0.00  0.00    +0.043 A 
ATOM     14  C   UNL     1       6.159  -2.923  25.868  0.00  0.00    +0.067 A 
ATOM     15  N   UNL     1       6.160  -2.092  26.956  0.00  0.00    -0.344 N 
ATOM     16  H   UNL     1       5.806  -2.318  27.875  0.00  0.00    +0.167 HD
ATOM     17  C   UNL     1       6.692  -0.898  26.568  0.00  0.00    +0.197 A 
ATOM     18  N   UNL     1       7.080  -0.928  25.313  0.00  0.00    -0.236 NA
ATOM     19  C   UNL     1       6.742  -2.179  24.846  0.00  0.00    +0.094 A 
ENDROOT
BRANCH   1  20
ATOM     20  C   UNL     1       7.710  -1.993  22.490  0.00  0.00    +0.044 C 
BRANCH  20  21
ATOM     21  C   UNL     1       9.222  -1.912  22.747  0.00  0.00    +0.040 C 
BRANCH  21  26
ATOM     22  C   UNL     1      11.012   3.627  23.427  0.00  0.00    +0.044 C 
ATOM     23  C   UNL     1      10.636   2.188  23.227  0.00  0.00    -0.050 A 
ATOM     24  C   UNL     1      10.798   1.265  24.264  0.00  0.00    +0.003 A 
ATOM     25  C   UNL     1      10.382  -0.066  24.114  0.00  0.00    +0.004 A 
ATOM     26  C   UNL     1       9.805  -0.514  22.917  0.00  0.00    -0.047 A 
ATOM     27  C   UNL     1       9.661   0.418  21.876  0.00  0.00    +0.004 A 
ATOM     28  C   UNL     1      10.073   1.749  22.026  0.00  0.00    +0.003 A 
ENDBRANCH  21  26
ENDBRANCH  20  21
ENDBRANCH   1  20
TORSDOF 3
ENDMDL
MODEL 8
REMARK VINA RESULT:      -6.9      2.633      4.539
REMARK  Name = 
REMARK  4 active torsions:
REMARK  status: ('A' for Active; 'I' for Inactive)
REMARK    1  A    between atoms: C_1  and  C_2
REMARK    2  A    between atoms: C_5  and  C_6
REMARK    3  A    between atoms: C_6  and  C_7
REMARK    4  A    between atoms: C_7  and  C_8
REMARK                            x       y       z     vdW  Elec       q    Type
REMARK                         _______ _______ _______ _____ _____    ______ ____
ROOT
ATOM      1  C   UNL     1       8.635  -2.392  23.522  0.00  0.00    +0.007 A 
ATOM      2  C   UNL     1       7.737  -3.489  23.424  0.00  0.00    +0.085 A 
ATOM      3  N   UNL     1       7.515  -4.100  22.169  0.00  0.00    -0.216 NA
ATOM      4  C   UNL     1       6.685  -5.089  22.088  0.00  0.00    +0.194 A 
ATOM      5  N   UNL     1       6.016  -5.587  23.164  0.00  0.00    -0.295 N 
ATOM      6  H   UNL     1       5.421  -6.393  23.063  0.00  0.00    +0.172 HD
ATOM      7  C   UNL     1       6.169  -5.109  24.436  0.00  0.00    +0.260 A 
ATOM      8  O   UNL     1       5.589  -5.610  25.394  0.00  0.00    -0.267 OA
ATOM      9  N   UNL     1       6.420  -5.687  20.900  0.00  0.00    -0.329 N 
ATOM     10  H   UNL     1       5.494  -6.072  20.775  0.00  0.00    +0.145 HD
ATOM     11  H   UNL     1       6.729  -5.126  20.110  0.00  0.00    +0.145 HD
ATOM     12  C   UNL     1       7.070  -3.951  24.574  0.00  0.00    +0.067 A 
ATOM     13  C   UNL     1       7.220  -3.367  25.836  0.00  0.00    +0.043 A 
ATOM     14  C   UNL     1       8.031  -2.239  25.885  0.00  0.00    +0.067 A 
ATOM     15  N   UNL     1       8.354  -1.394  26.912  0.00  0.00    -0.344 N 
ATOM     16  H   UNL     1       8.023  -1.464  27.864  0.00  0.00    +0.167 HD
ATOM     17  C   UNL     1       9.172  -0.424  26.412  0.00  0.00    +0.197 A 
ATOM     18  N   UNL     1       9.436  -0.623  25.141  0.00  0.00    -0.236 NA
ATOM     19  C   UNL     1       8.721  -1.744  24.781  0.00  0.00    +0.094 A 
ENDROOT
BRANCH   1  20
ATOM     20  C   UNL     1       9.514  -1.956  22.363  0.00  0.00    +0.044 C 
BRANCH  20  21
ATOM     21  C   UNL     1       8.893  -0.882  21.458  0.00  0.00    +0.040 C 
BRANCH  21  26
ATOM     22  C   UNL     1       9.002   4.457  23.873  0.00  0.00    +0.044 C 
ATOM     23  C   UNL     1       8.971   3.129  23.175  0.00  0.00    -0.050 A 
ATOM     24  C   UNL     1      10.162   2.515  22.773  0.00  0.00    +0.003 A 
ATOM     25  C   UNL     1      10.152   1.241  22.186  0.00  0.00    +0.004 A 
ATOM     26  C   UNL     1       8.950   0.552  21.972  0.00  0.00    -0.047 A 
ATOM     27  C   UNL     1       7.758   1.184  22.366  0.00  0.00    +0.004 A 
ATOM     28  C   UNL     1       7.767   2.455  22.955  0.00  0.00    +0.003 A 
ENDBRANCH  21  26
ENDBRANCH  20  21
ENDBRANCH   1  20
TORSDOF 3
ENDMDL
MODEL 9
REMARK VINA RESULT:      -6.6      3.138      5.294
REMARK  Name = 
REMARK  4 active torsions:
REMARK  status: ('A' for Active; 'I' for Inactive)
REMARK    1  A    between atoms: C_1  and  C_2
REMARK    2  A    between atoms: C_5  and  C_6
REMARK    3  A    between atoms: C_6  and  C_7
REMARK    4  A    between atoms: C_7  and  C_8
REMARK                            x       y       z     vdW  Elec       q    Type
REMARK                         _______ _______ _______ _____ _____    ______ ____
ROOT
ATOM      1  C   UNL     1       8.979  -1.470  24.705  0.00  0.00    +0.007 A 
ATOM      2  C   UNL     1       8.550  -2.825  24.716  0.00  0.00    +0.085 A 
ATOM      3  N   UNL     1       8.404  -3.503  25.948  0.00  0.00    -0.216 NA
ATOM      4  C   UNL     1       8.026  -4.740  25.946  0.00  0.00    +0.194 A 
ATOM      5  N   UNL     1       7.744  -5.428  24.806  0.00  0.00    -0.295 N 
ATOM      6  H   UNL     1       7.400  -6.373  24.856  0.00  0.00    +0.172 HD
ATOM      7  C   UNL     1       7.810  -4.879  23.556  0.00  0.00    +0.260 A 
ATOM      8  O   UNL     1       7.503  -5.510  22.550  0.00  0.00    -0.267 OA
ATOM      9  N   UNL     1       7.901  -5.437  27.102  0.00  0.00    -0.329 N 
ATOM     10  H   UNL     1       8.084  -6.430  27.063  0.00  0.00    +0.145 HD
ATOM     11  H   UNL     1       8.364  -4.976  27.881  0.00  0.00    +0.145 HD
ATOM     12  C   UNL     1       8.281  -3.483  23.501  0.00  0.00    +0.067 A 
ATOM     13  C   UNL     1       8.440  -2.879  22.249  0.00  0.00    +0.043 A 
ATOM     14  C   UNL     1       8.950  -1.586  22.265  0.00  0.00    +0.067 A 
ATOM     15  N   UNL     1       9.283  -0.727  21.252  0.00  0.00    -0.344 N 
ATOM     16  H   UNL     1       9.206  -0.918  20.264  0.00  0.00    +0.167 HD
ATOM     17  C   UNL     1       9.767   0.416  21.818  0.00  0.00    +0.197 A 
ATOM     18  N   UNL     1       9.716   0.364  23.130  0.00  0.00    -0.236 NA
ATOM     19  C   UNL     1       9.224  -0.886  23.437  0.00  0.00    +0.094 A 
ENDROOT
BRANCH   1  20
ATOM     20  C   UNL     1       9.117  -0.653  25.978  0.00  0.00    +0.044 C 
BRANCH  20  21
ATOM     21  C   UNL     1       7.840   0.082  26.410  0.00  0.00    +0.040 C 
BRANCH  21  26
ATOM     22  C   UNL     1       6.374   4.289  22.603  0.00  0.00    +0.044 C 
ATOM     23  C   UNL     1       6.692   3.247  23.636  0.00  0.00    -0.050 A 
ATOM     24  C   UNL     1       5.946   2.066  23.698  0.00  0.00    +0.003 A 
ATOM     25  C   UNL     1       6.279   1.052  24.609  0.00  0.00    +0.004 A 
ATOM     26  C   UNL     1       7.359   1.199  25.492  0.00  0.00    -0.047 A 
ATOM     27  C   UNL     1       8.091   2.396  25.431  0.00  0.00    +0.004 A 
ATOM     28  C   UNL     1       7.762   3.408  24.519  0.00  0.00    +0.003 A 
ENDBRANCH  21  26
ENDBRANCH  20  21
ENDBRANCH   1  20
TORSDOF 3
ENDMDL
