MODEL 1
REMARK VINA RESULT:      -4.4      0.000      0.000
REMARK  Name = 
REMARK  10 active torsions:
REMARK  status: ('A' for Active; 'I' for Inactive)
REMARK    1  A    between atoms: N_1  and  C_2
REMARK    2  A    between atoms: C_2  and  C_3
REMARK    3  A    between atoms: C_3  and  C_4
REMARK    4  A    between atoms: C_4  and  O_5
REMARK    5  A    between atoms: C_4  and  P_6
REMARK    6  A    between atoms: C_4  and  P_10
REMARK    7  A    between atoms: P_6  and  O_7
REMARK    8  A    between atoms: P_6  and  O_8
REMARK    9  A    between atoms: P_10  and  O_11
REMARK   10  A    between atoms: P_10  and  O_12
REMARK                            x       y       z     vdW  Elec       q    Type
REMARK                         _______ _______ _______ _____ _____    ______ ____
ROOT
ATOM      1  C   UNL     1       9.051  -0.071  23.506  0.00  0.00    +0.268 C 
ENDROOT
BRANCH   1   2
ATOM      2  P   UNL     1       8.555  -0.743  25.135  0.00  0.00    +0.371 P 
ATOM      3  O   UNL     1       8.135  -1.310  26.513  0.00  0.00    -0.255 OA
BRANCH   2   4
ATOM      4  O   UNL     1       9.838   0.028  25.849  0.00  0.00    -0.322 OA
ATOM      5  H   UNL     1       9.512   0.959  25.925  0.00  0.00    +0.220 HD
ENDBRANCH   2   4
BRANCH   2   6
ATOM      6  O   UNL     1       9.450  -2.091  24.766  0.00  0.00    -0.322 OA
ATOM      7  H   UNL     1       8.867  -2.863  24.572  0.00  0.00    +0.220 HD
ENDBRANCH   2   6
ENDBRANCH   1   2
BRANCH   1   8
ATOM      8  P   UNL     1       9.242  -1.414  22.270  0.00  0.00    +0.371 P 
ATOM      9  O   UNL     1       8.259  -2.530  22.291  0.00  0.00    -0.255 OA
BRANCH   8  10
ATOM     10  O   UNL     1      10.788  -1.850  22.432  0.00  0.00    -0.322 OA
ATOM     11  H   UNL     1      10.903  -2.761  22.087  0.00  0.00    +0.220 HD
ENDBRANCH   8  10
BRANCH   8  12
ATOM     12  O   UNL     1       9.377  -0.683  20.845  0.00  0.00    -0.322 OA
ATOM     13  H   UNL     1       9.693  -1.278  20.117  0.00  0.00    +0.220 HD
ENDBRANCH   8  12
ENDBRANCH   1   8
BRANCH   1  14
ATOM     14  O   UNL     1       7.972   0.810  23.017  0.00  0.00    -0.367 OA
ATOM     15  H   UNL     1       8.056   1.639  23.540  0.00  0.00    +0.212 HD
ENDBRANCH   1  14
BRANCH   1  16
ATOM     16  C   UNL     1      10.301   0.810  23.711  0.00  0.00    +0.075 C 
BRANCH  16  17
ATOM     17  C   UNL     1      10.261   2.218  23.131  0.00  0.00    +0.081 C 
BRANCH  17  18
ATOM     18  N   UNL     1      10.164   2.201  21.686  0.00  0.00    -0.330 NA
ATOM     19  H   UNL     1      11.074   1.973  21.275  0.00  0.00    +0.118 HD
ATOM     20  H   UNL     1       9.548   1.436  21.400  0.00  0.00    +0.118 HD
ENDBRANCH  17  18
ENDBRANCH  16  17
ENDBRANCH   1  16
TORSDOF 10
ENDMDL
MODEL 2
REMARK VINA RESULT:      -4.2      5.325      6.600
REMARK  Name = 
REMARK  10 active torsions:
REMARK  status: ('A' for Active; 'I' for Inactive)
REMARK    1  A    between atoms: N_1  and  C_2
REMARK    2  A    between atoms: C_2  and  C_3
REMARK    3  A    between atoms: C_3  and  C_4
REMARK    4  A    between atoms: C_4  and  O_5
REMARK    5  A    between atoms: C_4  and  P_6
REMARK    6  A    between atoms: C_4  and  P_10
REMARK    7  A    between atoms: P_6  and  O_7
REMARK    8  A    between atoms: P_6  and  O_8
REMARK    9  A    between atoms: P_10  and  O_11
REMARK   10  A    between atoms: P_10  and  O_12
REMARK                            x       y       z     vdW  Elec       q    Type
REMARK                         _______ _______ _______ _____ _____    ______ ____
ROOT
ATOM      1  C   UNL     1       7.465  -4.579  25.218  0.00  0.00    +0.268 C 
ENDROOT
BRANCH   1   2
ATOM      2  P   UNL     1       7.079  -4.407  23.438  0.00  0.00    +0.371 P 
ATOM      3  O   UNL     1       6.752  -4.261  21.932  0.00  0.00    -0.255 OA
BRANCH   2   4
ATOM      4  O   UNL     1       5.810  -5.462  23.605  0.00  0.00    -0.322 OA
ATOM      5  H   UNL     1       5.059  -4.858  23.828  0.00  0.00    +0.220 HD
ENDBRANCH   2   4
BRANCH   2   6
ATOM      6  O   UNL     1       8.176  -5.623  23.161  0.00  0.00    -0.322 OA
ATOM      7  H   UNL     1       8.234  -6.232  23.935  0.00  0.00    +0.220 HD
ENDBRANCH   2   6
ENDBRANCH   1   2
BRANCH   1   8
ATOM      8  P   UNL     1       9.257  -4.881  25.478  0.00  0.00    +0.371 P 
ATOM      9  O   UNL     1      10.217  -4.239  24.543  0.00  0.00    -0.255 OA
BRANCH   8  10
ATOM     10  O   UNL     1       9.351  -6.490  25.572  0.00  0.00    -0.322 OA
ATOM     11  H   UNL     1      10.167  -6.791  25.117  0.00  0.00    +0.220 HD
ENDBRANCH   8  10
BRANCH   8  12
ATOM     12  O   UNL     1       9.535  -4.562  27.029  0.00  0.00    -0.322 OA
ATOM     13  H   UNL     1       9.514  -3.595  27.249  0.00  0.00    +0.220 HD
ENDBRANCH   8  12
ENDBRANCH   1   8
BRANCH   1  14
ATOM     14  O   UNL     1       7.144  -3.304  25.890  0.00  0.00    -0.367 OA
ATOM     15  H   UNL     1       6.232  -3.079  25.599  0.00  0.00    +0.212 HD
ENDBRANCH   1  14
BRANCH   1  16
ATOM     16  C   UNL     1       6.529  -5.654  25.810  0.00  0.00    +0.075 C 
BRANCH  16  17
ATOM     17  C   UNL     1       6.241  -5.578  27.303  0.00  0.00    +0.081 C 
BRANCH  17  18
ATOM     18  N   UNL     1       7.259  -6.255  28.082  0.00  0.00    -0.330 NA
ATOM     19  H   UNL     1       6.898  -6.478  29.014  0.00  0.00    +0.118 HD
ATOM     20  H   UNL     1       7.460  -7.161  27.654  0.00  0.00    +0.118 HD
ENDBRANCH  17  18
ENDBRANCH  16  17
ENDBRANCH   1  16
TORSDOF 10
ENDMDL
MODEL 3
REMARK VINA RESULT:      -4.2      3.352      4.787
REMARK  Name = 
REMARK  10 active torsions:
REMARK  status: ('A' for Active; 'I' for Inactive)
REMARK    1  A    between atoms: N_1  and  C_2
REMARK    2  A    between atoms: C_2  and  C_3
REMARK    3  A    between atoms: C_3  and  C_4
REMARK    4  A    between atoms: C_4  and  O_5
REMARK    5  A    between atoms: C_4  and  P_6
REMARK    6  A    between atoms: C_4  and  P_10
REMARK    7  A    between atoms: P_6  and  O_7
REMARK    8  A    between atoms: P_6  and  O_8
REMARK    9  A    between atoms: P_10  and  O_11
REMARK   10  A    between atoms: P_10  and  O_12
REMARK                            x       y       z     vdW  Elec       q    Type
REMARK                         _______ _______ _______ _____ _____    ______ ____
ROOT
ATOM      1  C   UNL     1       8.778  -3.569  24.716  0.00  0.00    +0.268 C 
ENDROOT
BRANCH   1   2
ATOM      2  P   UNL     1       7.595  -3.654  23.322  0.00  0.00    +0.371 P 
ATOM      3  O   UNL     1       6.594  -3.726  22.144  0.00  0.00    -0.255 OA
BRANCH   2   4
ATOM      4  O   UNL     1       6.333  -3.770  24.393  0.00  0.00    -0.322 OA
ATOM      5  H   UNL     1       6.687  -3.303  25.190  0.00  0.00    +0.220 HD
ENDBRANCH   2   4
BRANCH   2   6
ATOM      6  O   UNL     1       7.852  -5.295  23.304  0.00  0.00    -0.322 OA
ATOM      7  H   UNL     1       7.501  -5.718  24.123  0.00  0.00    +0.220 HD
ENDBRANCH   2   6
ENDBRANCH   1   2
BRANCH   1   8
ATOM      8  P   UNL     1       8.720  -5.102  25.724  0.00  0.00    +0.371 P 
ATOM      9  O   UNL     1       7.399  -5.749  25.940  0.00  0.00    -0.255 OA
BRANCH   8  10
ATOM     10  O   UNL     1       9.519  -4.693  27.066  0.00  0.00    -0.322 OA
ATOM     11  H   UNL     1       9.498  -3.717  27.168  0.00  0.00    +0.220 HD
ENDBRANCH   8  10
BRANCH   8  12
ATOM     12  O   UNL     1       9.836  -6.078  25.103  0.00  0.00    -0.322 OA
ATOM     13  H   UNL     1       9.564  -6.507  24.250  0.00  0.00    +0.220 HD
ENDBRANCH   8  12
ENDBRANCH   1   8
BRANCH   1  14
ATOM     14  O   UNL     1      10.143  -3.472  24.163  0.00  0.00    -0.367 OA
ATOM     15  H   UNL     1      10.131  -2.680  23.580  0.00  0.00    +0.212 HD
ENDBRANCH   1  14
BRANCH   1  16
ATOM     16  C   UNL     1       8.508  -2.265  25.496  0.00  0.00    +0.075 C 
BRANCH  16  17
ATOM     17  C   UNL     1       8.621  -0.958  24.722  0.00  0.00    +0.081 C 
BRANCH  17  18
ATOM     18  N   UNL     1       9.993  -0.499  24.642  0.00  0.00    -0.330 NA
ATOM     19  H   UNL     1      10.480  -0.976  23.878  0.00  0.00    +0.118 HD
ATOM     20  H   UNL     1      10.001   0.490  24.382  0.00  0.00    +0.118 HD
ENDBRANCH  17  18
ENDBRANCH  16  17
ENDBRANCH   1  16
TORSDOF 10
ENDMDL
MODEL 4
REMARK VINA RESULT:      -4.2      4.520      5.814
REMARK  Name = 
REMARK  10 active torsions:
REMARK  status: ('A' for Active; 'I' for Inactive)
REMARK    1  A    between atoms: N_1  and  C_2
REMARK    2  A    between atoms: C_2  and  C_3
REMARK    3  A    between atoms: C_3  and  C_4
REMARK    4  A    between atoms: C_4  and  O_5
REMARK    5  A    between atoms: C_4  and  P_6
REMARK    6  A    between atoms: C_4  and  P_10
REMARK    7  A    between atoms: P_6  and  O_7
REMARK    8  A    between atoms: P_6  and  O_8
REMARK    9  A    between atoms: P_10  and  O_11
REMARK   10  A    between atoms: P_10  and  O_12
REMARK                            x       y       z     vdW  Elec       q    Type
REMARK                         _______ _______ _______ _____ _____    ______ ____
ROOT
ATOM      1  C   UNL     1       7.812  -4.506  24.254  0.00  0.00    +0.268 C 
ENDROOT
BRANCH   1   2
ATOM      2  P   UNL     1       8.403  -2.981  23.432  0.00  0.00    +0.371 P 
ATOM      3  O   UNL     1       8.903  -1.692  22.737  0.00  0.00    -0.255 OA
BRANCH   2   4
ATOM      4  O   UNL     1       9.923  -3.233  24.046  0.00  0.00    -0.322 OA
ATOM      5  H   UNL     1       9.995  -2.524  24.733  0.00  0.00    +0.220 HD
ENDBRANCH   2   4
BRANCH   2   6
ATOM      6  O   UNL     1       7.895  -2.151  24.778  0.00  0.00    -0.322 OA
ATOM      7  H   UNL     1       7.062  -2.538  25.140  0.00  0.00    +0.220 HD
ENDBRANCH   2   6
ENDBRANCH   1   2
BRANCH   1   8
ATOM      8  P   UNL     1       8.757  -4.833  25.794  0.00  0.00    +0.371 P 
ATOM      9  O   UNL     1       9.100  -3.677  26.663  0.00  0.00    -0.255 OA
BRANCH   8  10
ATOM     10  O   UNL     1      10.012  -5.709  25.279  0.00  0.00    -0.322 OA
ATOM     11  H   UNL     1      10.700  -5.726  25.979  0.00  0.00    +0.220 HD
ENDBRANCH   8  10
BRANCH   8  12
ATOM     12  O   UNL     1       7.970  -6.013  26.549  0.00  0.00    -0.322 OA
ATOM     13  H   UNL     1       7.271  -6.449  25.995  0.00  0.00    +0.220 HD
ENDBRANCH   8  12
ENDBRANCH   1   8
BRANCH   1  14
ATOM     14  O   UNL     1       6.404  -4.307  24.650  0.00  0.00    -0.367 OA
ATOM     15  H   UNL     1       6.429  -3.637  25.370  0.00  0.00    +0.212 HD
ENDBRANCH   1  14
BRANCH   1  16
ATOM     16  C   UNL     1       7.837  -5.650  23.218  0.00  0.00    +0.075 C 
BRANCH  16  17
ATOM     17  C   UNL     1       6.836  -5.570  22.073  0.00  0.00    +0.081 C 
BRANCH  17  18
ATOM     18  N   UNL     1       5.630  -6.320  22.360  0.00  0.00    -0.330 NA
ATOM     19  H   UNL     1       4.814  -5.835  21.975  0.00  0.00    +0.118 HD
ATOM     20  H   UNL     1       5.664  -7.213  21.863  0.00  0.00    +0.118 HD
ENDBRANCH  17  18
ENDBRANCH  16  17
ENDBRANCH   1  16
TORSDOF 10
ENDMDL
MODEL 5
REMARK VINA RESULT:      -4.1      1.624      3.045
REMARK  Name = 
REMARK  10 active torsions:
REMARK  status: ('A' for Active; 'I' for Inactive)
REMARK    1  A    between atoms: N_1  and  C_2
REMARK    2  A    between atoms: C_2  and  C_3
REMARK    3  A    between atoms: C_3  and  C_4
REMARK    4  A    between atoms: C_4  and  O_5
REMARK    5  A    between atoms: C_4  and  P_6
REMARK    6  A    between atoms: C_4  and  P_10
REMARK    7  A    between atoms: P_6  and  O_7
REMARK    8  A    between atoms: P_6  and  O_8
REMARK    9  A    between atoms: P_10  and  O_11
REMARK   10  A    between atoms: P_10  and  O_12
REMARK                            x       y       z     vdW  Elec       q    Type
REMARK                         _______ _______ _______ _____ _____    ______ ____
ROOT
ATOM      1  C   UNL     1       9.012  -0.364  23.399  0.00  0.00    +0.268 C 
ENDROOT
BRANCH   1   2
ATOM      2  P   UNL     1       9.614  -2.053  23.767  0.00  0.00    +0.371 P 
ATOM      3  O   UNL     1      10.125  -3.481  24.077  0.00  0.00    -0.255 OA
BRANCH   2   4
ATOM      4  O   UNL     1      10.696  -1.945  22.514  0.00  0.00    -0.322 OA
ATOM      5  H   UNL     1      11.159  -1.092  22.706  0.00  0.00    +0.220 HD
ENDBRANCH   2   4
BRANCH   2   6
ATOM      6  O   UNL     1       8.397  -2.618  22.789  0.00  0.00    -0.322 OA
ATOM      7  H   UNL     1       8.457  -3.596  22.677  0.00  0.00    +0.220 HD
ENDBRANCH   2   6
ENDBRANCH   1   2
BRANCH   1   8
ATOM      8  P   UNL     1       7.311  -0.117  24.043  0.00  0.00    +0.371 P 
ATOM      9  O   UNL     1       6.941   1.233  24.544  0.00  0.00    -0.255 OA
BRANCH   8  10
ATOM     10  O   UNL     1       7.138  -1.321  25.105  0.00  0.00    -0.322 OA
ATOM     11  H   UNL     1       7.266  -2.178  24.644  0.00  0.00    +0.220 HD
ENDBRANCH   8  10
BRANCH   8  12
ATOM     12  O   UNL     1       6.325  -0.691  22.911  0.00  0.00    -0.322 OA
ATOM     13  H   UNL     1       6.786  -1.215  22.206  0.00  0.00    +0.220 HD
ENDBRANCH   8  12
ENDBRANCH   1   8
BRANCH   1  14
ATOM     14  O   UNL     1       9.879   0.603  24.101  0.00  0.00    -0.367 OA
ATOM     15  H   UNL     1       9.270   1.157  24.638  0.00  0.00    +0.212 HD
ENDBRANCH   1  14
BRANCH   1  16
ATOM     16  C   UNL     1       9.180  -0.114  21.886  0.00  0.00    +0.075 C 
BRANCH  16  17
ATOM     17  C   UNL     1       8.876   1.289  21.377  0.00  0.00    +0.081 C 
BRANCH  17  18
ATOM     18  N   UNL     1       9.972   2.202  21.629  0.00  0.00    -0.330 NA
ATOM     19  H   UNL     1      10.393   2.003  22.542  0.00  0.00    +0.118 HD
ATOM     20  H   UNL     1      10.718   2.025  20.952  0.00  0.00    +0.118 HD
ENDBRANCH  17  18
ENDBRANCH  16  17
ENDBRANCH   1  16
TORSDOF 10
ENDMDL
MODEL 6
REMARK VINA RESULT:      -4.1      2.937      4.099
REMARK  Name = 
REMARK  10 active torsions:
REMARK  status: ('A' for Active; 'I' for Inactive)
REMARK    1  A    between atoms: N_1  and  C_2
REMARK    2  A    between atoms: C_2  and  C_3
REMARK    3  A    between atoms: C_3  and  C_4
REMARK    4  A    between atoms: C_4  and  O_5
REMARK    5  A    between atoms: C_4  and  P_6
REMARK    6  A    between atoms: C_4  and  P_10
REMARK    7  A    between atoms: P_6  and  O_7
REMARK    8  A    between atoms: P_6  and  O_8
REMARK    9  A    between atoms: P_10  and  O_11
REMARK   10  A    between atoms: P_10  and  O_12
REMARK                            x       y       z     vdW  Elec       q    Type
REMARK                         _______ _______ _______ _____ _____    ______ ____
ROOT
ATOM      1  C   UNL     1       8.786   0.912  22.096  0.00  0.00    +0.268 C 
ENDROOT
BRANCH   1   2
ATOM      2  P   UNL     1       9.767   2.193  22.961  0.00  0.00    +0.371 P 
ATOM      3  O   UNL     1      10.596   3.276  23.692  0.00  0.00    -0.255 OA
BRANCH   2   4
ATOM      4  O   UNL     1       8.612   3.327  22.602  0.00  0.00    -0.322 OA
ATOM      5  H   UNL     1       8.441   3.743  23.483  0.00  0.00    +0.220 HD
ENDBRANCH   2   4
BRANCH   2   6
ATOM      6  O   UNL     1      10.577   2.429  21.530  0.00  0.00    -0.322 OA
ATOM      7  H   UNL     1      10.678   1.581  21.035  0.00  0.00    +0.220 HD
ENDBRANCH   2   6
ENDBRANCH   1   2
BRANCH   1   8
ATOM      8  P   UNL     1       7.251   0.521  23.023  0.00  0.00    +0.371 P 
ATOM      9  O   UNL     1       6.820  -0.900  23.096  0.00  0.00    -0.255 OA
BRANCH   8  10
ATOM     10  O   UNL     1       6.169   1.541  22.393  0.00  0.00    -0.322 OA
ATOM     11  H   UNL     1       6.627   2.362  22.111  0.00  0.00    +0.220 HD
ENDBRANCH   8  10
BRANCH   8  12
ATOM     12  O   UNL     1       7.407   1.236  24.454  0.00  0.00    -0.322 OA
ATOM     13  H   UNL     1       6.695   0.996  25.102  0.00  0.00    +0.220 HD
ENDBRANCH   8  12
ENDBRANCH   1   8
BRANCH   1  14
ATOM     14  O   UNL     1       8.370   1.449  20.786  0.00  0.00    -0.367 OA
ATOM     15  H   UNL     1       8.706   0.805  20.123  0.00  0.00    +0.212 HD
ENDBRANCH   1  14
BRANCH   1  16
ATOM     16  C   UNL     1       9.708  -0.295  21.822  0.00  0.00    +0.075 C 
BRANCH  16  17
ATOM     17  C   UNL     1      10.365  -0.954  23.028  0.00  0.00    +0.081 C 
BRANCH  17  18
ATOM     18  N   UNL     1       9.758  -2.232  23.338  0.00  0.00    -0.330 NA
ATOM     19  H   UNL     1       9.327  -2.630  22.499  0.00  0.00    +0.118 HD
ATOM     20  H   UNL     1      10.490  -2.897  23.598  0.00  0.00    +0.118 HD
ENDBRANCH  17  18
ENDBRANCH  16  17
ENDBRANCH   1  16
TORSDOF 10
ENDMDL
MODEL 7
REMARK VINA RESULT:      -4.0      2.275      3.907
REMARK  Name = 
REMARK  10 active torsions:
REMARK  status: ('A' for Active; 'I' for Inactive)
REMARK    1  A    between atoms: N_1  and  C_2
REMARK    2  A    between atoms: C_2  and  C_3
REMARK    3  A    between atoms: C_3  and  C_4
REMARK    4  A    between atoms: C_4  and  O_5
REMARK    5  A    between atoms: C_4  and  P_6
REMARK    6  A    between atoms: C_4  and  P_10
REMARK    7  A    between atoms: P_6  and  O_7
REMARK    8  A    between atoms: P_6  and  O_8
REMARK    9  A    between atoms: P_10  and  O_11
REMARK   10  A    between atoms: P_10  and  O_12
REMARK                            x       y       z     vdW  Elec       q    Type
REMARK                         _______ _______ _______ _____ _____    ______ ____
ROOT
ATOM      1  C   UNL     1       9.322   1.340  22.538  0.00  0.00    +0.268 C 
ENDROOT
BRANCH   1   2
ATOM      2  P   UNL     1       9.956  -0.372  22.406  0.00  0.00    +0.371 P 
ATOM      3  O   UNL     1      10.492  -1.820  22.293  0.00  0.00    -0.255 OA
BRANCH   2   4
ATOM      4  O   UNL     1       9.424  -0.453  20.837  0.00  0.00    -0.322 OA
ATOM      5  H   UNL     1       8.447  -0.561  20.949  0.00  0.00    +0.220 HD
ENDBRANCH   2   4
BRANCH   2   6
ATOM      6  O   UNL     1       8.500  -0.877  23.024  0.00  0.00    -0.322 OA
ATOM      7  H   UNL     1       7.801  -0.194  22.889  0.00  0.00    +0.220 HD
ENDBRANCH   2   6
ENDBRANCH   1   2
BRANCH   1   8
ATOM      8  P   UNL     1       9.318   1.909  24.283  0.00  0.00    +0.371 P 
ATOM      9  O   UNL     1       9.330   3.372  24.542  0.00  0.00    -0.255 OA
BRANCH   8  10
ATOM     10  O   UNL     1      10.532   1.077  24.947  0.00  0.00    -0.322 OA
ATOM     11  H   UNL     1      10.311   0.875  25.881  0.00  0.00    +0.220 HD
ENDBRANCH   8  10
BRANCH   8  12
ATOM     12  O   UNL     1       8.110   1.124  24.997  0.00  0.00    -0.322 OA
ATOM     13  H   UNL     1       7.320   1.693  25.187  0.00  0.00    +0.220 HD
ENDBRANCH   8  12
ENDBRANCH   1   8
BRANCH   1  14
ATOM     14  O   UNL     1      10.237   2.234  21.799  0.00  0.00    -0.367 OA
ATOM     15  H   UNL     1       9.770   2.448  20.961  0.00  0.00    +0.212 HD
ENDBRANCH   1  14
BRANCH   1  16
ATOM     16  C   UNL     1       7.954   1.401  21.828  0.00  0.00    +0.075 C 
BRANCH  16  17
ATOM     17  C   UNL     1       7.060   2.592  22.145  0.00  0.00    +0.081 C 
BRANCH  17  18
ATOM     18  N   UNL     1       7.728   3.851  21.882  0.00  0.00    -0.330 NA
ATOM     19  H   UNL     1       8.655   3.855  22.317  0.00  0.00    +0.118 HD
ATOM     20  H   UNL     1       7.908   3.931  20.879  0.00  0.00    +0.118 HD
ENDBRANCH  17  18
ENDBRANCH  16  17
ENDBRANCH   1  16
TORSDOF 10
ENDMDL
MODEL 8
REMARK VINA RESULT:      -4.0      4.723      5.861
REMARK  Name = 
REMARK  10 active torsions:
REMARK  status: ('A' for Active; 'I' for Inactive)
REMARK    1  A    between atoms: N_1  and  C_2
REMARK    2  A    between atoms: C_2  and  C_3
REMARK    3  A    between atoms: C_3  and  C_4
REMARK    4  A    between atoms: C_4  and  O_5
REMARK    5  A    between atoms: C_4  and  P_6
REMARK    6  A    between atoms: C_4  and  P_10
REMARK    7  A    between atoms: P_6  and  O_7
REMARK    8  A    between atoms: P_6  and  O_8
REMARK    9  A    between atoms: P_10  and  O_11
REMARK   10  A    between atoms: P_10  and  O_12
REMARK                            x       y       z     vdW  Elec       q    Type
REMARK                         _______ _______ _______ _____ _____    ______ ____
ROOT
ATOM      1  C   UNL     1       7.196  -4.739  23.856  0.00  0.00    +0.268 C 
ENDROOT
BRANCH   1   2
ATOM      2  P   UNL     1       7.607  -2.956  23.828  0.00  0.00    +0.371 P 
ATOM      3  O   UNL     1       7.953  -1.447  23.805  0.00  0.00    -0.255 OA
BRANCH   2   4
ATOM      4  O   UNL     1       5.992  -2.578  23.877  0.00  0.00    -0.322 OA
ATOM      5  H   UNL     1       5.618  -3.314  24.423  0.00  0.00    +0.220 HD
ENDBRANCH   2   4
BRANCH   2   6
ATOM      6  O   UNL     1       7.626  -3.065  22.171  0.00  0.00    -0.322 OA
ATOM      7  H   UNL     1       7.560  -2.172  21.756  0.00  0.00    +0.220 HD
ENDBRANCH   2   6
ENDBRANCH   1   2
BRANCH   1   8
ATOM      8  P   UNL     1       6.184  -5.206  22.398  0.00  0.00    +0.371 P 
ATOM      9  O   UNL     1       5.200  -4.217  21.884  0.00  0.00    -0.255 OA
BRANCH   8  10
ATOM     10  O   UNL     1       5.572  -6.640  22.816  0.00  0.00    -0.322 OA
ATOM     11  H   UNL     1       4.609  -6.646  22.625  0.00  0.00    +0.220 HD
ENDBRANCH   8  10
BRANCH   8  12
ATOM     12  O   UNL     1       7.224  -5.734  21.293  0.00  0.00    -0.322 OA
ATOM     13  H   UNL     1       8.138  -5.359  21.390  0.00  0.00    +0.220 HD
ENDBRANCH   8  12
ENDBRANCH   1   8
BRANCH   1  14
ATOM     14  O   UNL     1       8.454  -5.508  23.768  0.00  0.00    -0.367 OA
ATOM     15  H   UNL     1       8.776  -5.374  22.849  0.00  0.00    +0.212 HD
ENDBRANCH   1  14
BRANCH   1  16
ATOM     16  C   UNL     1       6.559  -5.063  25.224  0.00  0.00    +0.075 C 
BRANCH  16  17
ATOM     17  C   UNL     1       7.369  -4.718  26.466  0.00  0.00    +0.081 C 
BRANCH  17  18
ATOM     18  N   UNL     1       8.268  -5.792  26.838  0.00  0.00    -0.330 NA
ATOM     19  H   UNL     1       8.604  -6.275  26.000  0.00  0.00    +0.118 HD
ATOM     20  H   UNL     1       9.107  -5.394  27.266  0.00  0.00    +0.118 HD
ENDBRANCH  17  18
ENDBRANCH  16  17
ENDBRANCH   1  16
TORSDOF 10
ENDMDL
MODEL 9
REMARK VINA RESULT:      -4.0      4.379      5.453
REMARK  Name = 
REMARK  10 active torsions:
REMARK  status: ('A' for Active; 'I' for Inactive)
REMARK    1  A    between atoms: N_1  and  C_2
REMARK    2  A    between atoms: C_2  and  C_3
REMARK    3  A    between atoms: C_3  and  C_4
REMARK    4  A    between atoms: C_4  and  O_5
REMARK    5  A    between atoms: C_4  and  P_6
REMARK    6  A    between atoms: C_4  and  P_10
REMARK    7  A    between atoms: P_6  and  O_7
REMARK    8  A    between atoms: P_6  and  O_8
REMARK    9  A    between atoms: P_10  and  O_11
REMARK   10  A    between atoms: P_10  and  O_12
REMARK                            x       y       z     vdW  Elec       q    Type
REMARK                         _______ _______ _______ _____ _____    ______ ____
ROOT
ATOM      1  C   UNL     1       7.810  -4.788  24.491  0.00  0.00    +0.268 C 
ENDROOT
BRANCH   1   2
ATOM      2  P   UNL     1       7.662  -5.250  26.255  0.00  0.00    +0.371 P 
ATOM      3  O   UNL     1       7.536  -5.640  27.748  0.00  0.00    -0.255 OA
BRANCH   2   4
ATOM      4  O   UNL     1       6.659  -3.955  26.516  0.00  0.00    -0.322 OA
ATOM      5  H   UNL     1       5.774  -4.387  26.614  0.00  0.00    +0.220 HD
ENDBRANCH   2   4
BRANCH   2   6
ATOM      6  O   UNL     1       9.037  -4.358  26.525  0.00  0.00    -0.322 OA
ATOM      7  H   UNL     1       9.777  -4.665  25.949  0.00  0.00    +0.220 HD
ENDBRANCH   2   6
ENDBRANCH   1   2
BRANCH   1   8
ATOM      8  P   UNL     1       8.545  -3.116  24.307  0.00  0.00    +0.371 P 
ATOM      9  O   UNL     1       8.197  -2.083  25.318  0.00  0.00    -0.255 OA
BRANCH   8  10
ATOM     10  O   UNL     1       8.204  -2.729  22.776  0.00  0.00    -0.322 OA
ATOM     11  H   UNL     1       7.644  -1.923  22.766  0.00  0.00    +0.220 HD
ENDBRANCH   8  10
BRANCH   8  12
ATOM     12  O   UNL     1      10.124  -3.349  24.120  0.00  0.00    -0.322 OA
ATOM     13  H   UNL     1      10.660  -3.125  24.924  0.00  0.00    +0.220 HD
ENDBRANCH   8  12
ENDBRANCH   1   8
BRANCH   1  14
ATOM     14  O   UNL     1       8.733  -5.736  23.837  0.00  0.00    -0.367 OA
ATOM     15  H   UNL     1       9.591  -5.259  23.771  0.00  0.00    +0.212 HD
ENDBRANCH   1  14
BRANCH   1  16
ATOM     16  C   UNL     1       6.427  -4.969  23.830  0.00  0.00    +0.075 C 
BRANCH  16  17
ATOM     17  C   UNL     1       6.348  -5.906  22.632  0.00  0.00    +0.081 C 
BRANCH  17  18
ATOM     18  N   UNL     1       7.033  -5.359  21.477  0.00  0.00    -0.330 NA
ATOM     19  H   UNL     1       7.582  -6.091  21.015  0.00  0.00    +0.118 HD
ATOM     20  H   UNL     1       6.340  -5.072  20.782  0.00  0.00    +0.118 HD
ENDBRANCH  17  18
ENDBRANCH  16  17
ENDBRANCH   1  16
TORSDOF 10
ENDMDL
