MODEL 1
REMARK VINA RESULT:      -5.0      0.000      0.000
REMARK  Name = 
REMARK  13 active torsions:
REMARK  status: ('A' for Active; 'I' for Inactive)
REMARK    1  A    between atoms: C_1  and  C_2
REMARK    2  A    between atoms: C_2  and  N_4
REMARK    3  A    between atoms: C_2  and  C_5
REMARK    4  A    between atoms: C_5  and  C_7
REMARK    5  A    between atoms: C_5  and  C_15
REMARK    6  A    between atoms: C_7  and  C_8
REMARK    7  A    between atoms: C_8  and  C_9
REMARK    8  A    between atoms: C_9  and  C_10
REMARK    9  A    between atoms: C_10  and  C_11
REMARK   10  A    between atoms: C_11  and  C_12
REMARK   11  A    between atoms: C_12  and  O_13
REMARK   12  A    between atoms: C_15  and  C_16
REMARK   13  A    between atoms: C_16  and  O_17
REMARK                            x       y       z     vdW  Elec       q    Type
REMARK                         _______ _______ _______ _____ _____    ______ ____
ROOT
ATOM      1  C   UNL     1       8.232  -4.524  23.965  0.00  0.00    +0.016 C 
ENDROOT
BRANCH   1   3
ATOM      2  C   UNL     1       7.935  -5.243  26.470  0.00  0.00    +0.024 C 
ATOM      3  C   UNL     1       8.877  -4.812  25.350  0.00  0.00    +0.051 C 
BRANCH   3   4
ATOM      4  N   UNL     1       9.938  -5.820  25.216  0.00  0.00    -0.327 NA
ATOM      5  H   UNL     1       9.959  -6.148  24.247  0.00  0.00    +0.118 HD
ATOM      6  H   UNL     1      10.845  -5.368  25.355  0.00  0.00    +0.118 HD
ENDBRANCH   3   4
ENDBRANCH   1   3
BRANCH   1   7
ATOM      7  C   UNL     1       6.755  -4.953  23.828  0.00  0.00    +0.125 C 
BRANCH   7   8
ATOM      8  C   UNL     1       6.342  -5.454  22.469  0.00  0.00    +0.305 C 
ATOM      9  O   UNL     1       6.852  -6.415  21.912  0.00  0.00    -0.251 OA
BRANCH   8  10
ATOM     10  O   UNL     1       5.333  -4.753  21.914  0.00  0.00    -0.481 OA
ATOM     11  H   UNL     1       5.439  -4.634  20.949  0.00  0.00    +0.295 HD
ENDBRANCH   8  10
ENDBRANCH   7   8
ENDBRANCH   1   7
BRANCH   1  12
ATOM     12  C   UNL     1       8.439  -3.081  23.444  0.00  0.00    +0.005 C 
BRANCH  12  13
ATOM     13  C   UNL     1       9.714  -2.395  23.944  0.00  0.00    +0.000 C 
BRANCH  13  14
ATOM     14  C   UNL     1       9.380  -1.183  24.819  0.00  0.00    +0.001 C 
BRANCH  14  15
ATOM     15  C   UNL     1       8.733  -0.068  23.996  0.00  0.00    +0.011 C 
BRANCH  15  16
ATOM     16  C   UNL     1       9.772   0.929  23.482  0.00  0.00    +0.120 C 
BRANCH  16  17
ATOM     17  C   UNL     1       9.783   0.993  21.972  0.00  0.00    +0.305 C 
ATOM     18  O   UNL     1       9.539   0.062  21.222  0.00  0.00    -0.251 OA
BRANCH  17  19
ATOM     19  O   UNL     1      10.098   2.227  21.513  0.00  0.00    -0.481 OA
ATOM     20  H   UNL     1      10.073   2.303  20.542  0.00  0.00    +0.295 HD
ENDBRANCH  17  19
ENDBRANCH  16  17
ENDBRANCH  15  16
ENDBRANCH  14  15
ENDBRANCH  13  14
ENDBRANCH  12  13
ENDBRANCH   1  12
TORSDOF 12
ENDMDL
MODEL 2
REMARK VINA RESULT:      -5.0      2.669      3.409
REMARK  Name = 
REMARK  13 active torsions:
REMARK  status: ('A' for Active; 'I' for Inactive)
REMARK    1  A    between atoms: C_1  and  C_2
REMARK    2  A    between atoms: C_2  and  N_4
REMARK    3  A    between atoms: C_2  and  C_5
REMARK    4  A    between atoms: C_5  and  C_7
REMARK    5  A    between atoms: C_5  and  C_15
REMARK    6  A    between atoms: C_7  and  C_8
REMARK    7  A    between atoms: C_8  and  C_9
REMARK    8  A    between atoms: C_9  and  C_10
REMARK    9  A    between atoms: C_10  and  C_11
REMARK   10  A    between atoms: C_11  and  C_12
REMARK   11  A    between atoms: C_12  and  O_13
REMARK   12  A    between atoms: C_15  and  C_16
REMARK   13  A    between atoms: C_16  and  O_17
REMARK                            x       y       z     vdW  Elec       q    Type
REMARK                         _______ _______ _______ _____ _____    ______ ____
ROOT
ATOM      1  C   UNL     1       8.282  -3.451  23.918  0.00  0.00    +0.016 C 
ENDROOT
BRANCH   1   3
ATOM      2  C   UNL     1       7.038  -4.751  22.010  0.00  0.00    +0.024 C 
ATOM      3  C   UNL     1       7.543  -3.417  22.551  0.00  0.00    +0.051 C 
BRANCH   3   4
ATOM      4  N   UNL     1       6.415  -2.476  22.605  0.00  0.00    -0.327 NA
ATOM      5  H   UNL     1       6.056  -2.341  21.657  0.00  0.00    +0.118 HD
ATOM      6  H   UNL     1       5.643  -2.914  23.113  0.00  0.00    +0.118 HD
ENDBRANCH   3   4
ENDBRANCH   1   3
BRANCH   1   7
ATOM      7  C   UNL     1       8.478  -4.858  24.523  0.00  0.00    +0.125 C 
BRANCH   7   8
ATOM      8  C   UNL     1       9.245  -4.914  25.818  0.00  0.00    +0.305 C 
ATOM      9  O   UNL     1       8.839  -4.448  26.872  0.00  0.00    -0.251 OA
BRANCH   8  10
ATOM     10  O   UNL     1      10.432  -5.548  25.721  0.00  0.00    -0.481 OA
ATOM     11  H   UNL     1      11.179  -5.004  26.040  0.00  0.00    +0.295 HD
ENDBRANCH   8  10
ENDBRANCH   7   8
ENDBRANCH   1   7
BRANCH   1  12
ATOM     12  C   UNL     1       9.602  -2.644  23.959  0.00  0.00    +0.005 C 
BRANCH  12  13
ATOM     13  C   UNL     1       9.497  -1.277  24.641  0.00  0.00    +0.000 C 
BRANCH  13  14
ATOM     14  C   UNL     1      10.203  -0.195  23.817  0.00  0.00    +0.001 C 
BRANCH  14  15
ATOM     15  C   UNL     1      10.249  -0.570  22.336  0.00  0.00    +0.011 C 
BRANCH  15  16
ATOM     16  C   UNL     1       9.191   0.182  21.529  0.00  0.00    +0.120 C 
BRANCH  16  17
ATOM     17  C   UNL     1       9.162   1.651  21.883  0.00  0.00    +0.305 C 
ATOM     18  O   UNL     1       8.233   2.233  22.419  0.00  0.00    -0.251 OA
BRANCH  17  19
ATOM     19  O   UNL     1      10.308   2.284  21.536  0.00  0.00    -0.481 OA
ATOM     20  H   UNL     1      10.771   2.698  22.288  0.00  0.00    +0.295 HD
ENDBRANCH  17  19
ENDBRANCH  16  17
ENDBRANCH  15  16
ENDBRANCH  14  15
ENDBRANCH  13  14
ENDBRANCH  12  13
ENDBRANCH   1  12
TORSDOF 12
ENDMDL
MODEL 3
REMARK VINA RESULT:      -5.0      2.437      3.176
REMARK  Name = 
REMARK  13 active torsions:
REMARK  status: ('A' for Active; 'I' for Inactive)
REMARK    1  A    between atoms: C_1  and  C_2
REMARK    2  A    between atoms: C_2  and  N_4
REMARK    3  A    between atoms: C_2  and  C_5
REMARK    4  A    between atoms: C_5  and  C_7
REMARK    5  A    between atoms: C_5  and  C_15
REMARK    6  A    between atoms: C_7  and  C_8
REMARK    7  A    between atoms: C_8  and  C_9
REMARK    8  A    between atoms: C_9  and  C_10
REMARK    9  A    between atoms: C_10  and  C_11
REMARK   10  A    between atoms: C_11  and  C_12
REMARK   11  A    between atoms: C_12  and  O_13
REMARK   12  A    between atoms: C_15  and  C_16
REMARK   13  A    between atoms: C_16  and  O_17
REMARK                            x       y       z     vdW  Elec       q    Type
REMARK                         _______ _______ _______ _____ _____    ______ ____
ROOT
ATOM      1  C   UNL     1       8.484  -2.385  24.101  0.00  0.00    +0.016 C 
ENDROOT
BRANCH   1   3
ATOM      2  C   UNL     1       7.589  -4.666  23.167  0.00  0.00    +0.024 C 
ATOM      3  C   UNL     1       8.256  -3.908  24.311  0.00  0.00    +0.051 C 
BRANCH   3   4
ATOM      4  N   UNL     1       9.526  -4.573  24.636  0.00  0.00    -0.327 NA
ATOM      5  H   UNL     1       9.365  -5.232  25.401  0.00  0.00    +0.118 HD
ATOM      6  H   UNL     1       9.804  -5.159  23.845  0.00  0.00    +0.118 HD
ENDBRANCH   3   4
ENDBRANCH   1   3
BRANCH   1   7
ATOM      7  C   UNL     1       8.340  -1.895  22.643  0.00  0.00    +0.125 C 
BRANCH   7   8
ATOM      8  C   UNL     1       9.621  -1.511  21.951  0.00  0.00    +0.305 C 
ATOM      9  O   UNL     1      10.731  -1.844  22.337  0.00  0.00    -0.251 OA
BRANCH   8  10
ATOM     10  O   UNL     1       9.439  -0.767  20.841  0.00  0.00    -0.481 OA
ATOM     11  H   UNL     1       9.036  -1.274  20.108  0.00  0.00    +0.295 HD
ENDBRANCH   8  10
ENDBRANCH   7   8
ENDBRANCH   1   7
BRANCH   1  12
ATOM     12  C   UNL     1       7.694  -1.474  25.071  0.00  0.00    +0.005 C 
BRANCH  12  13
ATOM     13  C   UNL     1       8.068   0.010  25.005  0.00  0.00    +0.000 C 
BRANCH  13  14
ATOM     14  C   UNL     1       9.551   0.219  25.328  0.00  0.00    +0.001 C 
BRANCH  14  15
ATOM     15  C   UNL     1      10.210   1.156  24.316  0.00  0.00    +0.011 C 
BRANCH  15  16
ATOM     16  C   UNL     1       9.222   2.189  23.775  0.00  0.00    +0.120 C 
BRANCH  16  17
ATOM     17  C   UNL     1       9.061   2.075  22.277  0.00  0.00    +0.305 C 
ATOM     18  O   UNL     1       8.008   1.893  21.689  0.00  0.00    -0.251 OA
BRANCH  17  19
ATOM     19  O   UNL     1      10.241   2.199  21.624  0.00  0.00    -0.481 OA
ATOM     20  H   UNL     1      11.020   2.144  22.206  0.00  0.00    +0.295 HD
ENDBRANCH  17  19
ENDBRANCH  16  17
ENDBRANCH  15  16
ENDBRANCH  14  15
ENDBRANCH  13  14
ENDBRANCH  12  13
ENDBRANCH   1  12
TORSDOF 12
ENDMDL
MODEL 4
REMARK VINA RESULT:      -5.0      2.532      3.360
REMARK  Name = 
REMARK  13 active torsions:
REMARK  status: ('A' for Active; 'I' for Inactive)
REMARK    1  A    between atoms: C_1  and  C_2
REMARK    2  A    between atoms: C_2  and  N_4
REMARK    3  A    between atoms: C_2  and  C_5
REMARK    4  A    between atoms: C_5  and  C_7
REMARK    5  A    between atoms: C_5  and  C_15
REMARK    6  A    between atoms: C_7  and  C_8
REMARK    7  A    between atoms: C_8  and  C_9
REMARK    8  A    between atoms: C_9  and  C_10
REMARK    9  A    between atoms: C_10  and  C_11
REMARK   10  A    between atoms: C_11  and  C_12
REMARK   11  A    between atoms: C_12  and  O_13
REMARK   12  A    between atoms: C_15  and  C_16
REMARK   13  A    between atoms: C_16  and  O_17
REMARK                            x       y       z     vdW  Elec       q    Type
REMARK                         _______ _______ _______ _____ _____    ______ ____
ROOT
ATOM      1  C   UNL     1       6.797  -4.673  23.968  0.00  0.00    +0.016 C 
ENDROOT
BRANCH   1   3
ATOM      2  C   UNL     1       7.083  -5.971  21.707  0.00  0.00    +0.024 C 
ATOM      3  C   UNL     1       6.140  -5.406  22.765  0.00  0.00    +0.051 C 
BRANCH   3   4
ATOM      4  N   UNL     1       5.270  -6.490  23.244  0.00  0.00    -0.327 NA
ATOM      5  H   UNL     1       4.338  -6.108  23.424  0.00  0.00    +0.118 HD
ATOM      6  H   UNL     1       5.131  -7.163  22.486  0.00  0.00    +0.118 HD
ENDBRANCH   3   4
ENDBRANCH   1   3
BRANCH   1   7
ATOM      7  C   UNL     1       8.303  -4.953  24.164  0.00  0.00    +0.125 C 
BRANCH   7   8
ATOM      8  C   UNL     1       8.703  -5.457  25.526  0.00  0.00    +0.305 C 
ATOM      9  O   UNL     1       7.908  -5.779  26.395  0.00  0.00    -0.251 OA
BRANCH   8  10
ATOM     10  O   UNL     1      10.038  -5.540  25.704  0.00  0.00    -0.481 OA
ATOM     11  H   UNL     1      10.356  -4.989  26.447  0.00  0.00    +0.295 HD
ENDBRANCH   8  10
ENDBRANCH   7   8
ENDBRANCH   1   7
BRANCH   1  12
ATOM     12  C   UNL     1       6.504  -3.154  24.036  0.00  0.00    +0.005 C 
BRANCH  12  13
ATOM     13  C   UNL     1       6.707  -2.402  22.717  0.00  0.00    +0.000 C 
BRANCH  13  14
ATOM     14  C   UNL     1       7.595  -1.169  22.918  0.00  0.00    +0.001 C 
BRANCH  14  15
ATOM     15  C   UNL     1       8.983  -1.384  22.315  0.00  0.00    +0.011 C 
BRANCH  15  16
ATOM     16  C   UNL     1       9.372  -0.246  21.371  0.00  0.00    +0.120 C 
BRANCH  16  17
ATOM     17  C   UNL     1       9.947   0.930  22.125  0.00  0.00    +0.305 C 
ATOM     18  O   UNL     1      10.466   0.879  23.228  0.00  0.00    -0.251 OA
BRANCH  17  19
ATOM     19  O   UNL     1       9.829   2.089  21.434  0.00  0.00    -0.481 OA
ATOM     20  H   UNL     1       8.966   2.199  20.995  0.00  0.00    +0.295 HD
ENDBRANCH  17  19
ENDBRANCH  16  17
ENDBRANCH  15  16
ENDBRANCH  14  15
ENDBRANCH  13  14
ENDBRANCH  12  13
ENDBRANCH   1  12
TORSDOF 12
ENDMDL
MODEL 5
REMARK VINA RESULT:      -4.9      3.430      6.384
REMARK  Name = 
REMARK  13 active torsions:
REMARK  status: ('A' for Active; 'I' for Inactive)
REMARK    1  A    between atoms: C_1  and  C_2
REMARK    2  A    between atoms: C_2  and  N_4
REMARK    3  A    between atoms: C_2  and  C_5
REMARK    4  A    between atoms: C_5  and  C_7
REMARK    5  A    between atoms: C_5  and  C_15
REMARK    6  A    between atoms: C_7  and  C_8
REMARK    7  A    between atoms: C_8  and  C_9
REMARK    8  A    between atoms: C_9  and  C_10
REMARK    9  A    between atoms: C_10  and  C_11
REMARK   10  A    between atoms: C_11  and  C_12
REMARK   11  A    between atoms: C_12  and  O_13
REMARK   12  A    between atoms: C_15  and  C_16
REMARK   13  A    between atoms: C_16  and  O_17
REMARK                            x       y       z     vdW  Elec       q    Type
REMARK                         _______ _______ _______ _____ _____    ______ ____
ROOT
ATOM      1  C   UNL     1       9.342   0.744  23.637  0.00  0.00    +0.016 C 
ENDROOT
BRANCH   1   3
ATOM      2  C   UNL     1      10.530   3.075  23.452  0.00  0.00    +0.024 C 
ATOM      3  C   UNL     1       9.426   2.142  22.962  0.00  0.00    +0.051 C 
BRANCH   3   4
ATOM      4  N   UNL     1       9.547   1.998  21.505  0.00  0.00    -0.327 NA
ATOM      5  H   UNL     1       9.939   1.076  21.298  0.00  0.00    +0.118 HD
ATOM      6  H   UNL     1       8.611   1.977  21.095  0.00  0.00    +0.118 HD
ENDBRANCH   3   4
ENDBRANCH   1   3
BRANCH   1   7
ATOM      7  C   UNL     1      10.551  -0.181  23.379  0.00  0.00    +0.125 C 
BRANCH   7   8
ATOM      8  C   UNL     1      10.277  -1.397  22.534  0.00  0.00    +0.305 C 
ATOM      9  O   UNL     1      10.405  -2.546  22.929  0.00  0.00    -0.251 OA
BRANCH   8  10
ATOM     10  O   UNL     1       9.856  -1.109  21.285  0.00  0.00    -0.481 OA
ATOM     11  H   UNL     1      10.566  -0.747  20.719  0.00  0.00    +0.295 HD
ENDBRANCH   8  10
ENDBRANCH   7   8
ENDBRANCH   1   7
BRANCH   1  12
ATOM     12  C   UNL     1       8.978   0.773  25.141  0.00  0.00    +0.005 C 
BRANCH  12  13
ATOM     13  C   UNL     1       8.800  -0.605  25.784  0.00  0.00    +0.000 C 
BRANCH  13  14
ATOM     14  C   UNL     1       7.559  -1.314  25.230  0.00  0.00    +0.001 C 
BRANCH  14  15
ATOM     15  C   UNL     1       7.780  -2.824  25.140  0.00  0.00    +0.011 C 
BRANCH  15  16
ATOM     16  C   UNL     1       7.693  -3.491  26.513  0.00  0.00    +0.120 C 
BRANCH  16  17
ATOM     17  C   UNL     1       8.542  -4.739  26.580  0.00  0.00    +0.305 C 
ATOM     18  O   UNL     1       9.604  -4.906  26.004  0.00  0.00    -0.251 OA
BRANCH  17  19
ATOM     19  O   UNL     1       7.992  -5.691  27.371  0.00  0.00    -0.481 OA
ATOM     20  H   UNL     1       7.113  -5.453  27.720  0.00  0.00    +0.295 HD
ENDBRANCH  17  19
ENDBRANCH  16  17
ENDBRANCH  15  16
ENDBRANCH  14  15
ENDBRANCH  13  14
ENDBRANCH  12  13
ENDBRANCH   1  12
TORSDOF 12
ENDMDL
MODEL 6
REMARK VINA RESULT:      -4.9      3.539      7.002
REMARK  Name = 
REMARK  13 active torsions:
REMARK  status: ('A' for Active; 'I' for Inactive)
REMARK    1  A    between atoms: C_1  and  C_2
REMARK    2  A    between atoms: C_2  and  N_4
REMARK    3  A    between atoms: C_2  and  C_5
REMARK    4  A    between atoms: C_5  and  C_7
REMARK    5  A    between atoms: C_5  and  C_15
REMARK    6  A    between atoms: C_7  and  C_8
REMARK    7  A    between atoms: C_8  and  C_9
REMARK    8  A    between atoms: C_9  and  C_10
REMARK    9  A    between atoms: C_10  and  C_11
REMARK   10  A    between atoms: C_11  and  C_12
REMARK   11  A    between atoms: C_12  and  O_13
REMARK   12  A    between atoms: C_15  and  C_16
REMARK   13  A    between atoms: C_16  and  O_17
REMARK                            x       y       z     vdW  Elec       q    Type
REMARK                         _______ _______ _______ _____ _____    ______ ____
ROOT
ATOM      1  C   UNL     1       9.913   1.107  23.780  0.00  0.00    +0.016 C 
ENDROOT
BRANCH   1   3
ATOM      2  C   UNL     1       9.365  -0.176  21.559  0.00  0.00    +0.024 C 
ATOM      3  C   UNL     1      10.108   0.967  22.245  0.00  0.00    +0.051 C 
BRANCH   3   4
ATOM      4  N   UNL     1       9.757   2.225  21.570  0.00  0.00    -0.327 NA
ATOM      5  H   UNL     1       8.816   2.501  21.861  0.00  0.00    +0.118 HD
ATOM      6  H   UNL     1      10.364   2.969  21.921  0.00  0.00    +0.118 HD
ENDBRANCH   3   4
ENDBRANCH   1   3
BRANCH   1   7
ATOM      7  C   UNL     1       8.557   1.703  24.216  0.00  0.00    +0.125 C 
BRANCH   7   8
ATOM      8  C   UNL     1       8.610   3.088  24.808  0.00  0.00    +0.305 C 
ATOM      9  O   UNL     1       9.119   4.049  24.251  0.00  0.00    -0.251 OA
BRANCH   8  10
ATOM     10  O   UNL     1       8.025   3.185  26.019  0.00  0.00    -0.481 OA
ATOM     11  H   UNL     1       8.611   2.900  26.748  0.00  0.00    +0.295 HD
ENDBRANCH   8  10
ENDBRANCH   7   8
ENDBRANCH   1   7
BRANCH   1  12
ATOM     12  C   UNL     1      10.242  -0.169  24.592  0.00  0.00    +0.005 C 
BRANCH  12  13
ATOM     13  C   UNL     1       9.214  -0.526  25.670  0.00  0.00    +0.000 C 
BRANCH  13  14
ATOM     14  C   UNL     1       8.466  -1.815  25.313  0.00  0.00    +0.001 C 
BRANCH  14  15
ATOM     15  C   UNL     1       9.322  -2.724  24.431  0.00  0.00    +0.011 C 
BRANCH  15  16
ATOM     16  C   UNL     1       8.778  -4.152  24.396  0.00  0.00    +0.120 C 
BRANCH  16  17
ATOM     17  C   UNL     1       9.230  -4.949  25.597  0.00  0.00    +0.305 C 
ATOM     18  O   UNL     1       8.591  -5.103  26.626  0.00  0.00    -0.251 OA
BRANCH  17  19
ATOM     19  O   UNL     1      10.454  -5.498  25.418  0.00  0.00    -0.481 OA
ATOM     20  H   UNL     1      10.429  -6.432  25.141  0.00  0.00    +0.295 HD
ENDBRANCH  17  19
ENDBRANCH  16  17
ENDBRANCH  15  16
ENDBRANCH  14  15
ENDBRANCH  13  14
ENDBRANCH  12  13
ENDBRANCH   1  12
TORSDOF 12
ENDMDL
MODEL 7
REMARK VINA RESULT:      -4.8      2.963      6.695
REMARK  Name = 
REMARK  13 active torsions:
REMARK  status: ('A' for Active; 'I' for Inactive)
REMARK    1  A    between atoms: C_1  and  C_2
REMARK    2  A    between atoms: C_2  and  N_4
REMARK    3  A    between atoms: C_2  and  C_5
REMARK    4  A    between atoms: C_5  and  C_7
REMARK    5  A    between atoms: C_5  and  C_15
REMARK    6  A    between atoms: C_7  and  C_8
REMARK    7  A    between atoms: C_8  and  C_9
REMARK    8  A    between atoms: C_9  and  C_10
REMARK    9  A    between atoms: C_10  and  C_11
REMARK   10  A    between atoms: C_11  and  C_12
REMARK   11  A    between atoms: C_12  and  O_13
REMARK   12  A    between atoms: C_15  and  C_16
REMARK   13  A    between atoms: C_16  and  O_17
REMARK                            x       y       z     vdW  Elec       q    Type
REMARK                         _______ _______ _______ _____ _____    ______ ____
ROOT
ATOM      1  C   UNL     1       9.428  -0.119  22.253  0.00  0.00    +0.016 C 
ENDROOT
BRANCH   1   3
ATOM      2  C   UNL     1       7.758   1.834  21.729  0.00  0.00    +0.024 C 
ATOM      3  C   UNL     1       9.119   1.192  21.477  0.00  0.00    +0.051 C 
BRANCH   3   4
ATOM      4  N   UNL     1      10.164   2.194  21.734  0.00  0.00    -0.327 NA
ATOM      5  H   UNL     1       9.873   3.083  21.321  0.00  0.00    +0.118 HD
ATOM      6  H   UNL     1      10.206   2.378  22.739  0.00  0.00    +0.118 HD
ENDBRANCH   3   4
ENDBRANCH   1   3
BRANCH   1   7
ATOM      7  C   UNL     1      10.435   0.029  23.415  0.00  0.00    +0.125 C 
BRANCH   7   8
ATOM      8  C   UNL     1       9.844   0.400  24.750  0.00  0.00    +0.305 C 
ATOM      9  O   UNL     1       9.632  -0.400  25.648  0.00  0.00    -0.251 OA
BRANCH   8  10
ATOM     10  O   UNL     1       9.580   1.716  24.881  0.00  0.00    -0.481 OA
ATOM     11  H   UNL     1       9.012   2.062  24.163  0.00  0.00    +0.295 HD
ENDBRANCH   8  10
ENDBRANCH   7   8
ENDBRANCH   1   7
BRANCH   1  12
ATOM     12  C   UNL     1       8.178  -0.914  22.702  0.00  0.00    +0.005 C 
BRANCH  12  13
ATOM     13  C   UNL     1       8.125  -2.361  22.205  0.00  0.00    +0.000 C 
BRANCH  13  14
ATOM     14  C   UNL     1       8.254  -3.348  23.369  0.00  0.00    +0.001 C 
BRANCH  14  15
ATOM     15  C   UNL     1       7.125  -4.380  23.347  0.00  0.00    +0.011 C 
BRANCH  15  16
ATOM     16  C   UNL     1       6.222  -4.202  22.126  0.00  0.00    +0.120 C 
BRANCH  16  17
ATOM     17  C   UNL     1       6.094  -5.484  21.337  0.00  0.00    +0.305 C 
ATOM     18  O   UNL     1       5.981  -5.561  20.125  0.00  0.00    -0.251 OA
BRANCH  17  19
ATOM     19  O   UNL     1       6.120  -6.580  22.132  0.00  0.00    -0.481 OA
ATOM     20  H   UNL     1       5.253  -7.017  22.227  0.00  0.00    +0.295 HD
ENDBRANCH  17  19
ENDBRANCH  16  17
ENDBRANCH  15  16
ENDBRANCH  14  15
ENDBRANCH  13  14
ENDBRANCH  12  13
ENDBRANCH   1  12
TORSDOF 12
ENDMDL
MODEL 8
REMARK VINA RESULT:      -4.8      2.808      3.569
REMARK  Name = 
REMARK  13 active torsions:
REMARK  status: ('A' for Active; 'I' for Inactive)
REMARK    1  A    between atoms: C_1  and  C_2
REMARK    2  A    between atoms: C_2  and  N_4
REMARK    3  A    between atoms: C_2  and  C_5
REMARK    4  A    between atoms: C_5  and  C_7
REMARK    5  A    between atoms: C_5  and  C_15
REMARK    6  A    between atoms: C_7  and  C_8
REMARK    7  A    between atoms: C_8  and  C_9
REMARK    8  A    between atoms: C_9  and  C_10
REMARK    9  A    between atoms: C_10  and  C_11
REMARK   10  A    between atoms: C_11  and  C_12
REMARK   11  A    between atoms: C_12  and  O_13
REMARK   12  A    between atoms: C_15  and  C_16
REMARK   13  A    between atoms: C_16  and  O_17
REMARK                            x       y       z     vdW  Elec       q    Type
REMARK                         _______ _______ _______ _____ _____    ______ ____
ROOT
ATOM      1  C   UNL     1       9.152  -2.253  24.881  0.00  0.00    +0.016 C 
ENDROOT
BRANCH   1   3
ATOM      2  C   UNL     1       7.040  -1.195  26.022  0.00  0.00    +0.024 C 
ATOM      3  C   UNL     1       8.421  -0.986  25.408  0.00  0.00    +0.051 C 
BRANCH   3   4
ATOM      4  N   UNL     1       9.264  -0.280  26.383  0.00  0.00    -0.327 NA
ATOM      5  H   UNL     1       8.897  -0.455  27.321  0.00  0.00    +0.118 HD
ATOM      6  H   UNL     1      10.194  -0.706  26.386  0.00  0.00    +0.118 HD
ENDBRANCH   3   4
ENDBRANCH   1   3
BRANCH   1   7
ATOM      7  C   UNL     1       8.336  -3.562  24.965  0.00  0.00    +0.125 C 
BRANCH   7   8
ATOM      8  C   UNL     1       9.124  -4.805  25.286  0.00  0.00    +0.305 C 
ATOM      9  O   UNL     1       9.428  -5.653  24.460  0.00  0.00    -0.251 OA
BRANCH   8  10
ATOM     10  O   UNL     1       9.488  -4.899  26.581  0.00  0.00    -0.481 OA
ATOM     11  H   UNL     1      10.186  -4.260  26.827  0.00  0.00    +0.295 HD
ENDBRANCH   8  10
ENDBRANCH   7   8
ENDBRANCH   1   7
BRANCH   1  12
ATOM     12  C   UNL     1       9.797  -2.092  23.484  0.00  0.00    +0.005 C 
BRANCH  12  13
ATOM     13  C   UNL     1       8.881  -1.478  22.421  0.00  0.00    +0.000 C 
BRANCH  13  14
ATOM     14  C   UNL     1       9.652  -0.499  21.529  0.00  0.00    +0.001 C 
BRANCH  14  15
ATOM     15  C   UNL     1       9.122   0.927  21.687  0.00  0.00    +0.011 C 
BRANCH  15  16
ATOM     16  C   UNL     1      10.174   1.857  22.291  0.00  0.00    +0.120 C 
BRANCH  16  17
ATOM     17  C   UNL     1      10.149   1.818  23.802  0.00  0.00    +0.305 C 
ATOM     18  O   UNL     1       9.327   2.374  24.511  0.00  0.00    -0.251 OA
BRANCH  17  19
ATOM     19  O   UNL     1      11.164   1.080  24.312  0.00  0.00    -0.481 OA
ATOM     20  H   UNL     1      11.383   0.293  23.781  0.00  0.00    +0.295 HD
ENDBRANCH  17  19
ENDBRANCH  16  17
ENDBRANCH  15  16
ENDBRANCH  14  15
ENDBRANCH  13  14
ENDBRANCH  12  13
ENDBRANCH   1  12
TORSDOF 12
ENDMDL
MODEL 9
REMARK VINA RESULT:      -4.8      3.239      6.046
REMARK  Name = 
REMARK  13 active torsions:
REMARK  status: ('A' for Active; 'I' for Inactive)
REMARK    1  A    between atoms: C_1  and  C_2
REMARK    2  A    between atoms: C_2  and  N_4
REMARK    3  A    between atoms: C_2  and  C_5
REMARK    4  A    between atoms: C_5  and  C_7
REMARK    5  A    between atoms: C_5  and  C_15
REMARK    6  A    between atoms: C_7  and  C_8
REMARK    7  A    between atoms: C_8  and  C_9
REMARK    8  A    between atoms: C_9  and  C_10
REMARK    9  A    between atoms: C_10  and  C_11
REMARK   10  A    between atoms: C_11  and  C_12
REMARK   11  A    between atoms: C_12  and  O_13
REMARK   12  A    between atoms: C_15  and  C_16
REMARK   13  A    between atoms: C_16  and  O_17
REMARK                            x       y       z     vdW  Elec       q    Type
REMARK                         _______ _______ _______ _____ _____    ______ ____
ROOT
ATOM      1  C   UNL     1       8.066  -0.145  23.003  0.00  0.00    +0.016 C 
ENDROOT
BRANCH   1   3
ATOM      2  C   UNL     1       8.068   2.477  23.048  0.00  0.00    +0.024 C 
ATOM      3  C   UNL     1       7.942   1.197  22.228  0.00  0.00    +0.051 C 
BRANCH   3   4
ATOM      4  N   UNL     1       8.922   1.244  21.133  0.00  0.00    -0.327 NA
ATOM      5  H   UNL     1       9.542   0.435  21.212  0.00  0.00    +0.118 HD
ATOM      6  H   UNL     1       8.433   1.108  20.245  0.00  0.00    +0.118 HD
ENDBRANCH   3   4
ENDBRANCH   1   3
BRANCH   1   7
ATOM      7  C   UNL     1       9.488  -0.485  23.501  0.00  0.00    +0.125 C 
BRANCH   7   8
ATOM      8  C   UNL     1      10.145  -1.671  22.845  0.00  0.00    +0.305 C 
ATOM      9  O   UNL     1      10.509  -2.670  23.448  0.00  0.00    -0.251 OA
BRANCH   8  10
ATOM     10  O   UNL     1      10.287  -1.546  21.510  0.00  0.00    -0.481 OA
ATOM     11  H   UNL     1       9.650  -0.916  21.118  0.00  0.00    +0.295 HD
ENDBRANCH   8  10
ENDBRANCH   7   8
ENDBRANCH   1   7
BRANCH   1  12
ATOM     12  C   UNL     1       7.024  -0.338  24.131  0.00  0.00    +0.005 C 
BRANCH  12  13
ATOM     13  C   UNL     1       7.162  -1.646  24.914  0.00  0.00    +0.000 C 
BRANCH  13  14
ATOM     14  C   UNL     1       6.734  -2.846  24.062  0.00  0.00    +0.001 C 
BRANCH  14  15
ATOM     15  C   UNL     1       6.850  -4.152  24.849  0.00  0.00    +0.011 C 
BRANCH  15  16
ATOM     16  C   UNL     1       8.080  -4.956  24.430  0.00  0.00    +0.120 C 
BRANCH  16  17
ATOM     17  C   UNL     1       9.137  -4.961  25.510  0.00  0.00    +0.305 C 
ATOM     18  O   UNL     1       8.943  -4.724  26.692  0.00  0.00    -0.251 OA
BRANCH  17  19
ATOM     19  O   UNL     1      10.364  -5.265  25.026  0.00  0.00    -0.481 OA
ATOM     20  H   UNL     1      11.039  -5.392  25.717  0.00  0.00    +0.295 HD
ENDBRANCH  17  19
ENDBRANCH  16  17
ENDBRANCH  15  16
ENDBRANCH  14  15
ENDBRANCH  13  14
ENDBRANCH  12  13
ENDBRANCH   1  12
TORSDOF 12
ENDMDL
