MODEL 1
REMARK VINA RESULT:      -6.6      0.000      0.000
REMARK  Name = 
REMARK  7 active torsions:
REMARK  status: ('A' for Active; 'I' for Inactive)
REMARK    1  A    between atoms: C_1  and  O_2
REMARK    2  A    between atoms: O_2  and  C_3
REMARK    3  A    between atoms: C_4  and  O_5
REMARK    4  A    between atoms: O_5  and  C_6
REMARK    5  A    between atoms: C_8  and  C_11
REMARK    6  A    between atoms: N_13  and  C_14
REMARK    7  A    between atoms: C_22  and  N_23
REMARK                            x       y       z     vdW  Elec       q    Type
REMARK                         _______ _______ _______ _____ _____    ______ ____
ROOT
ATOM      1  C   UNL     1       8.325  -2.483  23.642  0.00  0.00    +0.105 A 
ATOM      2  C   UNL     1       8.180  -3.112  24.922  0.00  0.00    +0.086 A 
ATOM      3  C   UNL     1       7.790  -4.408  24.634  0.00  0.00    +0.164 A 
ATOM      4  N   UNL     1       7.636  -5.417  25.514  0.00  0.00    -0.216 NA
ATOM      5  C   UNL     1       7.909  -5.028  26.764  0.00  0.00    +0.225 A 
ATOM      6  N   UNL     1       8.231  -3.796  27.192  0.00  0.00    -0.220 NA
ATOM      7  N   UNL     1       7.600  -4.453  23.279  0.00  0.00    -0.243 N 
ATOM      8  C   UNL     1       8.352  -2.809  26.283  0.00  0.00    +0.131 A 
ATOM      9  N   UNL     1       7.886  -3.290  22.657  0.00  0.00    -0.168 NA
ENDROOT
BRANCH   1  13
ATOM     10  C   UNL     1       9.993   1.357  22.695  0.00  0.00    +0.162 A 
ATOM     11  C   UNL     1      10.701   0.458  23.500  0.00  0.00    +0.050 A 
ATOM     12  C   UNL     1      10.170  -0.804  23.798  0.00  0.00    +0.014 A 
ATOM     13  C   UNL     1       8.908  -1.173  23.324  0.00  0.00    +0.007 A 
ATOM     14  C   UNL     1       8.177  -0.234  22.584  0.00  0.00    +0.059 A 
ATOM     15  C   UNL     1       8.720   1.003  22.222  0.00  0.00    +0.162 A 
BRANCH  10  17
ATOM     16  C   UNL     1      10.986   3.389  23.423  0.00  0.00    +0.277 C 
ATOM     17  O   UNL     1      10.444   2.610  22.365  0.00  0.00    -0.491 OA
ENDBRANCH  10  17
BRANCH  15  18
ATOM     18  O   UNL     1       8.069   1.911  21.422  0.00  0.00    -0.491 OA
ATOM     19  C   UNL     1       6.990   2.633  22.011  0.00  0.00    +0.277 C 
ENDBRANCH  15  18
ENDBRANCH   1  13
BRANCH   7  20
ATOM     20  C   UNL     1       7.164  -5.648  22.596  0.00  0.00    +0.109 C 
ATOM     21  C   UNL     1       6.869  -5.428  21.083  0.00  0.00    +0.027 C 
ATOM     22  C   UNL     1       5.656  -6.361  21.257  0.00  0.00    +0.004 C 
ATOM     23  C   UNL     1       5.633  -5.912  22.732  0.00  0.00    +0.027 C 
ENDBRANCH   7  20
BRANCH   8  24
ATOM     24  N   UNL     1       8.614  -1.545  26.800  0.00  0.00    -0.342 N 
ATOM     25  H   UNL     1       7.787  -0.977  26.946  0.00  0.00    +0.144 HD
ATOM     26  H   UNL     1       9.228  -1.623  27.604  0.00  0.00    +0.144 HD
ENDBRANCH   8  24
TORSDOF 5
ENDMDL
MODEL 2
REMARK VINA RESULT:      -6.3      4.338      8.708
REMARK  Name = 
REMARK  7 active torsions:
REMARK  status: ('A' for Active; 'I' for Inactive)
REMARK    1  A    between atoms: C_1  and  O_2
REMARK    2  A    between atoms: O_2  and  C_3
REMARK    3  A    between atoms: C_4  and  O_5
REMARK    4  A    between atoms: O_5  and  C_6
REMARK    5  A    between atoms: C_8  and  C_11
REMARK    6  A    between atoms: N_13  and  C_14
REMARK    7  A    between atoms: C_22  and  N_23
REMARK                            x       y       z     vdW  Elec       q    Type
REMARK                         _______ _______ _______ _____ _____    ______ ____
ROOT
ATOM      1  C   UNL     1       9.066   3.381  23.371  0.00  0.00    +0.105 A 
ATOM      2  C   UNL     1       7.968   4.277  23.158  0.00  0.00    +0.086 A 
ATOM      3  C   UNL     1       8.510   5.540  23.317  0.00  0.00    +0.164 A 
ATOM      4  N   UNL     1       7.889   6.716  23.104  0.00  0.00    -0.216 NA
ATOM      5  C   UNL     1       6.625   6.541  22.702  0.00  0.00    +0.225 A 
ATOM      6  N   UNL     1       5.954   5.384  22.571  0.00  0.00    -0.220 NA
ATOM      7  N   UNL     1       9.802   5.347  23.728  0.00  0.00    -0.243 N 
ATOM      8  C   UNL     1       6.606   4.231  22.817  0.00  0.00    +0.131 A 
ATOM      9  N   UNL     1      10.154   4.047  23.800  0.00  0.00    -0.168 NA
ENDROOT
BRANCH   1  13
ATOM     10  C   UNL     1       9.239  -0.859  22.721  0.00  0.00    +0.162 A 
ATOM     11  C   UNL     1       9.218   0.023  21.634  0.00  0.00    +0.050 A 
ATOM     12  C   UNL     1       9.180   1.408  21.840  0.00  0.00    +0.014 A 
ATOM     13  C   UNL     1       9.127   1.932  23.134  0.00  0.00    +0.007 A 
ATOM     14  C   UNL     1       9.070   1.037  24.211  0.00  0.00    +0.059 A 
ATOM     15  C   UNL     1       9.175  -0.346  24.026  0.00  0.00    +0.162 A 
BRANCH  10  17
ATOM     16  C   UNL     1       8.017  -2.878  22.440  0.00  0.00    +0.277 C 
ATOM     17  O   UNL     1       9.270  -2.225  22.599  0.00  0.00    -0.491 OA
ENDBRANCH  10  17
BRANCH  15  18
ATOM     18  O   UNL     1       9.214  -1.248  25.061  0.00  0.00    -0.491 OA
ATOM     19  C   UNL     1       8.571  -0.865  26.275  0.00  0.00    +0.277 C 
ENDBRANCH  15  18
ENDBRANCH   1  13
BRANCH   7  20
ATOM     20  C   UNL     1      10.694   6.444  24.021  0.00  0.00    +0.109 C 
ATOM     21  C   UNL     1      12.163   5.998  24.284  0.00  0.00    +0.027 C 
ATOM     22  C   UNL     1      12.206   7.053  25.406  0.00  0.00    +0.004 C 
ATOM     23  C   UNL     1      10.681   6.865  25.523  0.00  0.00    +0.027 C 
ENDBRANCH   7  20
BRANCH   8  24
ATOM     24  N   UNL     1       5.835   3.077  22.733  0.00  0.00    -0.342 N 
ATOM     25  H   UNL     1       6.032   2.393  23.456  0.00  0.00    +0.144 HD
ATOM     26  H   UNL     1       4.856   3.323  22.633  0.00  0.00    +0.144 HD
ENDBRANCH   8  24
TORSDOF 5
ENDMDL
MODEL 3
REMARK VINA RESULT:      -6.3      3.729      7.180
REMARK  Name = 
REMARK  7 active torsions:
REMARK  status: ('A' for Active; 'I' for Inactive)
REMARK    1  A    between atoms: C_1  and  O_2
REMARK    2  A    between atoms: O_2  and  C_3
REMARK    3  A    between atoms: C_4  and  O_5
REMARK    4  A    between atoms: O_5  and  C_6
REMARK    5  A    between atoms: C_8  and  C_11
REMARK    6  A    between atoms: N_13  and  C_14
REMARK    7  A    between atoms: C_22  and  N_23
REMARK                            x       y       z     vdW  Elec       q    Type
REMARK                         _______ _______ _______ _____ _____    ______ ____
ROOT
ATOM      1  C   UNL     1       7.740  -0.410  23.972  0.00  0.00    +0.105 A 
ATOM      2  C   UNL     1       8.637   0.542  23.385  0.00  0.00    +0.086 A 
ATOM      3  C   UNL     1       8.644   1.608  24.269  0.00  0.00    +0.164 A 
ATOM      4  N   UNL     1       9.426   2.702  24.204  0.00  0.00    -0.216 NA
ATOM      5  C   UNL     1      10.242   2.664  23.145  0.00  0.00    +0.225 A 
ATOM      6  N   UNL     1      10.295   1.733  22.178  0.00  0.00    -0.220 NA
ATOM      7  N   UNL     1       7.701   1.316  25.218  0.00  0.00    -0.243 N 
ATOM      8  C   UNL     1       9.479   0.664  22.268  0.00  0.00    +0.131 A 
ATOM      9  N   UNL     1       7.115   0.114  25.043  0.00  0.00    -0.168 NA
ENDROOT
BRANCH   1  13
ATOM     10  C   UNL     1       7.064  -4.499  22.852  0.00  0.00    +0.162 A 
ATOM     11  C   UNL     1       6.234  -3.485  22.361  0.00  0.00    +0.050 A 
ATOM     12  C   UNL     1       6.460  -2.147  22.707  0.00  0.00    +0.014 A 
ATOM     13  C   UNL     1       7.498  -1.805  23.579  0.00  0.00    +0.007 A 
ATOM     14  C   UNL     1       8.273  -2.837  24.125  0.00  0.00    +0.059 A 
ATOM     15  C   UNL     1       8.103  -4.170  23.737  0.00  0.00    +0.162 A 
BRANCH  10  17
ATOM     16  C   UNL     1       6.238  -6.139  21.344  0.00  0.00    +0.277 C 
ATOM     17  O   UNL     1       6.902  -5.830  22.562  0.00  0.00    -0.491 OA
ENDBRANCH  10  17
BRANCH  15  18
ATOM     18  O   UNL     1       8.901  -5.196  24.181  0.00  0.00    -0.491 OA
ATOM     19  C   UNL     1       9.628  -4.972  25.387  0.00  0.00    +0.277 C 
ENDBRANCH  15  18
ENDBRANCH   1  13
BRANCH   7  20
ATOM     20  C   UNL     1       7.399   2.211  26.311  0.00  0.00    +0.109 C 
ATOM     21  C   UNL     1       6.795   1.494  27.553  0.00  0.00    +0.027 C 
ATOM     22  C   UNL     1       5.848   2.700  27.700  0.00  0.00    +0.004 C 
ATOM     23  C   UNL     1       6.004   2.896  26.179  0.00  0.00    +0.027 C 
ENDBRANCH   7  20
BRANCH   8  24
ATOM     24  N   UNL     1       9.533  -0.223  21.199  0.00  0.00    -0.342 N 
ATOM     25  H   UNL     1       8.742  -0.160  20.568  0.00  0.00    +0.144 HD
ATOM     26  H   UNL     1      10.443  -0.170  20.753  0.00  0.00    +0.144 HD
ENDBRANCH   8  24
TORSDOF 5
ENDMDL
MODEL 4
REMARK VINA RESULT:      -6.2      3.283      6.964
REMARK  Name = 
REMARK  7 active torsions:
REMARK  status: ('A' for Active; 'I' for Inactive)
REMARK    1  A    between atoms: C_1  and  O_2
REMARK    2  A    between atoms: O_2  and  C_3
REMARK    3  A    between atoms: C_4  and  O_5
REMARK    4  A    between atoms: O_5  and  C_6
REMARK    5  A    between atoms: C_8  and  C_11
REMARK    6  A    between atoms: N_13  and  C_14
REMARK    7  A    between atoms: C_22  and  N_23
REMARK                            x       y       z     vdW  Elec       q    Type
REMARK                         _______ _______ _______ _____ _____    ______ ____
ROOT
ATOM      1  C   UNL     1       7.331  -0.428  23.212  0.00  0.00    +0.105 A 
ATOM      2  C   UNL     1       8.696  -0.252  23.613  0.00  0.00    +0.086 A 
ATOM      3  C   UNL     1       8.910   1.114  23.538  0.00  0.00    +0.164 A 
ATOM      4  N   UNL     1      10.015   1.778  23.925  0.00  0.00    -0.216 NA
ATOM      5  C   UNL     1      10.943   0.949  24.416  0.00  0.00    +0.225 A 
ATOM      6  N   UNL     1      10.897  -0.392  24.485  0.00  0.00    -0.220 NA
ATOM      7  N   UNL     1       7.769   1.645  22.998  0.00  0.00    -0.243 N 
ATOM      8  C   UNL     1       9.781  -1.020  24.065  0.00  0.00    +0.131 A 
ATOM      9  N   UNL     1       6.809   0.727  22.761  0.00  0.00    -0.168 NA
ENDROOT
BRANCH   1  13
ATOM     10  C   UNL     1       4.923  -3.977  23.409  0.00  0.00    +0.162 A 
ATOM     11  C   UNL     1       4.924  -3.064  24.469  0.00  0.00    +0.050 A 
ATOM     12  C   UNL     1       5.693  -1.895  24.403  0.00  0.00    +0.014 A 
ATOM     13  C   UNL     1       6.501  -1.638  23.292  0.00  0.00    +0.007 A 
ATOM     14  C   UNL     1       6.550  -2.598  22.272  0.00  0.00    +0.059 A 
ATOM     15  C   UNL     1       5.738  -3.736  22.291  0.00  0.00    +0.162 A 
BRANCH  10  17
ATOM     16  C   UNL     1       4.628  -6.159  24.301  0.00  0.00    +0.277 C 
ATOM     17  O   UNL     1       4.202  -5.144  23.403  0.00  0.00    -0.491 OA
ENDBRANCH  10  17
BRANCH  15  18
ATOM     18  O   UNL     1       5.693  -4.652  21.268  0.00  0.00    -0.491 OA
ATOM     19  C   UNL     1       6.726  -5.634  21.236  0.00  0.00    +0.277 C 
ENDBRANCH  15  18
ENDBRANCH   1  13
BRANCH   7  20
ATOM     20  C   UNL     1       7.617   3.058  22.742  0.00  0.00    +0.109 C 
ATOM     21  C   UNL     1       7.258   3.885  24.011  0.00  0.00    +0.027 C 
ATOM     22  C   UNL     1       6.301   4.701  23.121  0.00  0.00    +0.004 C 
ATOM     23  C   UNL     1       6.194   3.444  22.235  0.00  0.00    +0.027 C 
ENDBRANCH   7  20
BRANCH   8  24
ATOM     24  N   UNL     1       9.827  -2.409  24.096  0.00  0.00    -0.342 N 
ATOM     25  H   UNL     1      10.668  -2.806  23.692  0.00  0.00    +0.144 HD
ATOM     26  H   UNL     1       9.603  -2.741  25.029  0.00  0.00    +0.144 HD
ENDBRANCH   8  24
TORSDOF 5
ENDMDL
MODEL 5
REMARK VINA RESULT:      -6.0      3.383      7.035
REMARK  Name = 
REMARK  7 active torsions:
REMARK  status: ('A' for Active; 'I' for Inactive)
REMARK    1  A    between atoms: C_1  and  O_2
REMARK    2  A    between atoms: O_2  and  C_3
REMARK    3  A    between atoms: C_4  and  O_5
REMARK    4  A    between atoms: O_5  and  C_6
REMARK    5  A    between atoms: C_8  and  C_11
REMARK    6  A    between atoms: N_13  and  C_14
REMARK    7  A    between atoms: C_22  and  N_23
REMARK                            x       y       z     vdW  Elec       q    Type
REMARK                         _______ _______ _______ _____ _____    ______ ____
ROOT
ATOM      1  C   UNL     1       7.289  -0.802  23.403  0.00  0.00    +0.105 A 
ATOM      2  C   UNL     1       8.627  -0.310  23.549  0.00  0.00    +0.086 A 
ATOM      3  C   UNL     1       8.481   1.056  23.721  0.00  0.00    +0.164 A 
ATOM      4  N   UNL     1       9.456   1.940  24.009  0.00  0.00    -0.216 NA
ATOM      5  C   UNL     1      10.647   1.343  24.119  0.00  0.00    +0.225 A 
ATOM      6  N   UNL     1      10.943   0.049  23.914  0.00  0.00    -0.220 NA
ATOM      7  N   UNL     1       7.149   1.318  23.543  0.00  0.00    -0.243 N 
ATOM      8  C   UNL     1       9.942  -0.799  23.605  0.00  0.00    +0.131 A 
ATOM      9  N   UNL     1       6.409   0.213  23.317  0.00  0.00    -0.168 NA
ENDROOT
BRANCH   1  13
ATOM     10  C   UNL     1       5.934  -4.876  23.413  0.00  0.00    +0.162 A 
ATOM     11  C   UNL     1       5.635  -4.034  22.336  0.00  0.00    +0.050 A 
ATOM     12  C   UNL     1       6.090  -2.709  22.318  0.00  0.00    +0.014 A 
ATOM     13  C   UNL     1       6.820  -2.195  23.392  0.00  0.00    +0.007 A 
ATOM     14  C   UNL     1       7.046  -3.025  24.498  0.00  0.00    +0.059 A 
ATOM     15  C   UNL     1       6.658  -4.368  24.503  0.00  0.00    +0.162 A 
BRANCH  10  17
ATOM     16  C   UNL     1       4.133  -6.392  23.735  0.00  0.00    +0.277 C 
ATOM     17  O   UNL     1       5.520  -6.180  23.504  0.00  0.00    -0.491 OA
ENDBRANCH  10  17
BRANCH  15  18
ATOM     18  O   UNL     1       6.942  -5.235  25.531  0.00  0.00    -0.491 OA
ATOM     19  C   UNL     1       8.289  -5.267  25.994  0.00  0.00    +0.277 C 
ENDBRANCH  15  18
ENDBRANCH   1  13
BRANCH   7  20
ATOM     20  C   UNL     1       6.604   2.653  23.624  0.00  0.00    +0.109 C 
ATOM     21  C   UNL     1       5.048   2.689  23.661  0.00  0.00    +0.027 C 
ATOM     22  C   UNL     1       5.126   3.919  22.738  0.00  0.00    +0.004 C 
ATOM     23  C   UNL     1       6.466   3.348  22.235  0.00  0.00    +0.027 C 
ENDBRANCH   7  20
BRANCH   8  24
ATOM     24  N   UNL     1      10.327  -2.108  23.334  0.00  0.00    -0.342 N 
ATOM     25  H   UNL     1      10.979  -2.198  22.563  0.00  0.00    +0.144 HD
ATOM     26  H   UNL     1      10.613  -2.567  24.193  0.00  0.00    +0.144 HD
ENDBRANCH   8  24
TORSDOF 5
ENDMDL
MODEL 6
REMARK VINA RESULT:      -5.9      1.963      2.463
REMARK  Name = 
REMARK  7 active torsions:
REMARK  status: ('A' for Active; 'I' for Inactive)
REMARK    1  A    between atoms: C_1  and  O_2
REMARK    2  A    between atoms: O_2  and  C_3
REMARK    3  A    between atoms: C_4  and  O_5
REMARK    4  A    between atoms: O_5  and  C_6
REMARK    5  A    between atoms: C_8  and  C_11
REMARK    6  A    between atoms: N_13  and  C_14
REMARK    7  A    between atoms: C_22  and  N_23
REMARK                            x       y       z     vdW  Elec       q    Type
REMARK                         _______ _______ _______ _____ _____    ______ ____
ROOT
ATOM      1  C   UNL     1       6.386  -3.095  24.234  0.00  0.00    +0.105 A 
ATOM      2  C   UNL     1       6.842  -3.820  25.383  0.00  0.00    +0.086 A 
ATOM      3  C   UNL     1       5.943  -4.864  25.518  0.00  0.00    +0.164 A 
ATOM      4  N   UNL     1       6.020  -5.883  26.394  0.00  0.00    -0.216 NA
ATOM      5  C   UNL     1       7.106  -5.788  27.169  0.00  0.00    +0.225 A 
ATOM      6  N   UNL     1       8.019  -4.803  27.192  0.00  0.00    -0.220 NA
ATOM      7  N   UNL     1       4.971  -4.648  24.578  0.00  0.00    -0.243 N 
ATOM      8  C   UNL     1       7.893  -3.789  26.314  0.00  0.00    +0.131 A 
ATOM      9  N   UNL     1       5.199  -3.565  23.808  0.00  0.00    -0.168 NA
ENDROOT
BRANCH   1  13
ATOM     10  C   UNL     1       8.334   0.094  22.119  0.00  0.00    +0.162 A 
ATOM     11  C   UNL     1       8.871  -1.199  22.100  0.00  0.00    +0.050 A 
ATOM     12  C   UNL     1       8.230  -2.247  22.773  0.00  0.00    +0.014 A 
ATOM     13  C   UNL     1       7.062  -2.013  23.504  0.00  0.00    +0.007 A 
ATOM     14  C   UNL     1       6.579  -0.700  23.579  0.00  0.00    +0.059 A 
ATOM     15  C   UNL     1       7.167   0.344  22.859  0.00  0.00    +0.162 A 
BRANCH  10  17
ATOM     16  C   UNL     1      10.079   1.707  22.089  0.00  0.00    +0.277 C 
ATOM     17  O   UNL     1       8.906   1.171  21.490  0.00  0.00    -0.491 OA
ENDBRANCH  10  17
BRANCH  15  18
ATOM     18  O   UNL     1       6.668   1.624  22.835  0.00  0.00    -0.491 OA
ATOM     19  C   UNL     1       6.835   2.403  24.017  0.00  0.00    +0.277 C 
ENDBRANCH  15  18
ENDBRANCH   1  13
BRANCH   7  20
ATOM     20  C   UNL     1       3.835  -5.526  24.423  0.00  0.00    +0.109 C 
ATOM     21  C   UNL     1       3.641  -6.041  22.967  0.00  0.00    +0.027 C 
ATOM     22  C   UNL     1       2.127  -5.856  23.179  0.00  0.00    +0.004 C 
ATOM     23  C   UNL     1       2.492  -4.763  24.203  0.00  0.00    +0.027 C 
ENDBRANCH   7  20
BRANCH   8  24
ATOM     24  N   UNL     1       8.828  -2.767  26.440  0.00  0.00    -0.342 N 
ATOM     25  H   UNL     1       9.048  -2.522  27.399  0.00  0.00    +0.144 HD
ATOM     26  H   UNL     1       9.632  -2.962  25.852  0.00  0.00    +0.144 HD
ENDBRANCH   8  24
TORSDOF 5
ENDMDL
MODEL 7
REMARK VINA RESULT:      -5.9      2.414      4.454
REMARK  Name = 
REMARK  7 active torsions:
REMARK  status: ('A' for Active; 'I' for Inactive)
REMARK    1  A    between atoms: C_1  and  O_2
REMARK    2  A    between atoms: O_2  and  C_3
REMARK    3  A    between atoms: C_4  and  O_5
REMARK    4  A    between atoms: O_5  and  C_6
REMARK    5  A    between atoms: C_8  and  C_11
REMARK    6  A    between atoms: N_13  and  C_14
REMARK    7  A    between atoms: C_22  and  N_23
REMARK                            x       y       z     vdW  Elec       q    Type
REMARK                         _______ _______ _______ _____ _____    ______ ____
ROOT
ATOM      1  C   UNL     1       7.012  -4.015  25.300  0.00  0.00    +0.105 A 
ATOM      2  C   UNL     1       6.136  -4.539  24.293  0.00  0.00    +0.086 A 
ATOM      3  C   UNL     1       5.358  -5.472  24.957  0.00  0.00    +0.164 A 
ATOM      4  N   UNL     1       4.311  -6.152  24.452  0.00  0.00    -0.216 NA
ATOM      5  C   UNL     1       4.079  -5.825  23.175  0.00  0.00    +0.225 A 
ATOM      6  N   UNL     1       4.789  -4.993  22.395  0.00  0.00    -0.220 NA
ATOM      7  N   UNL     1       5.868  -5.555  26.225  0.00  0.00    -0.243 N 
ATOM      8  C   UNL     1       5.844  -4.350  22.932  0.00  0.00    +0.131 A 
ATOM      9  N   UNL     1       6.891  -4.705  26.449  0.00  0.00    -0.168 NA
ENDROOT
BRANCH   1  13
ATOM     10  C   UNL     1       9.660  -0.648  25.024  0.00  0.00    +0.162 A 
ATOM     11  C   UNL     1       8.821  -0.798  26.133  0.00  0.00    +0.050 A 
ATOM     12  C   UNL     1       7.968  -1.904  26.238  0.00  0.00    +0.014 A 
ATOM     13  C   UNL     1       7.915  -2.859  25.219  0.00  0.00    +0.007 A 
ATOM     14  C   UNL     1       8.703  -2.656  24.078  0.00  0.00    +0.059 A 
ATOM     15  C   UNL     1       9.609  -1.594  23.988  0.00  0.00    +0.162 A 
BRANCH  10  17
ATOM     16  C   UNL     1       9.926   1.656  24.504  0.00  0.00    +0.277 C 
ATOM     17  O   UNL     1      10.517   0.409  24.848  0.00  0.00    -0.491 OA
ENDBRANCH  10  17
BRANCH  15  18
ATOM     18  O   UNL     1      10.462  -1.414  22.926  0.00  0.00    -0.491 OA
ATOM     19  C   UNL     1       9.879  -0.995  21.694  0.00  0.00    +0.277 C 
ENDBRANCH  15  18
ENDBRANCH   1  13
BRANCH   7  20
ATOM     20  C   UNL     1       5.327  -6.450  27.220  0.00  0.00    +0.109 C 
ATOM     21  C   UNL     1       4.081  -5.879  27.959  0.00  0.00    +0.027 C 
ATOM     22  C   UNL     1       4.654  -6.493  29.250  0.00  0.00    +0.004 C 
ATOM     23  C   UNL     1       6.044  -6.342  28.601  0.00  0.00    +0.027 C 
ENDBRANCH   7  20
BRANCH   8  24
ATOM     24  N   UNL     1       6.578  -3.563  22.053  0.00  0.00    -0.342 N 
ATOM     25  H   UNL     1       7.235  -4.081  21.480  0.00  0.00    +0.144 HD
ATOM     26  H   UNL     1       5.955  -2.947  21.540  0.00  0.00    +0.144 HD
ENDBRANCH   8  24
TORSDOF 5
ENDMDL
MODEL 8
REMARK VINA RESULT:      -5.8      2.289      4.369
REMARK  Name = 
REMARK  7 active torsions:
REMARK  status: ('A' for Active; 'I' for Inactive)
REMARK    1  A    between atoms: C_1  and  O_2
REMARK    2  A    between atoms: O_2  and  C_3
REMARK    3  A    between atoms: C_4  and  O_5
REMARK    4  A    between atoms: O_5  and  C_6
REMARK    5  A    between atoms: C_8  and  C_11
REMARK    6  A    between atoms: N_13  and  C_14
REMARK    7  A    between atoms: C_22  and  N_23
REMARK                            x       y       z     vdW  Elec       q    Type
REMARK                         _______ _______ _______ _____ _____    ______ ____
ROOT
ATOM      1  C   UNL     1       6.834  -4.207  24.825  0.00  0.00    +0.105 A 
ATOM      2  C   UNL     1       5.857  -4.891  24.030  0.00  0.00    +0.086 A 
ATOM      3  C   UNL     1       5.178  -5.699  24.926  0.00  0.00    +0.164 A 
ATOM      4  N   UNL     1       4.093  -6.452  24.668  0.00  0.00    -0.216 NA
ATOM      5  C   UNL     1       3.709  -6.345  23.392  0.00  0.00    +0.225 A 
ATOM      6  N   UNL     1       4.308  -5.657  22.406  0.00  0.00    -0.220 NA
ATOM      7  N   UNL     1       5.832  -5.567  26.122  0.00  0.00    -0.243 N 
ATOM      8  C   UNL     1       5.406  -4.934  22.700  0.00  0.00    +0.131 A 
ATOM      9  N   UNL     1       6.859  -4.694  26.080  0.00  0.00    -0.168 NA
ENDROOT
BRANCH   1  13
ATOM     10  C   UNL     1       9.328  -0.893  23.719  0.00  0.00    +0.162 A 
ATOM     11  C   UNL     1       9.899  -2.124  24.060  0.00  0.00    +0.050 A 
ATOM     12  C   UNL     1       9.090  -3.215  24.404  0.00  0.00    +0.014 A 
ATOM     13  C   UNL     1       7.699  -3.082  24.447  0.00  0.00    +0.007 A 
ATOM     14  C   UNL     1       7.145  -1.823  24.179  0.00  0.00    +0.059 A 
ATOM     15  C   UNL     1       7.933  -0.743  23.768  0.00  0.00    +0.162 A 
BRANCH  10  17
ATOM     16  C   UNL     1      10.980   0.696  24.344  0.00  0.00    +0.277 C 
ATOM     17  O   UNL     1      10.054   0.220  23.377  0.00  0.00    -0.491 OA
ENDBRANCH  10  17
BRANCH  15  18
ATOM     18  O   UNL     1       7.417   0.479  23.410  0.00  0.00    -0.491 OA
ATOM     19  C   UNL     1       6.287   0.942  24.145  0.00  0.00    +0.277 C 
ENDBRANCH  15  18
ENDBRANCH   1  13
BRANCH   7  20
ATOM     20  C   UNL     1       5.427  -6.281  27.310  0.00  0.00    +0.109 C 
ATOM     21  C   UNL     1       4.367  -5.523  28.161  0.00  0.00    +0.027 C 
ATOM     22  C   UNL     1       5.124  -6.011  29.410  0.00  0.00    +0.004 C 
ATOM     23  C   UNL     1       6.383  -6.056  28.521  0.00  0.00    +0.027 C 
ENDBRANCH   7  20
BRANCH   8  24
ATOM     24  N   UNL     1       6.019  -4.307  21.622  0.00  0.00    -0.342 N 
ATOM     25  H   UNL     1       5.824  -4.738  20.725  0.00  0.00    +0.144 HD
ATOM     26  H   UNL     1       5.847  -3.307  21.662  0.00  0.00    +0.144 HD
ENDBRANCH   8  24
TORSDOF 5
ENDMDL
MODEL 9
REMARK VINA RESULT:      -5.8      2.057      2.853
REMARK  Name = 
REMARK  7 active torsions:
REMARK  status: ('A' for Active; 'I' for Inactive)
REMARK    1  A    between atoms: C_1  and  O_2
REMARK    2  A    between atoms: O_2  and  C_3
REMARK    3  A    between atoms: C_4  and  O_5
REMARK    4  A    between atoms: O_5  and  C_6
REMARK    5  A    between atoms: C_8  and  C_11
REMARK    6  A    between atoms: N_13  and  C_14
REMARK    7  A    between atoms: C_22  and  N_23
REMARK                            x       y       z     vdW  Elec       q    Type
REMARK                         _______ _______ _______ _____ _____    ______ ____
ROOT
ATOM      1  C   UNL     1       6.092  -2.270  24.702  0.00  0.00    +0.105 A 
ATOM      2  C   UNL     1       6.905  -3.105  25.536  0.00  0.00    +0.086 A 
ATOM      3  C   UNL     1       6.309  -4.353  25.470  0.00  0.00    +0.164 A 
ATOM      4  N   UNL     1       6.777  -5.497  26.005  0.00  0.00    -0.216 NA
ATOM      5  C   UNL     1       7.936  -5.306  26.644  0.00  0.00    +0.225 A 
ATOM      6  N   UNL     1       8.588  -4.149  26.842  0.00  0.00    -0.220 NA
ATOM      7  N   UNL     1       5.157  -4.183  24.749  0.00  0.00    -0.243 N 
ATOM      8  C   UNL     1       8.074  -3.022  26.310  0.00  0.00    +0.131 A 
ATOM      9  N   UNL     1       4.986  -2.923  24.299  0.00  0.00    -0.168 NA
ENDROOT
BRANCH   1  13
ATOM     10  C   UNL     1       6.890   1.714  23.315  0.00  0.00    +0.162 A 
ATOM     11  C   UNL     1       6.003   1.499  24.375  0.00  0.00    +0.050 A 
ATOM     12  C   UNL     1       5.752   0.203  24.845  0.00  0.00    +0.014 A 
ATOM     13  C   UNL     1       6.357  -0.901  24.238  0.00  0.00    +0.007 A 
ATOM     14  C   UNL     1       7.182  -0.678  23.128  0.00  0.00    +0.059 A 
ATOM     15  C   UNL     1       7.495   0.612  22.689  0.00  0.00    +0.162 A 
BRANCH  10  17
ATOM     16  C   UNL     1       6.085   3.702  22.291  0.00  0.00    +0.277 C 
ATOM     17  O   UNL     1       7.181   2.951  22.797  0.00  0.00    -0.491 OA
ENDBRANCH  10  17
BRANCH  15  18
ATOM     18  O   UNL     1       8.371   0.873  21.663  0.00  0.00    -0.491 OA
ATOM     19  C   UNL     1       9.638   0.222  21.715  0.00  0.00    +0.277 C 
ENDBRANCH  15  18
ENDBRANCH   1  13
BRANCH   7  20
ATOM     20  C   UNL     1       4.243  -5.268  24.482  0.00  0.00    +0.109 C 
ATOM     21  C   UNL     1       4.280  -5.764  23.007  0.00  0.00    +0.027 C 
ATOM     22  C   UNL     1       2.748  -5.899  23.090  0.00  0.00    +0.004 C 
ATOM     23  C   UNL     1       2.795  -4.788  24.158  0.00  0.00    +0.027 C 
ENDBRANCH   7  20
BRANCH   8  24
ATOM     24  N   UNL     1       8.757  -1.850  26.614  0.00  0.00    -0.342 N 
ATOM     25  H   UNL     1       9.704  -1.816  26.253  0.00  0.00    +0.144 HD
ATOM     26  H   UNL     1       8.182  -1.046  26.383  0.00  0.00    +0.144 HD
ENDBRANCH   8  24
TORSDOF 5
ENDMDL
