MODEL 1
REMARK VINA RESULT:      -7.1      0.000      0.000
REMARK  Name = 
REMARK  16 active torsions:
REMARK  status: ('A' for Active; 'I' for Inactive)
REMARK    1  A    between atoms: C_1  and  C_2
REMARK    2  A    between atoms: C_2  and  C_3
REMARK    3  A    between atoms: C_2  and  C_4
REMARK    4  A    between atoms: C_2  and  C_6
REMARK    5  A    between atoms: C_4  and  O_5
REMARK    6  A    between atoms: C_6  and  O_8
REMARK    7  A    between atoms: C_6  and  C_9
REMARK    8  A    between atoms: C_9  and  O_11
REMARK    9  A    between atoms: O_11  and  P_12
REMARK   10  A    between atoms: P_12  and  O_13
REMARK   11  A    between atoms: P_12  and  O_15
REMARK   12  A    between atoms: O_15  and  C_16
REMARK   13  A    between atoms: C_16  and  C_17
REMARK   14  A    between atoms: C_20  and  N_28
REMARK   15  A    between atoms: C_22  and  O_24
REMARK   16  A    between atoms: C_25  and  O_27
REMARK                            x       y       z     vdW  Elec       q    Type
REMARK                         _______ _______ _______ _____ _____    ______ ____
ROOT
ATOM      1  C   UNL     1       8.320  -4.226  26.541  0.00  0.00    +0.178 C 
ATOM      2  C   UNL     1       8.529  -5.263  25.447  0.00  0.00    +0.178 C 
ATOM      3  C   UNL     1       8.409  -4.484  24.143  0.00  0.00    +0.195 C 
ATOM      4  C   UNL     1       8.055  -3.053  24.574  0.00  0.00    +0.253 C 
ATOM      5  O   UNL     1       8.482  -2.936  25.944  0.00  0.00    -0.346 OA
ENDROOT
BRANCH   4   6
ATOM      6  N   UNL     1       8.700  -1.991  23.831  0.00  0.00    -0.286 N 
ATOM      7  C   UNL     1       8.164  -0.783  23.480  0.00  0.00    +0.167 A 
ATOM      8  N   UNL     1       6.934  -0.312  23.753  0.00  0.00    -0.216 NA
ATOM      9  C   UNL     1       6.753   0.897  23.182  0.00  0.00    +0.225 A 
ATOM     10  N   UNL     1       7.623   1.617  22.440  0.00  0.00    -0.219 NA
ATOM     11  C   UNL     1       8.846   1.096  22.201  0.00  0.00    +0.147 A 
ATOM     12  N   UNL     1       9.741   1.828  21.431  0.00  0.00    -0.341 N 
ATOM     13  H   UNL     1      10.708   1.559  21.577  0.00  0.00    +0.144 HD
ATOM     14  H   UNL     1       9.521   2.814  21.421  0.00  0.00    +0.144 HD
ATOM     15  C   UNL     1       9.160  -0.157  22.748  0.00  0.00    +0.147 A 
ATOM     16  N   UNL     1      10.306  -0.921  22.713  0.00  0.00    -0.231 NA
ATOM     17  C   UNL     1       9.998  -2.010  23.384  0.00  0.00    +0.203 A 
ENDBRANCH   4   6
BRANCH   2  18
ATOM     18  O   UNL     1       9.851  -5.820  25.563  0.00  0.00    -0.386 OA
ATOM     19  H   UNL     1       9.773  -6.782  25.697  0.00  0.00    +0.210 HD
ENDBRANCH   2  18
BRANCH   3  20
ATOM     20  O   UNL     1       7.400  -5.052  23.307  0.00  0.00    -0.385 OA
ATOM     21  H   UNL     1       7.210  -4.381  22.621  0.00  0.00    +0.210 HD
ENDBRANCH   3  20
BRANCH   1  22
ATOM     22  C   UNL     1       6.953  -4.322  27.198  0.00  0.00    +0.207 C 
BRANCH  22  23
ATOM     23  O   UNL     1       6.711  -5.535  27.937  0.00  0.00    -0.274 OA
BRANCH  23  24
ATOM     24  P   UNL     1       5.188  -6.286  27.613  0.00  0.00    +0.533 P 
ATOM     25  O   UNL     1       5.595  -6.728  26.201  0.00  0.00    -0.215 OA
BRANCH  24  26
ATOM     26  O   UNL     1       5.605  -7.551  28.565  0.00  0.00    -0.293 OA
ATOM     27  H   UNL     1       6.418  -7.943  28.192  0.00  0.00    +0.223 HD
ENDBRANCH  24  26
BRANCH  24  28
ATOM     28  O   UNL     1       3.663  -7.038  27.289  0.00  0.00    -0.369 OA
BRANCH  28  29
ATOM     29  C   UNL     1       2.853  -6.287  26.515  0.00  0.00    +0.344 C 
ATOM     30  O   UNL     1       2.579  -5.128  26.793  0.00  0.00    -0.248 OA
BRANCH  29  31
ATOM     31  C   UNL     1       2.321  -7.068  25.301  0.00  0.00    +0.231 C 
BRANCH  31  33
ATOM     32  C   UNL     1       1.346  -5.096  24.043  0.00  0.00    +0.016 C 
ATOM     33  C   UNL     1       2.375  -6.249  23.976  0.00  0.00    +0.025 C 
ATOM     34  C   UNL     1       2.002  -7.128  22.764  0.00  0.00    +0.016 C 
BRANCH  33  35
ATOM     35  C   UNL     1       3.776  -5.649  23.745  0.00  0.00    +0.165 C 
BRANCH  35  36
ATOM     36  O   UNL     1       4.704  -6.661  23.380  0.00  0.00    -0.394 OA
ATOM     37  H   UNL     1       4.699  -6.733  22.409  0.00  0.00    +0.209 HD
ENDBRANCH  35  36
ENDBRANCH  33  35
ENDBRANCH  31  33
BRANCH  31  38
ATOM     38  O   UNL     1       3.085  -8.272  25.145  0.00  0.00    -0.380 OA
ATOM     39  H   UNL     1       4.024  -8.026  25.098  0.00  0.00    +0.211 HD
ENDBRANCH  31  38
ENDBRANCH  29  31
ENDBRANCH  28  29
ENDBRANCH  24  28
ENDBRANCH  23  24
ENDBRANCH  22  23
ENDBRANCH   1  22
TORSDOF 14
ENDMDL
MODEL 2
REMARK VINA RESULT:      -7.0      2.552      4.596
REMARK  Name = 
REMARK  16 active torsions:
REMARK  status: ('A' for Active; 'I' for Inactive)
REMARK    1  A    between atoms: C_1  and  C_2
REMARK    2  A    between atoms: C_2  and  C_3
REMARK    3  A    between atoms: C_2  and  C_4
REMARK    4  A    between atoms: C_2  and  C_6
REMARK    5  A    between atoms: C_4  and  O_5
REMARK    6  A    between atoms: C_6  and  O_8
REMARK    7  A    between atoms: C_6  and  C_9
REMARK    8  A    between atoms: C_9  and  O_11
REMARK    9  A    between atoms: O_11  and  P_12
REMARK   10  A    between atoms: P_12  and  O_13
REMARK   11  A    between atoms: P_12  and  O_15
REMARK   12  A    between atoms: O_15  and  C_16
REMARK   13  A    between atoms: C_16  and  C_17
REMARK   14  A    between atoms: C_20  and  N_28
REMARK   15  A    between atoms: C_22  and  O_24
REMARK   16  A    between atoms: C_25  and  O_27
REMARK                            x       y       z     vdW  Elec       q    Type
REMARK                         _______ _______ _______ _____ _____    ______ ____
ROOT
ATOM      1  C   UNL     1       8.358  -1.703  24.241  0.00  0.00    +0.178 C 
ATOM      2  C   UNL     1       8.954  -0.996  25.449  0.00  0.00    +0.178 C 
ATOM      3  C   UNL     1       9.192   0.435  24.985  0.00  0.00    +0.195 C 
ATOM      4  C   UNL     1       8.789   0.437  23.503  0.00  0.00    +0.253 C 
ATOM      5  O   UNL     1       7.916  -0.693  23.330  0.00  0.00    -0.346 OA
ENDROOT
BRANCH   4   6
ATOM      6  N   UNL     1       8.072   1.609  23.045  0.00  0.00    -0.286 N 
ATOM      7  C   UNL     1       8.449   2.916  23.183  0.00  0.00    +0.167 A 
ATOM      8  N   UNL     1       9.563   3.400  23.761  0.00  0.00    -0.216 NA
ATOM      9  C   UNL     1       9.548   4.750  23.761  0.00  0.00    +0.225 A 
ATOM     10  N   UNL     1       8.606   5.581  23.264  0.00  0.00    -0.219 NA
ATOM     11  C   UNL     1       7.509   5.039  22.690  0.00  0.00    +0.147 A 
ATOM     12  N   UNL     1       6.534   5.890  22.186  0.00  0.00    -0.341 N 
ATOM     13  H   UNL     1       5.940   5.450  21.492  0.00  0.00    +0.144 HD
ATOM     14  H   UNL     1       6.896   6.811  21.984  0.00  0.00    +0.144 HD
ATOM     15  C   UNL     1       7.410   3.642  22.622  0.00  0.00    +0.147 A 
ATOM     16  N   UNL     1       6.456   2.807  22.083  0.00  0.00    -0.231 NA
ATOM     17  C   UNL     1       6.892   1.593  22.343  0.00  0.00    +0.203 A 
ENDBRANCH   4   6
BRANCH   2  18
ATOM     18  O   UNL     1       8.003  -1.008  26.528  0.00  0.00    -0.386 OA
ATOM     19  H   UNL     1       7.117  -1.183  26.160  0.00  0.00    +0.210 HD
ENDBRANCH   2  18
BRANCH   3  20
ATOM     20  O   UNL     1      10.561   0.804  25.163  0.00  0.00    -0.385 OA
ATOM     21  H   UNL     1      10.655   1.691  24.764  0.00  0.00    +0.210 HD
ENDBRANCH   3  20
BRANCH   1  22
ATOM     22  C   UNL     1       9.344  -2.628  23.547  0.00  0.00    +0.207 C 
BRANCH  22  23
ATOM     23  O   UNL     1      10.066  -3.520  24.418  0.00  0.00    -0.274 OA
BRANCH  23  24
ATOM     24  P   UNL     1       9.086  -4.705  25.209  0.00  0.00    +0.533 P 
ATOM     25  O   UNL     1       8.670  -5.381  23.896  0.00  0.00    -0.215 OA
BRANCH  24  26
ATOM     26  O   UNL     1      10.431  -5.517  25.668  0.00  0.00    -0.293 OA
ATOM     27  H   UNL     1      11.124  -4.854  25.856  0.00  0.00    +0.223 HD
ENDBRANCH  24  26
BRANCH  24  28
ATOM     28  O   UNL     1       8.105  -5.891  26.001  0.00  0.00    -0.369 OA
BRANCH  28  29
ATOM     29  C   UNL     1       7.235  -5.359  26.885  0.00  0.00    +0.344 C 
ATOM     30  O   UNL     1       7.115  -5.796  28.021  0.00  0.00    -0.248 OA
BRANCH  29  31
ATOM     31  C   UNL     1       6.431  -4.195  26.281  0.00  0.00    +0.231 C 
BRANCH  31  33
ATOM     32  C   UNL     1       4.578  -3.607  24.656  0.00  0.00    +0.016 C 
ATOM     33  C   UNL     1       5.051  -4.638  25.709  0.00  0.00    +0.025 C 
ATOM     34  C   UNL     1       3.979  -4.688  26.817  0.00  0.00    +0.016 C 
BRANCH  33  35
ATOM     35  C   UNL     1       5.141  -6.022  25.038  0.00  0.00    +0.165 C 
BRANCH  35  36
ATOM     36  O   UNL     1       5.787  -5.931  23.776  0.00  0.00    -0.394 OA
ATOM     37  H   UNL     1       6.426  -6.664  23.716  0.00  0.00    +0.209 HD
ENDBRANCH  35  36
ENDBRANCH  33  35
ENDBRANCH  31  33
BRANCH  31  38
ATOM     38  O   UNL     1       6.228  -3.193  27.288  0.00  0.00    -0.380 OA
ATOM     39  H   UNL     1       7.068  -3.066  27.757  0.00  0.00    +0.211 HD
ENDBRANCH  31  38
ENDBRANCH  29  31
ENDBRANCH  28  29
ENDBRANCH  24  28
ENDBRANCH  23  24
ENDBRANCH  22  23
ENDBRANCH   1  22
TORSDOF 14
ENDMDL
MODEL 3
REMARK VINA RESULT:      -7.0      3.969      8.021
REMARK  Name = 
REMARK  16 active torsions:
REMARK  status: ('A' for Active; 'I' for Inactive)
REMARK    1  A    between atoms: C_1  and  C_2
REMARK    2  A    between atoms: C_2  and  C_3
REMARK    3  A    between atoms: C_2  and  C_4
REMARK    4  A    between atoms: C_2  and  C_6
REMARK    5  A    between atoms: C_4  and  O_5
REMARK    6  A    between atoms: C_6  and  O_8
REMARK    7  A    between atoms: C_6  and  C_9
REMARK    8  A    between atoms: C_9  and  O_11
REMARK    9  A    between atoms: O_11  and  P_12
REMARK   10  A    between atoms: P_12  and  O_13
REMARK   11  A    between atoms: P_12  and  O_15
REMARK   12  A    between atoms: O_15  and  C_16
REMARK   13  A    between atoms: C_16  and  C_17
REMARK   14  A    between atoms: C_20  and  N_28
REMARK   15  A    between atoms: C_22  and  O_24
REMARK   16  A    between atoms: C_25  and  O_27
REMARK                            x       y       z     vdW  Elec       q    Type
REMARK                         _______ _______ _______ _____ _____    ______ ____
ROOT
ATOM      1  C   UNL     1       8.380  -4.556  25.392  0.00  0.00    +0.178 C 
ATOM      2  C   UNL     1       7.665  -4.674  26.730  0.00  0.00    +0.178 C 
ATOM      3  C   UNL     1       6.197  -4.419  26.411  0.00  0.00    +0.195 C 
ATOM      4  C   UNL     1       6.175  -4.087  24.911  0.00  0.00    +0.253 C 
ATOM      5  O   UNL     1       7.387  -4.642  24.366  0.00  0.00    -0.346 OA
ENDROOT
BRANCH   4   6
ATOM      6  N   UNL     1       5.071  -4.643  24.158  0.00  0.00    -0.286 N 
ATOM      7  C   UNL     1       3.738  -4.403  24.345  0.00  0.00    +0.167 A 
ATOM      8  N   UNL     1       3.161  -3.599  25.256  0.00  0.00    -0.216 NA
ATOM      9  C   UNL     1       1.816  -3.675  25.170  0.00  0.00    +0.225 A 
ATOM     10  N   UNL     1       1.067  -4.410  24.319  0.00  0.00    -0.219 NA
ATOM     11  C   UNL     1       1.700  -5.198  23.423  0.00  0.00    +0.147 A 
ATOM     12  N   UNL     1       0.934  -5.963  22.552  0.00  0.00    -0.341 N 
ATOM     13  H   UNL     1       1.438  -6.244  21.718  0.00  0.00    +0.144 HD
ATOM     14  H   UNL     1       0.000  -5.595  22.440  0.00  0.00    +0.144 HD
ATOM     15  C   UNL     1       3.103  -5.201  23.406  0.00  0.00    +0.147 A 
ATOM     16  N   UNL     1       4.018  -5.855  22.611  0.00  0.00    -0.231 NA
ATOM     17  C   UNL     1       5.190  -5.487  23.081  0.00  0.00    +0.203 A 
ENDBRANCH   4   6
BRANCH   2  18
ATOM     18  O   UNL     1       7.828  -6.008  27.243  0.00  0.00    -0.386 OA
ATOM     19  H   UNL     1       6.989  -6.491  27.127  0.00  0.00    +0.210 HD
ENDBRANCH   2  18
BRANCH   3  20
ATOM     20  O   UNL     1       5.689  -3.342  27.200  0.00  0.00    -0.385 OA
ATOM     21  H   UNL     1       4.854  -3.666  27.592  0.00  0.00    +0.210 HD
ENDBRANCH   3  20
BRANCH   1  22
ATOM     22  C   UNL     1       9.160  -3.259  25.247  0.00  0.00    +0.207 C 
BRANCH  22  23
ATOM     23  O   UNL     1       9.910  -3.128  24.023  0.00  0.00    -0.274 OA
BRANCH  23  24
ATOM     24  P   UNL     1       9.495  -1.747  23.069  0.00  0.00    +0.533 P 
ATOM     25  O   UNL     1      10.748  -1.857  22.189  0.00  0.00    -0.215 OA
BRANCH  24  26
ATOM     26  O   UNL     1       8.369  -2.630  22.274  0.00  0.00    -0.293 OA
ATOM     27  H   UNL     1       8.489  -3.563  22.537  0.00  0.00    +0.223 HD
ENDBRANCH  24  26
BRANCH  24  28
ATOM     28  O   UNL     1       9.081  -0.365  22.114  0.00  0.00    -0.369 OA
BRANCH  28  29
ATOM     29  C   UNL     1       8.033   0.328  22.606  0.00  0.00    +0.344 C 
ATOM     30  O   UNL     1       7.010  -0.224  22.985  0.00  0.00    -0.248 OA
BRANCH  29  31
ATOM     31  C   UNL     1       8.283   1.846  22.596  0.00  0.00    +0.231 C 
BRANCH  31  33
ATOM     32  C   UNL     1       8.688   1.451  25.066  0.00  0.00    +0.016 C 
ATOM     33  C   UNL     1       9.047   2.349  23.858  0.00  0.00    +0.025 C 
ATOM     34  C   UNL     1       8.637   3.791  24.218  0.00  0.00    +0.016 C 
BRANCH  33  35
ATOM     35  C   UNL     1      10.573   2.302  23.644  0.00  0.00    +0.165 C 
BRANCH  35  36
ATOM     36  O   UNL     1      11.029   3.485  23.003  0.00  0.00    -0.394 OA
ATOM     37  H   UNL     1      10.248   4.023  22.781  0.00  0.00    +0.209 HD
ENDBRANCH  35  36
ENDBRANCH  33  35
ENDBRANCH  31  33
BRANCH  31  38
ATOM     38  O   UNL     1       9.031   2.191  21.421  0.00  0.00    -0.380 OA
ATOM     39  H   UNL     1       8.662   1.692  20.674  0.00  0.00    +0.211 HD
ENDBRANCH  31  38
ENDBRANCH  29  31
ENDBRANCH  28  29
ENDBRANCH  24  28
ENDBRANCH  23  24
ENDBRANCH  22  23
ENDBRANCH   1  22
TORSDOF 14
ENDMDL
MODEL 4
REMARK VINA RESULT:      -7.0      1.944      3.487
REMARK  Name = 
REMARK  16 active torsions:
REMARK  status: ('A' for Active; 'I' for Inactive)
REMARK    1  A    between atoms: C_1  and  C_2
REMARK    2  A    between atoms: C_2  and  C_3
REMARK    3  A    between atoms: C_2  and  C_4
REMARK    4  A    between atoms: C_2  and  C_6
REMARK    5  A    between atoms: C_4  and  O_5
REMARK    6  A    between atoms: C_6  and  O_8
REMARK    7  A    between atoms: C_6  and  C_9
REMARK    8  A    between atoms: C_9  and  O_11
REMARK    9  A    between atoms: O_11  and  P_12
REMARK   10  A    between atoms: P_12  and  O_13
REMARK   11  A    between atoms: P_12  and  O_15
REMARK   12  A    between atoms: O_15  and  C_16
REMARK   13  A    between atoms: C_16  and  C_17
REMARK   14  A    between atoms: C_20  and  N_28
REMARK   15  A    between atoms: C_22  and  O_24
REMARK   16  A    between atoms: C_25  and  O_27
REMARK                            x       y       z     vdW  Elec       q    Type
REMARK                         _______ _______ _______ _____ _____    ______ ____
ROOT
ATOM      1  C   UNL     1       7.115  -4.881  24.288  0.00  0.00    +0.178 C 
ATOM      2  C   UNL     1       8.160  -5.357  25.286  0.00  0.00    +0.178 C 
ATOM      3  C   UNL     1       9.294  -4.345  25.175  0.00  0.00    +0.195 C 
ATOM      4  C   UNL     1       8.858  -3.392  24.053  0.00  0.00    +0.253 C 
ATOM      5  O   UNL     1       7.429  -3.526  23.953  0.00  0.00    -0.346 OA
ENDROOT
BRANCH   4   6
ATOM      6  N   UNL     1       9.145  -1.989  24.269  0.00  0.00    -0.286 N 
ATOM      7  C   UNL     1       9.329  -1.026  23.317  0.00  0.00    +0.167 A 
ATOM      8  N   UNL     1       9.277  -1.163  21.979  0.00  0.00    -0.216 NA
ATOM      9  C   UNL     1       9.578   0.005  21.372  0.00  0.00    +0.225 A 
ATOM     10  N   UNL     1       9.885   1.193  21.937  0.00  0.00    -0.219 NA
ATOM     11  C   UNL     1       9.918   1.273  23.285  0.00  0.00    +0.147 A 
ATOM     12  N   UNL     1      10.242   2.491  23.871  0.00  0.00    -0.341 N 
ATOM     13  H   UNL     1       9.921   2.571  24.829  0.00  0.00    +0.144 HD
ATOM     14  H   UNL     1      10.078   3.270  23.249  0.00  0.00    +0.144 HD
ATOM     15  C   UNL     1       9.616   0.125  24.032  0.00  0.00    +0.147 A 
ATOM     16  N   UNL     1       9.535  -0.101  25.389  0.00  0.00    -0.231 NA
ATOM     17  C   UNL     1       9.237  -1.378  25.495  0.00  0.00    +0.203 A 
ENDBRANCH   4   6
BRANCH   2  18
ATOM     18  O   UNL     1       7.604  -5.323  26.612  0.00  0.00    -0.386 OA
ATOM     19  H   UNL     1       7.494  -4.393  26.881  0.00  0.00    +0.210 HD
ENDBRANCH   2  18
BRANCH   3  20
ATOM     20  O   UNL     1      10.526  -5.000  24.868  0.00  0.00    -0.385 OA
ATOM     21  H   UNL     1      10.951  -5.190  25.727  0.00  0.00    +0.210 HD
ENDBRANCH   3  20
BRANCH   1  22
ATOM     22  C   UNL     1       7.069  -5.727  23.026  0.00  0.00    +0.207 C 
BRANCH  22  23
ATOM     23  O   UNL     1       5.772  -6.257  22.690  0.00  0.00    -0.274 OA
BRANCH  23  24
ATOM     24  P   UNL     1       4.540  -5.947  23.863  0.00  0.00    +0.533 P 
ATOM     25  O   UNL     1       3.579  -5.333  22.837  0.00  0.00    -0.215 OA
BRANCH  24  26
ATOM     26  O   UNL     1       4.149  -7.537  23.877  0.00  0.00    -0.293 OA
ATOM     27  H   UNL     1       3.627  -7.703  24.685  0.00  0.00    +0.223 HD
ENDBRANCH  24  26
BRANCH  24  28
ATOM     28  O   UNL     1       3.308  -5.637  25.038  0.00  0.00    -0.369 OA
BRANCH  28  29
ATOM     29  C   UNL     1       3.343  -6.488  26.084  0.00  0.00    +0.344 C 
ATOM     30  O   UNL     1       2.544  -7.406  26.201  0.00  0.00    -0.248 OA
BRANCH  29  31
ATOM     31  C   UNL     1       4.461  -6.138  27.081  0.00  0.00    +0.231 C 
BRANCH  31  33
ATOM     32  C   UNL     1       3.566  -6.864  29.338  0.00  0.00    +0.016 C 
ATOM     33  C   UNL     1       3.921  -5.643  28.457  0.00  0.00    +0.025 C 
ATOM     34  C   UNL     1       2.634  -4.811  28.283  0.00  0.00    +0.016 C 
BRANCH  33  35
ATOM     35  C   UNL     1       4.971  -4.789  29.195  0.00  0.00    +0.165 C 
BRANCH  35  36
ATOM     36  O   UNL     1       6.228  -5.451  29.226  0.00  0.00    -0.394 OA
ATOM     37  H   UNL     1       6.170  -6.169  29.882  0.00  0.00    +0.209 HD
ENDBRANCH  35  36
ENDBRANCH  33  35
ENDBRANCH  31  33
BRANCH  31  38
ATOM     38  O   UNL     1       5.287  -7.292  27.284  0.00  0.00    -0.380 OA
ATOM     39  H   UNL     1       4.929  -8.016  26.744  0.00  0.00    +0.211 HD
ENDBRANCH  31  38
ENDBRANCH  29  31
ENDBRANCH  28  29
ENDBRANCH  24  28
ENDBRANCH  23  24
ENDBRANCH  22  23
ENDBRANCH   1  22
TORSDOF 14
ENDMDL
MODEL 5
REMARK VINA RESULT:      -7.0      2.909      4.710
REMARK  Name = 
REMARK  16 active torsions:
REMARK  status: ('A' for Active; 'I' for Inactive)
REMARK    1  A    between atoms: C_1  and  C_2
REMARK    2  A    between atoms: C_2  and  C_3
REMARK    3  A    between atoms: C_2  and  C_4
REMARK    4  A    between atoms: C_2  and  C_6
REMARK    5  A    between atoms: C_4  and  O_5
REMARK    6  A    between atoms: C_6  and  O_8
REMARK    7  A    between atoms: C_6  and  C_9
REMARK    8  A    between atoms: C_9  and  O_11
REMARK    9  A    between atoms: O_11  and  P_12
REMARK   10  A    between atoms: P_12  and  O_13
REMARK   11  A    between atoms: P_12  and  O_15
REMARK   12  A    between atoms: O_15  and  C_16
REMARK   13  A    between atoms: C_16  and  C_17
REMARK   14  A    between atoms: C_20  and  N_28
REMARK   15  A    between atoms: C_22  and  O_24
REMARK   16  A    between atoms: C_25  and  O_27
REMARK                            x       y       z     vdW  Elec       q    Type
REMARK                         _______ _______ _______ _____ _____    ______ ____
ROOT
ATOM      1  C   UNL     1      10.014  -1.281  23.251  0.00  0.00    +0.178 C 
ATOM      2  C   UNL     1       8.892  -1.186  22.229  0.00  0.00    +0.178 C 
ATOM      3  C   UNL     1       8.223   0.154  22.507  0.00  0.00    +0.195 C 
ATOM      4  C   UNL     1       8.959   0.711  23.734  0.00  0.00    +0.253 C 
ATOM      5  O   UNL     1      10.229   0.033  23.774  0.00  0.00    -0.346 OA
ENDROOT
BRANCH   4   6
ATOM      6  N   UNL     1       9.231   2.133  23.716  0.00  0.00    -0.286 N 
ATOM      7  C   UNL     1       8.324   3.150  23.822  0.00  0.00    +0.167 A 
ATOM      8  N   UNL     1       6.990   3.058  23.974  0.00  0.00    -0.216 NA
ATOM      9  C   UNL     1       6.428   4.285  23.974  0.00  0.00    +0.225 A 
ATOM     10  N   UNL     1       7.032   5.488  23.860  0.00  0.00    -0.219 NA
ATOM     11  C   UNL     1       8.375   5.520  23.713  0.00  0.00    +0.147 A 
ATOM     12  N   UNL     1       9.000   6.754  23.586  0.00  0.00    -0.341 N 
ATOM     13  H   UNL     1       9.985   6.730  23.823  0.00  0.00    +0.144 HD
ATOM     14  H   UNL     1       8.441   7.507  23.962  0.00  0.00    +0.144 HD
ATOM     15  C   UNL     1       9.078   4.307  23.705  0.00  0.00    +0.147 A 
ATOM     16  N   UNL     1      10.421   4.016  23.608  0.00  0.00    -0.231 NA
ATOM     17  C   UNL     1      10.478   2.702  23.631  0.00  0.00    +0.203 A 
ENDBRANCH   4   6
BRANCH   2  18
ATOM     18  O   UNL     1       9.451  -1.187  20.904  0.00  0.00    -0.386 OA
ATOM     19  H   UNL     1       8.984  -1.854  20.368  0.00  0.00    +0.210 HD
ENDBRANCH   2  18
BRANCH   3  20
ATOM     20  O   UNL     1       6.828  -0.020  22.759  0.00  0.00    -0.385 OA
ATOM     21  H   UNL     1       6.363   0.470  22.051  0.00  0.00    +0.210 HD
ENDBRANCH   3  20
BRANCH   1  22
ATOM     22  C   UNL     1       9.705  -2.243  24.387  0.00  0.00    +0.207 C 
BRANCH  22  23
ATOM     23  O   UNL     1      10.023  -3.624  24.125  0.00  0.00    -0.274 OA
BRANCH  23  24
ATOM     24  P   UNL     1       9.135  -4.761  25.077  0.00  0.00    +0.533 P 
ATOM     25  O   UNL     1       8.625  -5.535  23.854  0.00  0.00    -0.215 OA
BRANCH  24  26
ATOM     26  O   UNL     1      10.529  -5.520  25.477  0.00  0.00    -0.293 OA
ATOM     27  H   UNL     1      10.472  -5.759  26.422  0.00  0.00    +0.223 HD
ENDBRANCH  24  26
BRANCH  24  28
ATOM     28  O   UNL     1       8.246  -5.900  26.029  0.00  0.00    -0.369 OA
BRANCH  28  29
ATOM     29  C   UNL     1       7.344  -5.321  26.848  0.00  0.00    +0.344 C 
ATOM     30  O   UNL     1       7.089  -5.773  27.956  0.00  0.00    -0.248 OA
BRANCH  29  31
ATOM     31  C   UNL     1       6.689  -4.085  26.210  0.00  0.00    +0.231 C 
BRANCH  31  33
ATOM     32  C   UNL     1       4.209  -4.294  26.688  0.00  0.00    +0.016 C 
ATOM     33  C   UNL     1       5.292  -4.385  25.587  0.00  0.00    +0.025 C 
ATOM     34  C   UNL     1       5.238  -5.812  25.004  0.00  0.00    +0.016 C 
BRANCH  33  35
ATOM     35  C   UNL     1       4.949  -3.377  24.472  0.00  0.00    +0.165 C 
BRANCH  35  36
ATOM     36  O   UNL     1       6.066  -2.550  24.177  0.00  0.00    -0.394 OA
ATOM     37  H   UNL     1       6.352  -2.129  25.008  0.00  0.00    +0.209 HD
ENDBRANCH  35  36
ENDBRANCH  33  35
ENDBRANCH  31  33
BRANCH  31  38
ATOM     38  O   UNL     1       6.553  -3.059  27.205  0.00  0.00    -0.380 OA
ATOM     39  H   UNL     1       6.351  -3.489  28.052  0.00  0.00    +0.211 HD
ENDBRANCH  31  38
ENDBRANCH  29  31
ENDBRANCH  28  29
ENDBRANCH  24  28
ENDBRANCH  23  24
ENDBRANCH  22  23
ENDBRANCH   1  22
TORSDOF 14
ENDMDL
MODEL 6
REMARK VINA RESULT:      -6.9      4.253      8.671
REMARK  Name = 
REMARK  16 active torsions:
REMARK  status: ('A' for Active; 'I' for Inactive)
REMARK    1  A    between atoms: C_1  and  C_2
REMARK    2  A    between atoms: C_2  and  C_3
REMARK    3  A    between atoms: C_2  and  C_4
REMARK    4  A    between atoms: C_2  and  C_6
REMARK    5  A    between atoms: C_4  and  O_5
REMARK    6  A    between atoms: C_6  and  O_8
REMARK    7  A    between atoms: C_6  and  C_9
REMARK    8  A    between atoms: C_9  and  O_11
REMARK    9  A    between atoms: O_11  and  P_12
REMARK   10  A    between atoms: P_12  and  O_13
REMARK   11  A    between atoms: P_12  and  O_15
REMARK   12  A    between atoms: O_15  and  C_16
REMARK   13  A    between atoms: C_16  and  C_17
REMARK   14  A    between atoms: C_20  and  N_28
REMARK   15  A    between atoms: C_22  and  O_24
REMARK   16  A    between atoms: C_25  and  O_27
REMARK                            x       y       z     vdW  Elec       q    Type
REMARK                         _______ _______ _______ _____ _____    ______ ____
ROOT
ATOM      1  C   UNL     1       6.203  -3.558  22.284  0.00  0.00    +0.178 C 
ATOM      2  C   UNL     1       7.200  -4.701  22.168  0.00  0.00    +0.178 C 
ATOM      3  C   UNL     1       7.232  -5.333  23.553  0.00  0.00    +0.195 C 
ATOM      4  C   UNL     1       6.304  -4.454  24.405  0.00  0.00    +0.253 C 
ATOM      5  O   UNL     1       5.441  -3.774  23.475  0.00  0.00    -0.346 OA
ENDROOT
BRANCH   4   6
ATOM      6  N   UNL     1       5.455  -5.156  25.344  0.00  0.00    -0.286 N 
ATOM      7  C   UNL     1       5.816  -5.677  26.556  0.00  0.00    +0.167 A 
ATOM      8  N   UNL     1       7.026  -5.648  27.143  0.00  0.00    -0.216 NA
ATOM      9  C   UNL     1       7.003  -6.328  28.309  0.00  0.00    +0.225 A 
ATOM     10  N   UNL     1       5.964  -6.966  28.891  0.00  0.00    -0.219 NA
ATOM     11  C   UNL     1       4.771  -6.960  28.258  0.00  0.00    +0.147 A 
ATOM     12  N   UNL     1       3.702  -7.622  28.848  0.00  0.00    -0.341 N 
ATOM     13  H   UNL     1       2.800  -7.299  28.518  0.00  0.00    +0.144 HD
ATOM     14  H   UNL     1       3.827  -7.741  29.844  0.00  0.00    +0.144 HD
ATOM     15  C   UNL     1       4.664  -6.278  27.037  0.00  0.00    +0.147 A 
ATOM     16  N   UNL     1       3.601  -6.067  26.185  0.00  0.00    -0.231 NA
ATOM     17  C   UNL     1       4.109  -5.378  25.186  0.00  0.00    +0.203 A 
ENDBRANCH   4   6
BRANCH   2  18
ATOM     18  O   UNL     1       6.721  -5.658  21.206  0.00  0.00    -0.386 OA
ATOM     19  H   UNL     1       7.486  -6.032  20.731  0.00  0.00    +0.210 HD
ENDBRANCH   2  18
BRANCH   3  20
ATOM     20  O   UNL     1       8.564  -5.354  24.069  0.00  0.00    -0.385 OA
ATOM     21  H   UNL     1       9.137  -5.026  23.348  0.00  0.00    +0.210 HD
ENDBRANCH   3  20
BRANCH   1  22
ATOM     22  C   UNL     1       6.868  -2.192  22.338  0.00  0.00    +0.207 C 
BRANCH  22  23
ATOM     23  O   UNL     1       8.251  -2.167  21.934  0.00  0.00    -0.274 OA
BRANCH  23  24
ATOM     24  P   UNL     1       9.307  -1.348  23.031  0.00  0.00    +0.533 P 
ATOM     25  O   UNL     1       9.294  -2.493  24.052  0.00  0.00    -0.215 OA
BRANCH  24  26
ATOM     26  O   UNL     1      10.582  -1.689  22.063  0.00  0.00    -0.293 OA
ATOM     27  H   UNL     1      11.323  -1.963  22.639  0.00  0.00    +0.223 HD
ENDBRANCH  24  26
BRANCH  24  28
ATOM     28  O   UNL     1      10.365  -0.529  24.129  0.00  0.00    -0.369 OA
BRANCH  28  29
ATOM     29  C   UNL     1      10.607   0.752  23.781  0.00  0.00    +0.344 C 
ATOM     30  O   UNL     1      11.607   1.348  24.155  0.00  0.00    -0.248 OA
BRANCH  29  31
ATOM     31  C   UNL     1       9.485   1.340  22.909  0.00  0.00    +0.231 C 
BRANCH  31  33
ATOM     32  C   UNL     1       9.544   3.669  23.905  0.00  0.00    +0.016 C 
ATOM     33  C   UNL     1       8.650   2.434  23.641  0.00  0.00    +0.025 C 
ATOM     34  C   UNL     1       8.149   1.928  25.009  0.00  0.00    +0.016 C 
BRANCH  33  35
ATOM     35  C   UNL     1       7.438   2.872  22.796  0.00  0.00    +0.165 C 
BRANCH  35  36
ATOM     36  O   UNL     1       7.770   3.985  21.977  0.00  0.00    -0.394 OA
ATOM     37  H   UNL     1       8.169   4.666  22.548  0.00  0.00    +0.209 HD
ENDBRANCH  35  36
ENDBRANCH  33  35
ENDBRANCH  31  33
BRANCH  31  38
ATOM     38  O   UNL     1      10.058   1.899  21.719  0.00  0.00    -0.380 OA
ATOM     39  H   UNL     1      10.885   1.425  21.534  0.00  0.00    +0.211 HD
ENDBRANCH  31  38
ENDBRANCH  29  31
ENDBRANCH  28  29
ENDBRANCH  24  28
ENDBRANCH  23  24
ENDBRANCH  22  23
ENDBRANCH   1  22
TORSDOF 14
ENDMDL
MODEL 7
REMARK VINA RESULT:      -6.9      3.836      8.161
REMARK  Name = 
REMARK  16 active torsions:
REMARK  status: ('A' for Active; 'I' for Inactive)
REMARK    1  A    between atoms: C_1  and  C_2
REMARK    2  A    between atoms: C_2  and  C_3
REMARK    3  A    between atoms: C_2  and  C_4
REMARK    4  A    between atoms: C_2  and  C_6
REMARK    5  A    between atoms: C_4  and  O_5
REMARK    6  A    between atoms: C_6  and  O_8
REMARK    7  A    between atoms: C_6  and  C_9
REMARK    8  A    between atoms: C_9  and  O_11
REMARK    9  A    between atoms: O_11  and  P_12
REMARK   10  A    between atoms: P_12  and  O_13
REMARK   11  A    between atoms: P_12  and  O_15
REMARK   12  A    between atoms: O_15  and  C_16
REMARK   13  A    between atoms: C_16  and  C_17
REMARK   14  A    between atoms: C_20  and  N_28
REMARK   15  A    between atoms: C_22  and  O_24
REMARK   16  A    between atoms: C_25  and  O_27
REMARK                            x       y       z     vdW  Elec       q    Type
REMARK                         _______ _______ _______ _____ _____    ______ ____
ROOT
ATOM      1  C   UNL     1       8.557  -5.104  25.796  0.00  0.00    +0.178 C 
ATOM      2  C   UNL     1       7.739  -4.826  27.049  0.00  0.00    +0.178 C 
ATOM      3  C   UNL     1       6.384  -4.358  26.535  0.00  0.00    +0.195 C 
ATOM      4  C   UNL     1       6.538  -4.319  25.007  0.00  0.00    +0.253 C 
ATOM      5  O   UNL     1       7.643  -5.189  24.699  0.00  0.00    -0.346 OA
ENDROOT
BRANCH   4   6
ATOM      6  N   UNL     1       5.399  -4.784  24.245  0.00  0.00    -0.286 N 
ATOM      7  C   UNL     1       4.602  -5.860  24.521  0.00  0.00    +0.167 A 
ATOM      8  N   UNL     1       4.693  -6.714  25.556  0.00  0.00    -0.216 NA
ATOM      9  C   UNL     1       3.766  -7.689  25.449  0.00  0.00    +0.225 A 
ATOM     10  N   UNL     1       2.831  -7.860  24.489  0.00  0.00    -0.219 NA
ATOM     11  C   UNL     1       2.784  -6.969  23.474  0.00  0.00    +0.147 A 
ATOM     12  N   UNL     1       1.830  -7.146  22.479  0.00  0.00    -0.341 N 
ATOM     13  H   UNL     1       1.626  -6.296  21.966  0.00  0.00    +0.144 HD
ATOM     14  H   UNL     1       1.052  -7.709  22.790  0.00  0.00    +0.144 HD
ATOM     15  C   UNL     1       3.694  -5.902  23.476  0.00  0.00    +0.147 A 
ATOM     16  N   UNL     1       3.873  -4.837  22.620  0.00  0.00    -0.231 NA
ATOM     17  C   UNL     1       4.897  -4.179  23.119  0.00  0.00    +0.203 A 
ENDBRANCH   4   6
BRANCH   2  18
ATOM     18  O   UNL     1       7.583  -6.045  27.797  0.00  0.00    -0.386 OA
ATOM     19  H   UNL     1       7.641  -5.837  28.748  0.00  0.00    +0.210 HD
ENDBRANCH   2  18
BRANCH   3  20
ATOM     20  O   UNL     1       6.057  -3.074  27.069  0.00  0.00    -0.385 OA
ATOM     21  H   UNL     1       5.291  -2.755  26.550  0.00  0.00    +0.210 HD
ENDBRANCH   3  20
BRANCH   1  22
ATOM     22  C   UNL     1       9.599  -4.032  25.517  0.00  0.00    +0.207 C 
BRANCH  22  23
ATOM     23  O   UNL     1       9.807  -3.728  24.124  0.00  0.00    -0.274 OA
BRANCH  23  24
ATOM     24  P   UNL     1       9.698  -2.047  23.730  0.00  0.00    +0.533 P 
ATOM     25  O   UNL     1       8.549  -2.255  22.734  0.00  0.00    -0.215 OA
BRANCH  24  26
ATOM     26  O   UNL     1       8.945  -1.759  25.154  0.00  0.00    -0.293 OA
ATOM     27  H   UNL     1       8.217  -1.132  24.979  0.00  0.00    +0.223 HD
ENDBRANCH  24  26
BRANCH  24  28
ATOM     28  O   UNL     1       9.589  -0.366  23.336  0.00  0.00    -0.369 OA
BRANCH  28  29
ATOM     29  C   UNL     1       9.989   0.444  24.338  0.00  0.00    +0.344 C 
ATOM     30  O   UNL     1      11.032   0.255  24.948  0.00  0.00    -0.248 OA
BRANCH  29  31
ATOM     31  C   UNL     1       8.980   1.571  24.612  0.00  0.00    +0.231 C 
BRANCH  31  33
ATOM     32  C   UNL     1      10.688   3.013  23.418  0.00  0.00    +0.016 C 
ATOM     33  C   UNL     1       9.178   2.809  23.686  0.00  0.00    +0.025 C 
ATOM     34  C   UNL     1       8.651   4.095  24.355  0.00  0.00    +0.016 C 
BRANCH  33  35
ATOM     35  C   UNL     1       8.458   2.618  22.336  0.00  0.00    +0.165 C 
BRANCH  35  36
ATOM     36  O   UNL     1       9.342   2.076  21.365  0.00  0.00    -0.394 OA
ATOM     37  H   UNL     1       9.958   2.782  21.097  0.00  0.00    +0.209 HD
ENDBRANCH  35  36
ENDBRANCH  33  35
ENDBRANCH  31  33
BRANCH  31  38
ATOM     38  O   UNL     1       7.649   1.062  24.445  0.00  0.00    -0.380 OA
ATOM     39  H   UNL     1       7.248   0.979  25.325  0.00  0.00    +0.211 HD
ENDBRANCH  31  38
ENDBRANCH  29  31
ENDBRANCH  28  29
ENDBRANCH  24  28
ENDBRANCH  23  24
ENDBRANCH  22  23
ENDBRANCH   1  22
TORSDOF 14
ENDMDL
MODEL 8
REMARK VINA RESULT:      -6.9      4.886      9.295
REMARK  Name = 
REMARK  16 active torsions:
REMARK  status: ('A' for Active; 'I' for Inactive)
REMARK    1  A    between atoms: C_1  and  C_2
REMARK    2  A    between atoms: C_2  and  C_3
REMARK    3  A    between atoms: C_2  and  C_4
REMARK    4  A    between atoms: C_2  and  C_6
REMARK    5  A    between atoms: C_4  and  O_5
REMARK    6  A    between atoms: C_6  and  O_8
REMARK    7  A    between atoms: C_6  and  C_9
REMARK    8  A    between atoms: C_9  and  O_11
REMARK    9  A    between atoms: O_11  and  P_12
REMARK   10  A    between atoms: P_12  and  O_13
REMARK   11  A    between atoms: P_12  and  O_15
REMARK   12  A    between atoms: O_15  and  C_16
REMARK   13  A    between atoms: C_16  and  C_17
REMARK   14  A    between atoms: C_20  and  N_28
REMARK   15  A    between atoms: C_22  and  O_24
REMARK   16  A    between atoms: C_25  and  O_27
REMARK                            x       y       z     vdW  Elec       q    Type
REMARK                         _______ _______ _______ _____ _____    ______ ____
ROOT
ATOM      1  C   UNL     1       8.228  -0.831  23.375  0.00  0.00    +0.178 C 
ATOM      2  C   UNL     1       6.758  -0.789  22.983  0.00  0.00    +0.178 C 
ATOM      3  C   UNL     1       6.212  -2.158  23.369  0.00  0.00    +0.195 C 
ATOM      4  C   UNL     1       7.433  -2.933  23.887  0.00  0.00    +0.253 C 
ATOM      5  O   UNL     1       8.402  -1.937  24.265  0.00  0.00    -0.346 OA
ENDROOT
BRANCH   4   6
ATOM      6  N   UNL     1       7.204  -3.770  25.046  0.00  0.00    -0.286 N 
ATOM      7  C   UNL     1       6.358  -4.840  25.139  0.00  0.00    +0.167 A 
ATOM      8  N   UNL     1       5.564  -5.354  24.183  0.00  0.00    -0.216 NA
ATOM      9  C   UNL     1       4.826  -6.371  24.676  0.00  0.00    +0.225 A 
ATOM     10  N   UNL     1       4.825  -6.881  25.927  0.00  0.00    -0.219 NA
ATOM     11  C   UNL     1       5.645  -6.327  26.846  0.00  0.00    +0.147 A 
ATOM     12  N   UNL     1       5.641  -6.843  28.136  0.00  0.00    -0.341 N 
ATOM     13  H   UNL     1       6.486  -6.630  28.655  0.00  0.00    +0.144 HD
ATOM     14  H   UNL     1       5.291  -7.789  28.170  0.00  0.00    +0.144 HD
ATOM     15  C   UNL     1       6.471  -5.264  26.454  0.00  0.00    +0.147 A 
ATOM     16  N   UNL     1       7.417  -4.528  27.133  0.00  0.00    -0.231 NA
ATOM     17  C   UNL     1       7.846  -3.648  26.253  0.00  0.00    +0.203 A 
ENDBRANCH   4   6
BRANCH   2  18
ATOM     18  O   UNL     1       6.090   0.234  23.741  0.00  0.00    -0.386 OA
ATOM     19  H   UNL     1       5.936   1.002  23.160  0.00  0.00    +0.210 HD
ENDBRANCH   2  18
BRANCH   3  20
ATOM     20  O   UNL     1       5.615  -2.800  22.241  0.00  0.00    -0.385 OA
ATOM     21  H   UNL     1       4.892  -2.212  21.948  0.00  0.00    +0.210 HD
ENDBRANCH   3  20
BRANCH   1  22
ATOM     22  C   UNL     1       9.158  -0.978  22.181  0.00  0.00    +0.207 C 
BRANCH  22  23
ATOM     23  O   UNL     1      10.088   0.106  21.991  0.00  0.00    -0.274 OA
BRANCH  23  24
ATOM     24  P   UNL     1       9.791   1.493  22.981  0.00  0.00    +0.533 P 
ATOM     25  O   UNL     1      11.016   1.243  23.870  0.00  0.00    -0.215 OA
BRANCH  24  26
ATOM     26  O   UNL     1      10.352   2.466  21.791  0.00  0.00    -0.293 OA
ATOM     27  H   UNL     1       9.577   2.857  21.342  0.00  0.00    +0.223 HD
ENDBRANCH  24  26
BRANCH  24  28
ATOM     28  O   UNL     1       9.494   2.880  23.971  0.00  0.00    -0.369 OA
BRANCH  28  29
ATOM     29  C   UNL     1       8.185   3.076  24.236  0.00  0.00    +0.344 C 
ATOM     30  O   UNL     1       7.545   2.310  24.942  0.00  0.00    -0.248 OA
BRANCH  29  31
ATOM     31  C   UNL     1       7.630   4.326  23.534  0.00  0.00    +0.231 C 
BRANCH  31  33
ATOM     32  C   UNL     1       8.707   5.376  25.574  0.00  0.00    +0.016 C 
ATOM     33  C   UNL     1       8.140   5.658  24.162  0.00  0.00    +0.025 C 
ATOM     34  C   UNL     1       6.990   6.674  24.323  0.00  0.00    +0.016 C 
BRANCH  33  35
ATOM     35  C   UNL     1       9.250   6.294  23.302  0.00  0.00    +0.165 C 
BRANCH  35  36
ATOM     36  O   UNL     1      10.355   5.410  23.170  0.00  0.00    -0.394 OA
ATOM     37  H   UNL     1      10.314   5.013  22.281  0.00  0.00    +0.209 HD
ENDBRANCH  35  36
ENDBRANCH  33  35
ENDBRANCH  31  33
BRANCH  31  38
ATOM     38  O   UNL     1       7.995   4.287  22.147  0.00  0.00    -0.380 OA
ATOM     39  H   UNL     1       7.441   4.929  21.674  0.00  0.00    +0.211 HD
ENDBRANCH  31  38
ENDBRANCH  29  31
ENDBRANCH  28  29
ENDBRANCH  24  28
ENDBRANCH  23  24
ENDBRANCH  22  23
ENDBRANCH   1  22
TORSDOF 14
ENDMDL
MODEL 9
REMARK VINA RESULT:      -6.7      4.559      8.648
REMARK  Name = 
REMARK  16 active torsions:
REMARK  status: ('A' for Active; 'I' for Inactive)
REMARK    1  A    between atoms: C_1  and  C_2
REMARK    2  A    between atoms: C_2  and  C_3
REMARK    3  A    between atoms: C_2  and  C_4
REMARK    4  A    between atoms: C_2  and  C_6
REMARK    5  A    between atoms: C_4  and  O_5
REMARK    6  A    between atoms: C_6  and  O_8
REMARK    7  A    between atoms: C_6  and  C_9
REMARK    8  A    between atoms: C_9  and  O_11
REMARK    9  A    between atoms: O_11  and  P_12
REMARK   10  A    between atoms: P_12  and  O_13
REMARK   11  A    between atoms: P_12  and  O_15
REMARK   12  A    between atoms: O_15  and  C_16
REMARK   13  A    between atoms: C_16  and  C_17
REMARK   14  A    between atoms: C_20  and  N_28
REMARK   15  A    between atoms: C_22  and  O_24
REMARK   16  A    between atoms: C_25  and  O_27
REMARK                            x       y       z     vdW  Elec       q    Type
REMARK                         _______ _______ _______ _____ _____    ______ ____
ROOT
ATOM      1  C   UNL     1       8.500  -1.544  23.712  0.00  0.00    +0.178 C 
ATOM      2  C   UNL     1       7.263  -1.831  22.874  0.00  0.00    +0.178 C 
ATOM      3  C   UNL     1       6.876  -3.261  23.228  0.00  0.00    +0.195 C 
ATOM      4  C   UNL     1       7.972  -3.735  24.194  0.00  0.00    +0.253 C 
ATOM      5  O   UNL     1       8.564  -2.540  24.736  0.00  0.00    -0.346 OA
ENDROOT
BRANCH   4   6
ATOM      6  N   UNL     1       7.524  -4.538  25.312  0.00  0.00    -0.286 N 
ATOM      7  C   UNL     1       6.451  -5.385  25.345  0.00  0.00    +0.167 A 
ATOM      8  N   UNL     1       5.586  -5.665  24.354  0.00  0.00    -0.216 NA
ATOM      9  C   UNL     1       4.619  -6.501  24.791  0.00  0.00    +0.225 A 
ATOM     10  N   UNL     1       4.467  -7.042  26.019  0.00  0.00    -0.219 NA
ATOM     11  C   UNL     1       5.368  -6.728  26.975  0.00  0.00    +0.147 A 
ATOM     12  N   UNL     1       5.211  -7.276  28.242  0.00  0.00    -0.341 N 
ATOM     13  H   UNL     1       6.067  -7.284  28.784  0.00  0.00    +0.144 HD
ATOM     14  H   UNL     1       4.650  -8.116  28.230  0.00  0.00    +0.144 HD
ATOM     15  C   UNL     1       6.428  -5.872  26.642  0.00  0.00    +0.147 A 
ATOM     16  N   UNL     1       7.501  -5.401  27.368  0.00  0.00    -0.231 NA
ATOM     17  C   UNL     1       8.145  -4.614  26.535  0.00  0.00    +0.203 A 
ENDBRANCH   4   6
BRANCH   2  18
ATOM     18  O   UNL     1       6.209  -0.930  23.255  0.00  0.00    -0.386 OA
ATOM     19  H   UNL     1       6.598  -0.057  23.447  0.00  0.00    +0.210 HD
ENDBRANCH   2  18
BRANCH   3  20
ATOM     20  O   UNL     1       6.814  -4.073  22.055  0.00  0.00    -0.385 OA
ATOM     21  H   UNL     1       6.280  -3.571  21.408  0.00  0.00    +0.210 HD
ENDBRANCH   3  20
BRANCH   1  22
ATOM     22  C   UNL     1       9.786  -1.557  22.900  0.00  0.00    +0.207 C 
BRANCH  22  23
ATOM     23  O   UNL     1      10.586  -0.363  22.999  0.00  0.00    -0.274 OA
BRANCH  23  24
ATOM     24  P   UNL     1       9.680   1.108  23.073  0.00  0.00    +0.533 P 
ATOM     25  O   UNL     1      10.674   1.786  24.026  0.00  0.00    -0.215 OA
BRANCH  24  26
ATOM     26  O   UNL     1      10.215   1.516  21.581  0.00  0.00    -0.293 OA
ATOM     27  H   UNL     1       9.814   0.892  20.945  0.00  0.00    +0.223 HD
ENDBRANCH  24  26
BRANCH  24  28
ATOM     28  O   UNL     1       8.774   2.580  23.147  0.00  0.00    -0.369 OA
BRANCH  28  29
ATOM     29  C   UNL     1       7.675   2.569  22.365  0.00  0.00    +0.344 C 
ATOM     30  O   UNL     1       7.278   1.551  21.817  0.00  0.00    -0.248 OA
BRANCH  29  31
ATOM     31  C   UNL     1       7.035   3.962  22.243  0.00  0.00    +0.231 C 
BRANCH  31  33
ATOM     32  C   UNL     1       5.271   5.601  23.035  0.00  0.00    +0.016 C 
ATOM     33  C   UNL     1       5.811   4.159  23.188  0.00  0.00    +0.025 C 
ATOM     34  C   UNL     1       6.214   3.973  24.665  0.00  0.00    +0.016 C 
BRANCH  33  35
ATOM     35  C   UNL     1       4.679   3.169  22.851  0.00  0.00    +0.165 C 
BRANCH  35  36
ATOM     36  O   UNL     1       4.816   1.971  23.602  0.00  0.00    -0.394 OA
ATOM     37  H   UNL     1       5.072   1.261  22.985  0.00  0.00    +0.209 HD
ENDBRANCH  35  36
ENDBRANCH  33  35
ENDBRANCH  31  33
BRANCH  31  38
ATOM     38  O   UNL     1       8.023   4.961  22.533  0.00  0.00    -0.380 OA
ATOM     39  H   UNL     1       7.573   5.717  22.944  0.00  0.00    +0.211 HD
ENDBRANCH  31  38
ENDBRANCH  29  31
ENDBRANCH  28  29
ENDBRANCH  24  28
ENDBRANCH  23  24
ENDBRANCH  22  23
ENDBRANCH   1  22
TORSDOF 14
ENDMDL
