MODEL 1
REMARK VINA RESULT:      -8.0      0.000      0.000
REMARK  Name = 
REMARK  16 active torsions:
REMARK  status: ('A' for Active; 'I' for Inactive)
REMARK    1  A    between atoms: C_1  and  C_2
REMARK    2  A    between atoms: C_5  and  O_7
REMARK    3  A    between atoms: O_7  and  P_8
REMARK    4  A    between atoms: P_8  and  O_9
REMARK    5  A    between atoms: P_8  and  O_11
REMARK    6  A    between atoms: O_11  and  P_12
REMARK    7  A    between atoms: P_12  and  O_13
REMARK    8  A    between atoms: P_12  and  O_15
REMARK    9  A    between atoms: O_15  and  C_16
REMARK   10  A    between atoms: C_16  and  C_17
REMARK   11  A    between atoms: C_20  and  N_28
REMARK   12  A    between atoms: C_22  and  O_24
REMARK   13  A    between atoms: C_25  and  O_27
REMARK   14  A    between atoms: C_39  and  O_41
REMARK   15  A    between atoms: C_42  and  O_44
REMARK   16  A    between atoms: C_45  and  O_47
REMARK                            x       y       z     vdW  Elec       q    Type
REMARK                         _______ _______ _______ _____ _____    ______ ____
ROOT
ATOM      1  O   UNL     1      10.347  -0.805  23.066  0.00  0.00    -0.284 OA
ENDROOT
BRANCH   1   2
ATOM      2  P   UNL     1       9.423  -2.246  23.316  0.00  0.00    +0.483 P 
ATOM      3  O   UNL     1       8.927  -1.696  24.658  0.00  0.00    -0.227 OA
BRANCH   2   4
ATOM      4  O   UNL     1       8.308  -1.728  22.240  0.00  0.00    -0.302 OA
ATOM      5  H   UNL     1       7.698  -2.469  22.076  0.00  0.00    +0.222 HD
ENDBRANCH   2   4
BRANCH   2   6
ATOM      6  O   UNL     1       8.500  -3.687  23.568  0.00  0.00    -0.186 OA
BRANCH   6   7
ATOM      7  P   UNL     1       7.196  -3.742  22.432  0.00  0.00    +0.486 P 
ATOM      8  O   UNL     1       7.487  -5.195  22.059  0.00  0.00    -0.227 OA
BRANCH   7   9
ATOM      9  O   UNL     1       5.893  -3.798  21.296  0.00  0.00    -0.302 OA
ATOM     10  H   UNL     1       6.350  -4.051  20.463  0.00  0.00    +0.222 HD
ENDBRANCH   7   9
BRANCH   7  11
ATOM     11  O   UNL     1       5.988  -3.693  23.558  0.00  0.00    -0.254 OA
BRANCH  11  17
ATOM     12  C   UNL     1       5.697  -4.446  28.024  0.00  0.00    +0.041 C 
ATOM     13  C   UNL     1       5.799  -5.220  26.722  0.00  0.00    +0.149 C 
ATOM     14  C   UNL     1       4.756  -6.342  26.577  0.00  0.00    +0.174 C 
ATOM     15  C   UNL     1       4.728  -6.905  25.136  0.00  0.00    +0.179 C 
ATOM     16  C   UNL     1       4.765  -5.818  24.041  0.00  0.00    +0.202 C 
ATOM     17  C   UNL     1       5.871  -4.808  24.411  0.00  0.00    +0.293 C 
ATOM     18  O   UNL     1       5.650  -4.263  25.691  0.00  0.00    -0.343 OA
BRANCH  14  19
ATOM     19  O   UNL     1       5.089  -7.421  27.461  0.00  0.00    -0.387 OA
ATOM     20  H   UNL     1       4.491  -7.406  28.226  0.00  0.00    +0.210 HD
ENDBRANCH  14  19
BRANCH  15  21
ATOM     21  O   UNL     1       3.577  -7.738  24.952  0.00  0.00    -0.386 OA
ATOM     22  H   UNL     1       3.569  -8.001  24.012  0.00  0.00    +0.210 HD
ENDBRANCH  15  21
BRANCH  16  23
ATOM     23  O   UNL     1       4.993  -6.470  22.777  0.00  0.00    -0.384 OA
ATOM     24  H   UNL     1       4.171  -6.440  22.253  0.00  0.00    +0.210 HD
ENDBRANCH  16  23
ENDBRANCH  11  17
ENDBRANCH   7  11
ENDBRANCH   6   7
ENDBRANCH   2   6
ENDBRANCH   1   2
BRANCH   1  25
ATOM     25  C   UNL     1      10.442   0.015  24.243  0.00  0.00    +0.206 C 
BRANCH  25  26
ATOM     26  C   UNL     1      10.112   1.512  24.117  0.00  0.00    +0.178 C 
ATOM     27  C   UNL     1      10.170   2.195  22.751  0.00  0.00    +0.178 C 
ATOM     28  C   UNL     1       8.794   1.967  22.147  0.00  0.00    +0.195 C 
ATOM     29  C   UNL     1       7.958   1.509  23.360  0.00  0.00    +0.253 C 
ATOM     30  O   UNL     1       8.764   1.706  24.539  0.00  0.00    -0.346 OA
BRANCH  29  31
ATOM     31  N   UNL     1       6.734   2.236  23.550  0.00  0.00    -0.285 N 
ATOM     32  C   UNL     1       6.479   3.490  23.078  0.00  0.00    +0.171 A 
ATOM     33  N   UNL     1       7.364   4.300  22.448  0.00  0.00    -0.196 NA
ATOM     34  C   UNL     1       6.834   5.431  22.078  0.00  0.00    +0.195 A 
ATOM     35  N   UNL     1       5.506   5.766  22.289  0.00  0.00    -0.293 N 
ATOM     36  H   UNL     1       5.163   6.668  22.013  0.00  0.00    +0.172 HD
ATOM     37  C   UNL     1       4.580   4.967  22.944  0.00  0.00    +0.280 A 
ATOM     38  O   UNL     1       3.424   5.329  23.128  0.00  0.00    -0.265 OA
ATOM     39  N   UNL     1       7.584   6.359  21.437  0.00  0.00    -0.329 N 
ATOM     40  H   UNL     1       7.118   6.920  20.736  0.00  0.00    +0.145 HD
ATOM     41  H   UNL     1       8.472   5.991  21.115  0.00  0.00    +0.145 HD
ATOM     42  C   UNL     1       5.151   3.710  23.364  0.00  0.00    +0.172 A 
ATOM     43  N   UNL     1       4.590   2.652  24.029  0.00  0.00    -0.229 NA
ATOM     44  C   UNL     1       5.566   1.770  24.111  0.00  0.00    +0.203 A 
ENDBRANCH  29  31
BRANCH  27  45
ATOM     45  O   UNL     1      10.355   3.616  22.942  0.00  0.00    -0.386 OA
ATOM     46  H   UNL     1      11.309   3.792  23.053  0.00  0.00    +0.210 HD
ENDBRANCH  27  45
BRANCH  28  47
ATOM     47  O   UNL     1       8.871   0.981  21.114  0.00  0.00    -0.385 OA
ATOM     48  H   UNL     1       8.143   1.176  20.494  0.00  0.00    +0.210 HD
ENDBRANCH  28  47
ENDBRANCH  25  26
ENDBRANCH   1  25
TORSDOF 15
ENDMDL
MODEL 2
REMARK VINA RESULT:      -7.9      2.197      2.264
REMARK  Name = 
REMARK  16 active torsions:
REMARK  status: ('A' for Active; 'I' for Inactive)
REMARK    1  A    between atoms: C_1  and  C_2
REMARK    2  A    between atoms: C_5  and  O_7
REMARK    3  A    between atoms: O_7  and  P_8
REMARK    4  A    between atoms: P_8  and  O_9
REMARK    5  A    between atoms: P_8  and  O_11
REMARK    6  A    between atoms: O_11  and  P_12
REMARK    7  A    between atoms: P_12  and  O_13
REMARK    8  A    between atoms: P_12  and  O_15
REMARK    9  A    between atoms: O_15  and  C_16
REMARK   10  A    between atoms: C_16  and  C_17
REMARK   11  A    between atoms: C_20  and  N_28
REMARK   12  A    between atoms: C_22  and  O_24
REMARK   13  A    between atoms: C_25  and  O_27
REMARK   14  A    between atoms: C_39  and  O_41
REMARK   15  A    between atoms: C_42  and  O_44
REMARK   16  A    between atoms: C_45  and  O_47
REMARK                            x       y       z     vdW  Elec       q    Type
REMARK                         _______ _______ _______ _____ _____    ______ ____
ROOT
ATOM      1  O   UNL     1       9.712  -1.617  24.260  0.00  0.00    -0.284 OA
ENDROOT
BRANCH   1   2
ATOM      2  P   UNL     1       8.953  -3.157  24.051  0.00  0.00    +0.483 P 
ATOM      3  O   UNL     1       8.371  -3.064  25.466  0.00  0.00    -0.227 OA
BRANCH   2   4
ATOM      4  O   UNL     1       7.808  -2.474  23.107  0.00  0.00    -0.302 OA
ATOM      5  H   UNL     1       8.091  -1.561  22.922  0.00  0.00    +0.222 HD
ENDBRANCH   2   4
BRANCH   2   6
ATOM      6  O   UNL     1       8.195  -4.698  23.842  0.00  0.00    -0.186 OA
BRANCH   6   7
ATOM      7  P   UNL     1       6.937  -4.567  22.662  0.00  0.00    +0.486 P 
ATOM      8  O   UNL     1       7.073  -6.031  22.248  0.00  0.00    -0.227 OA
BRANCH   7   9
ATOM      9  O   UNL     1       5.680  -4.435  21.481  0.00  0.00    -0.302 OA
ATOM     10  H   UNL     1       4.921  -4.112  22.015  0.00  0.00    +0.222 HD
ENDBRANCH   7   9
BRANCH   7  11
ATOM     11  O   UNL     1       5.701  -4.412  23.747  0.00  0.00    -0.254 OA
BRANCH  11  17
ATOM     12  C   UNL     1       5.834  -4.519  28.283  0.00  0.00    +0.041 C 
ATOM     13  C   UNL     1       5.767  -5.472  27.102  0.00  0.00    +0.149 C 
ATOM     14  C   UNL     1       4.665  -6.539  27.220  0.00  0.00    +0.174 C 
ATOM     15  C   UNL     1       4.464  -7.294  25.883  0.00  0.00    +0.179 C 
ATOM     16  C   UNL     1       4.439  -6.373  24.645  0.00  0.00    +0.202 C 
ATOM     17  C   UNL     1       5.621  -5.390  24.759  0.00  0.00    +0.293 C 
ATOM     18  O   UNL     1       5.558  -4.660  25.963  0.00  0.00    -0.343 OA
BRANCH  14  19
ATOM     19  O   UNL     1       5.037  -7.503  28.214  0.00  0.00    -0.387 OA
ATOM     20  H   UNL     1       5.776  -8.038  27.883  0.00  0.00    +0.210 HD
ENDBRANCH  14  19
BRANCH  15  21
ATOM     21  O   UNL     1       3.264  -8.074  25.932  0.00  0.00    -0.386 OA
ATOM     22  H   UNL     1       3.452  -8.842  26.504  0.00  0.00    +0.210 HD
ENDBRANCH  15  21
BRANCH  16  23
ATOM     23  O   UNL     1       4.506  -7.207  23.472  0.00  0.00    -0.384 OA
ATOM     24  H   UNL     1       4.280  -6.671  22.690  0.00  0.00    +0.210 HD
ENDBRANCH  16  23
ENDBRANCH  11  17
ENDBRANCH   7  11
ENDBRANCH   6   7
ENDBRANCH   2   6
ENDBRANCH   1   2
BRANCH   1  25
ATOM     25  C   UNL     1      10.249  -1.083  23.037  0.00  0.00    +0.206 C 
BRANCH  25  26
ATOM     26  C   UNL     1      10.152   0.434  22.801  0.00  0.00    +0.178 C 
ATOM     27  C   UNL     1       9.059   1.000  21.897  0.00  0.00    +0.178 C 
ATOM     28  C   UNL     1       7.861   1.191  22.813  0.00  0.00    +0.195 C 
ATOM     29  C   UNL     1       8.483   1.078  24.220  0.00  0.00    +0.253 C 
ATOM     30  O   UNL     1       9.916   1.064  24.058  0.00  0.00    -0.346 OA
BRANCH  29  31
ATOM     31  N   UNL     1       8.161   2.163  25.105  0.00  0.00    -0.285 N 
ATOM     32  C   UNL     1       8.557   3.457  24.942  0.00  0.00    +0.171 A 
ATOM     33  N   UNL     1       9.402   3.920  23.989  0.00  0.00    -0.196 NA
ATOM     34  C   UNL     1       9.576   5.209  24.054  0.00  0.00    +0.195 A 
ATOM     35  N   UNL     1       8.954   6.025  24.986  0.00  0.00    -0.293 N 
ATOM     36  H   UNL     1       9.154   7.008  25.009  0.00  0.00    +0.172 HD
ATOM     37  C   UNL     1       8.097   5.581  25.983  0.00  0.00    +0.280 A 
ATOM     38  O   UNL     1       7.597   6.348  26.799  0.00  0.00    -0.265 OA
ATOM     39  N   UNL     1      10.396   5.833  23.175  0.00  0.00    -0.329 N 
ATOM     40  H   UNL     1      10.134   6.768  22.889  0.00  0.00    +0.145 HD
ATOM     41  H   UNL     1      10.652   5.242  22.392  0.00  0.00    +0.145 HD
ATOM     42  C   UNL     1       7.895   4.154  25.927  0.00  0.00    +0.172 A 
ATOM     43  N   UNL     1       7.136   3.328  26.714  0.00  0.00    -0.229 NA
ATOM     44  C   UNL     1       7.303   2.134  26.181  0.00  0.00    +0.203 A 
ENDBRANCH  29  31
BRANCH  27  45
ATOM     45  O   UNL     1       9.472   2.296  21.410  0.00  0.00    -0.386 OA
ATOM     46  H   UNL     1       8.674   2.810  21.181  0.00  0.00    +0.210 HD
ENDBRANCH  27  45
BRANCH  28  47
ATOM     47  O   UNL     1       6.879   0.184  22.552  0.00  0.00    -0.385 OA
ATOM     48  H   UNL     1       6.575   0.329  21.636  0.00  0.00    +0.210 HD
ENDBRANCH  28  47
ENDBRANCH  25  26
ENDBRANCH   1  25
TORSDOF 15
ENDMDL
MODEL 3
REMARK VINA RESULT:      -7.8      3.952      9.014
REMARK  Name = 
REMARK  16 active torsions:
REMARK  status: ('A' for Active; 'I' for Inactive)
REMARK    1  A    between atoms: C_1  and  C_2
REMARK    2  A    between atoms: C_5  and  O_7
REMARK    3  A    between atoms: O_7  and  P_8
REMARK    4  A    between atoms: P_8  and  O_9
REMARK    5  A    between atoms: P_8  and  O_11
REMARK    6  A    between atoms: O_11  and  P_12
REMARK    7  A    between atoms: P_12  and  O_13
REMARK    8  A    between atoms: P_12  and  O_15
REMARK    9  A    between atoms: O_15  and  C_16
REMARK   10  A    between atoms: C_16  and  C_17
REMARK   11  A    between atoms: C_20  and  N_28
REMARK   12  A    between atoms: C_22  and  O_24
REMARK   13  A    between atoms: C_25  and  O_27
REMARK   14  A    between atoms: C_39  and  O_41
REMARK   15  A    between atoms: C_42  and  O_44
REMARK   16  A    between atoms: C_45  and  O_47
REMARK                            x       y       z     vdW  Elec       q    Type
REMARK                         _______ _______ _______ _____ _____    ______ ____
ROOT
ATOM      1  O   UNL     1       8.030  -2.355  21.920  0.00  0.00    -0.284 OA
ENDROOT
BRANCH   1   2
ATOM      2  P   UNL     1       9.239  -1.375  22.676  0.00  0.00    +0.483 P 
ATOM      3  O   UNL     1      10.051  -2.632  23.009  0.00  0.00    -0.227 OA
BRANCH   2   4
ATOM      4  O   UNL     1       9.799  -0.919  21.210  0.00  0.00    -0.302 OA
ATOM      5  H   UNL     1       9.032  -0.629  20.685  0.00  0.00    +0.222 HD
ENDBRANCH   2   4
BRANCH   2   6
ATOM      6  O   UNL     1      10.447  -0.396  23.434  0.00  0.00    -0.186 OA
BRANCH   6   7
ATOM      7  P   UNL     1       9.686   0.900  24.291  0.00  0.00    +0.486 P 
ATOM      8  O   UNL     1      10.890   1.823  24.110  0.00  0.00    -0.227 OA
BRANCH   7   9
ATOM      9  O   UNL     1       8.925   2.195  25.149  0.00  0.00    -0.302 OA
ATOM     10  H   UNL     1       9.694   2.725  25.456  0.00  0.00    +0.222 HD
ENDBRANCH   7   9
BRANCH   7  11
ATOM     11  O   UNL     1       8.557   1.230  23.131  0.00  0.00    -0.254 OA
BRANCH  11  17
ATOM     12  C   UNL     1       7.708   5.598  22.235  0.00  0.00    +0.041 C 
ATOM     13  C   UNL     1       7.156   4.457  23.072  0.00  0.00    +0.149 C 
ATOM     14  C   UNL     1       5.640   4.247  22.922  0.00  0.00    +0.174 C 
ATOM     15  C   UNL     1       5.187   2.917  23.571  0.00  0.00    +0.179 C 
ATOM     16  C   UNL     1       6.110   1.722  23.252  0.00  0.00    +0.202 C 
ATOM     17  C   UNL     1       7.568   2.178  23.461  0.00  0.00    +0.293 C 
ATOM     18  O   UNL     1       7.865   3.302  22.666  0.00  0.00    -0.343 OA
BRANCH  14  19
ATOM     19  O   UNL     1       4.941   5.313  23.578  0.00  0.00    -0.387 OA
ATOM     20  H   UNL     1       4.000   5.272  23.345  0.00  0.00    +0.210 HD
ENDBRANCH  14  19
BRANCH  15  21
ATOM     21  O   UNL     1       3.843   2.608  23.180  0.00  0.00    -0.386 OA
ATOM     22  H   UNL     1       3.436   2.134  23.930  0.00  0.00    +0.210 HD
ENDBRANCH  15  21
BRANCH  16  23
ATOM     23  O   UNL     1       5.730   0.628  24.110  0.00  0.00    -0.384 OA
ATOM     24  H   UNL     1       6.369  -0.099  23.998  0.00  0.00    +0.210 HD
ENDBRANCH  16  23
ENDBRANCH  11  17
ENDBRANCH   7  11
ENDBRANCH   6   7
ENDBRANCH   2   6
ENDBRANCH   1   2
BRANCH   1  25
ATOM     25  C   UNL     1       6.696  -2.033  22.349  0.00  0.00    +0.206 C 
BRANCH  25  26
ATOM     26  C   UNL     1       5.775  -3.184  22.788  0.00  0.00    +0.178 C 
ATOM     27  C   UNL     1       6.024  -4.602  22.274  0.00  0.00    +0.178 C 
ATOM     28  C   UNL     1       7.026  -5.195  23.251  0.00  0.00    +0.195 C 
ATOM     29  C   UNL     1       6.974  -4.212  24.438  0.00  0.00    +0.253 C 
ATOM     30  O   UNL     1       5.871  -3.313  24.205  0.00  0.00    -0.346 OA
BRANCH  29  31
ATOM     31  N   UNL     1       6.762  -4.830  25.717  0.00  0.00    -0.285 N 
ATOM     32  C   UNL     1       5.674  -5.575  26.062  0.00  0.00    +0.171 A 
ATOM     33  N   UNL     1       4.567  -5.770  25.306  0.00  0.00    -0.196 NA
ATOM     34  C   UNL     1       3.699  -6.555  25.877  0.00  0.00    +0.195 A 
ATOM     35  N   UNL     1       3.890  -7.142  27.118  0.00  0.00    -0.293 N 
ATOM     36  H   UNL     1       3.170  -7.711  27.524  0.00  0.00    +0.172 HD
ATOM     37  C   UNL     1       5.004  -6.951  27.924  0.00  0.00    +0.280 A 
ATOM     38  O   UNL     1       5.105  -7.474  29.027  0.00  0.00    -0.265 OA
ATOM     39  N   UNL     1       2.533  -6.851  25.257  0.00  0.00    -0.329 N 
ATOM     40  H   UNL     1       2.156  -7.778  25.407  0.00  0.00    +0.145 HD
ATOM     41  H   UNL     1       2.531  -6.583  24.278  0.00  0.00    +0.145 HD
ATOM     42  C   UNL     1       5.975  -6.080  27.307  0.00  0.00    +0.172 A 
ATOM     43  N   UNL     1       7.193  -5.642  27.755  0.00  0.00    -0.229 NA
ATOM     44  C   UNL     1       7.652  -4.903  26.765  0.00  0.00    +0.203 A 
ENDBRANCH  29  31
BRANCH  27  45
ATOM     45  O   UNL     1       4.796  -5.359  22.364  0.00  0.00    -0.386 OA
ATOM     46  H   UNL     1       4.868  -5.977  23.116  0.00  0.00    +0.210 HD
ENDBRANCH  27  45
BRANCH  28  47
ATOM     47  O   UNL     1       8.318  -5.270  22.640  0.00  0.00    -0.385 OA
ATOM     48  H   UNL     1       8.859  -4.574  23.057  0.00  0.00    +0.210 HD
ENDBRANCH  28  47
ENDBRANCH  25  26
ENDBRANCH   1  25
TORSDOF 15
ENDMDL
MODEL 4
REMARK VINA RESULT:      -7.8      3.993      8.863
REMARK  Name = 
REMARK  16 active torsions:
REMARK  status: ('A' for Active; 'I' for Inactive)
REMARK    1  A    between atoms: C_1  and  C_2
REMARK    2  A    between atoms: C_5  and  O_7
REMARK    3  A    between atoms: O_7  and  P_8
REMARK    4  A    between atoms: P_8  and  O_9
REMARK    5  A    between atoms: P_8  and  O_11
REMARK    6  A    between atoms: O_11  and  P_12
REMARK    7  A    between atoms: P_12  and  O_13
REMARK    8  A    between atoms: P_12  and  O_15
REMARK    9  A    between atoms: O_15  and  C_16
REMARK   10  A    between atoms: C_16  and  C_17
REMARK   11  A    between atoms: C_20  and  N_28
REMARK   12  A    between atoms: C_22  and  O_24
REMARK   13  A    between atoms: C_25  and  O_27
REMARK   14  A    between atoms: C_39  and  O_41
REMARK   15  A    between atoms: C_42  and  O_44
REMARK   16  A    between atoms: C_45  and  O_47
REMARK                            x       y       z     vdW  Elec       q    Type
REMARK                         _______ _______ _______ _____ _____    ______ ____
ROOT
ATOM      1  O   UNL     1       8.271  -2.807  22.400  0.00  0.00    -0.284 OA
ENDROOT
BRANCH   1   2
ATOM      2  P   UNL     1       9.326  -1.582  23.015  0.00  0.00    +0.483 P 
ATOM      3  O   UNL     1       9.639  -2.460  24.231  0.00  0.00    -0.227 OA
BRANCH   2   4
ATOM      4  O   UNL     1      10.465  -2.002  21.920  0.00  0.00    -0.302 OA
ATOM      5  H   UNL     1      10.641  -1.218  21.371  0.00  0.00    +0.222 HD
ENDBRANCH   2   4
BRANCH   2   6
ATOM      6  O   UNL     1      10.380  -0.357  23.631  0.00  0.00    -0.186 OA
BRANCH   6   7
ATOM      7  P   UNL     1      10.266   1.055  22.637  0.00  0.00    +0.486 P 
ATOM      8  O   UNL     1       9.274   0.391  21.683  0.00  0.00    -0.227 OA
BRANCH   7   9
ATOM      9  O   UNL     1      10.153   2.466  21.642  0.00  0.00    -0.302 OA
ATOM     10  H   UNL     1       9.204   2.706  21.724  0.00  0.00    +0.222 HD
ENDBRANCH   7   9
BRANCH   7  11
ATOM     11  O   UNL     1       9.444   1.971  23.738  0.00  0.00    -0.254 OA
BRANCH  11  17
ATOM     12  C   UNL     1       5.558   0.155  25.221  0.00  0.00    +0.041 C 
ATOM     13  C   UNL     1       6.050   1.171  24.205  0.00  0.00    +0.149 C 
ATOM     14  C   UNL     1       5.311   2.519  24.260  0.00  0.00    +0.174 C 
ATOM     15  C   UNL     1       6.029   3.593  23.407  0.00  0.00    +0.179 C 
ATOM     16  C   UNL     1       7.562   3.608  23.587  0.00  0.00    +0.202 C 
ATOM     17  C   UNL     1       8.066   2.153  23.507  0.00  0.00    +0.293 C 
ATOM     18  O   UNL     1       7.428   1.345  24.469  0.00  0.00    -0.343 OA
BRANCH  14  19
ATOM     19  O   UNL     1       3.985   2.361  23.737  0.00  0.00    -0.387 OA
ATOM     20  H   UNL     1       3.998   1.700  23.026  0.00  0.00    +0.210 HD
ENDBRANCH  14  19
BRANCH  15  21
ATOM     21  O   UNL     1       5.495   4.891  23.691  0.00  0.00    -0.386 OA
ATOM     22  H   UNL     1       4.753   5.030  23.072  0.00  0.00    +0.210 HD
ENDBRANCH  15  21
BRANCH  16  23
ATOM     23  O   UNL     1       8.119   4.457  22.565  0.00  0.00    -0.384 OA
ATOM     24  H   UNL     1       7.938   4.063  21.692  0.00  0.00    +0.210 HD
ENDBRANCH  16  23
ENDBRANCH  11  17
ENDBRANCH   7  11
ENDBRANCH   6   7
ENDBRANCH   2   6
ENDBRANCH   1   2
BRANCH   1  25
ATOM     25  C   UNL     1       6.907  -2.367  22.277  0.00  0.00    +0.206 C 
BRANCH  25  26
ATOM     26  C   UNL     1       5.801  -3.247  22.883  0.00  0.00    +0.178 C 
ATOM     27  C   UNL     1       5.619  -4.686  22.403  0.00  0.00    +0.178 C 
ATOM     28  C   UNL     1       6.569  -5.502  23.265  0.00  0.00    +0.195 C 
ATOM     29  C   UNL     1       6.925  -4.526  24.405  0.00  0.00    +0.253 C 
ATOM     30  O   UNL     1       6.057  -3.382  24.279  0.00  0.00    -0.346 OA
BRANCH  29  31
ATOM     31  N   UNL     1       6.747  -5.059  25.726  0.00  0.00    -0.285 N 
ATOM     32  C   UNL     1       5.624  -5.686  26.178  0.00  0.00    +0.171 A 
ATOM     33  N   UNL     1       4.456  -5.819  25.503  0.00  0.00    -0.196 NA
ATOM     34  C   UNL     1       3.563  -6.494  26.169  0.00  0.00    +0.195 A 
ATOM     35  N   UNL     1       3.786  -7.034  27.426  0.00  0.00    -0.293 N 
ATOM     36  H   UNL     1       3.047  -7.516  27.906  0.00  0.00    +0.172 HD
ATOM     37  C   UNL     1       4.962  -6.904  28.150  0.00  0.00    +0.280 A 
ATOM     38  O   UNL     1       5.091  -7.380  29.272  0.00  0.00    -0.265 OA
ATOM     39  N   UNL     1       2.338  -6.714  25.639  0.00  0.00    -0.329 N 
ATOM     40  H   UNL     1       1.893  -7.595  25.862  0.00  0.00    +0.145 HD
ATOM     41  H   UNL     1       2.294  -6.495  24.649  0.00  0.00    +0.145 HD
ATOM     42  C   UNL     1       5.962  -6.155  27.427  0.00  0.00    +0.172 A 
ATOM     43  N   UNL     1       7.240  -5.806  27.775  0.00  0.00    -0.229 NA
ATOM     44  C   UNL     1       7.694  -5.160  26.720  0.00  0.00    +0.203 A 
ENDBRANCH  29  31
BRANCH  27  45
ATOM     45  O   UNL     1       4.267  -5.111  22.687  0.00  0.00    -0.386 OA
ATOM     46  H   UNL     1       4.267  -5.601  23.531  0.00  0.00    +0.210 HD
ENDBRANCH  27  45
BRANCH  28  47
ATOM     47  O   UNL     1       7.705  -5.904  22.494  0.00  0.00    -0.385 OA
ATOM     48  H   UNL     1       7.415  -5.914  21.563  0.00  0.00    +0.210 HD
ENDBRANCH  28  47
ENDBRANCH  25  26
ENDBRANCH   1  25
TORSDOF 15
ENDMDL
MODEL 5
REMARK VINA RESULT:      -7.8      4.263      9.591
REMARK  Name = 
REMARK  16 active torsions:
REMARK  status: ('A' for Active; 'I' for Inactive)
REMARK    1  A    between atoms: C_1  and  C_2
REMARK    2  A    between atoms: C_5  and  O_7
REMARK    3  A    between atoms: O_7  and  P_8
REMARK    4  A    between atoms: P_8  and  O_9
REMARK    5  A    between atoms: P_8  and  O_11
REMARK    6  A    between atoms: O_11  and  P_12
REMARK    7  A    between atoms: P_12  and  O_13
REMARK    8  A    between atoms: P_12  and  O_15
REMARK    9  A    between atoms: O_15  and  C_16
REMARK   10  A    between atoms: C_16  and  C_17
REMARK   11  A    between atoms: C_20  and  N_28
REMARK   12  A    between atoms: C_22  and  O_24
REMARK   13  A    between atoms: C_25  and  O_27
REMARK   14  A    between atoms: C_39  and  O_41
REMARK   15  A    between atoms: C_42  and  O_44
REMARK   16  A    between atoms: C_45  and  O_47
REMARK                            x       y       z     vdW  Elec       q    Type
REMARK                         _______ _______ _______ _____ _____    ______ ____
ROOT
ATOM      1  O   UNL     1       9.751  -1.616  24.481  0.00  0.00    -0.284 OA
ENDROOT
BRANCH   1   2
ATOM      2  P   UNL     1       9.733  -0.741  22.989  0.00  0.00    +0.483 P 
ATOM      3  O   UNL     1      10.897  -1.594  22.473  0.00  0.00    -0.227 OA
BRANCH   2   4
ATOM      4  O   UNL     1       8.401  -1.562  22.514  0.00  0.00    -0.302 OA
ATOM      5  H   UNL     1       7.990  -1.934  23.315  0.00  0.00    +0.222 HD
ENDBRANCH   2   4
BRANCH   2   6
ATOM      6  O   UNL     1       9.716   0.134  21.497  0.00  0.00    -0.186 OA
BRANCH   6   7
ATOM      7  P   UNL     1       8.938   1.662  21.734  0.00  0.00    +0.486 P 
ATOM      8  O   UNL     1       7.666   1.012  22.276  0.00  0.00    -0.227 OA
BRANCH   7   9
ATOM      9  O   UNL     1       8.160   3.188  21.969  0.00  0.00    -0.302 OA
ATOM     10  H   UNL     1       8.062   3.227  22.947  0.00  0.00    +0.222 HD
ENDBRANCH   7   9
BRANCH   7  11
ATOM     11  O   UNL     1       9.891   2.144  22.994  0.00  0.00    -0.254 OA
BRANCH  11  17
ATOM     12  C   UNL     1       7.711   4.627  26.106  0.00  0.00    +0.041 C 
ATOM     13  C   UNL     1       8.634   4.811  24.915  0.00  0.00    +0.149 C 
ATOM     14  C   UNL     1       9.841   5.724  25.193  0.00  0.00    +0.174 C 
ATOM     15  C   UNL     1      10.880   5.652  24.048  0.00  0.00    +0.179 C 
ATOM     16  C   UNL     1      11.167   4.218  23.556  0.00  0.00    +0.202 C 
ATOM     17  C   UNL     1       9.815   3.502  23.362  0.00  0.00    +0.293 C 
ATOM     18  O   UNL     1       9.063   3.512  24.553  0.00  0.00    -0.343 OA
BRANCH  14  19
ATOM     19  O   UNL     1       9.398   7.084  25.296  0.00  0.00    -0.387 OA
ATOM     20  H   UNL     1      10.080   7.611  25.743  0.00  0.00    +0.210 HD
ENDBRANCH  14  19
BRANCH  15  21
ATOM     21  O   UNL     1      12.103   6.280  24.450  0.00  0.00    -0.386 OA
ATOM     22  H   UNL     1      12.789   5.585  24.447  0.00  0.00    +0.210 HD
ENDBRANCH  15  21
BRANCH  16  23
ATOM     23  O   UNL     1      11.936   4.312  22.342  0.00  0.00    -0.384 OA
ATOM     24  H   UNL     1      11.618   3.640  21.712  0.00  0.00    +0.210 HD
ENDBRANCH  16  23
ENDBRANCH  11  17
ENDBRANCH   7  11
ENDBRANCH   6   7
ENDBRANCH   2   6
ENDBRANCH   1   2
BRANCH   1  25
ATOM     25  C   UNL     1       9.811  -3.041  24.297  0.00  0.00    +0.206 C 
BRANCH  25  26
ATOM     26  C   UNL     1       8.930  -3.928  25.193  0.00  0.00    +0.178 C 
ATOM     27  C   UNL     1       7.905  -3.291  26.130  0.00  0.00    +0.178 C 
ATOM     28  C   UNL     1       6.656  -3.124  25.278  0.00  0.00    +0.195 C 
ATOM     29  C   UNL     1       6.951  -4.016  24.055  0.00  0.00    +0.253 C 
ATOM     30  O   UNL     1       8.145  -4.769  24.349  0.00  0.00    -0.346 OA
BRANCH  29  31
ATOM     31  N   UNL     1       5.915  -4.959  23.740  0.00  0.00    -0.285 N 
ATOM     32  C   UNL     1       5.341  -5.825  24.623  0.00  0.00    +0.171 A 
ATOM     33  N   UNL     1       5.717  -6.019  25.910  0.00  0.00    -0.196 NA
ATOM     34  C   UNL     1       4.967  -6.886  26.528  0.00  0.00    +0.195 A 
ATOM     35  N   UNL     1       3.890  -7.530  25.941  0.00  0.00    -0.293 N 
ATOM     36  H   UNL     1       3.369  -8.215  26.458  0.00  0.00    +0.172 HD
ATOM     37  C   UNL     1       3.488  -7.365  24.623  0.00  0.00    +0.280 A 
ATOM     38  O   UNL     1       2.543  -7.985  24.150  0.00  0.00    -0.265 OA
ATOM     39  N   UNL     1       5.210  -7.200  27.822  0.00  0.00    -0.329 N 
ATOM     40  H   UNL     1       4.408  -7.408  28.402  0.00  0.00    +0.145 HD
ATOM     41  H   UNL     1       5.857  -6.556  28.266  0.00  0.00    +0.145 HD
ATOM     42  C   UNL     1       4.311  -6.410  23.922  0.00  0.00    +0.172 A 
ATOM     43  N   UNL     1       4.255  -5.963  22.629  0.00  0.00    -0.229 NA
ATOM     44  C   UNL     1       5.226  -5.074  22.554  0.00  0.00    +0.203 A 
ENDBRANCH  29  31
BRANCH  27  45
ATOM     45  O   UNL     1       7.605  -4.215  27.200  0.00  0.00    -0.386 OA
ATOM     46  H   UNL     1       8.136  -5.024  27.069  0.00  0.00    +0.210 HD
ENDBRANCH  27  45
BRANCH  28  47
ATOM     47  O   UNL     1       6.478  -1.745  24.938  0.00  0.00    -0.385 OA
ATOM     48  H   UNL     1       6.921  -1.616  24.078  0.00  0.00    +0.210 HD
ENDBRANCH  28  47
ENDBRANCH  25  26
ENDBRANCH   1  25
TORSDOF 15
ENDMDL
MODEL 6
REMARK VINA RESULT:      -7.8      3.167      5.835
REMARK  Name = 
REMARK  16 active torsions:
REMARK  status: ('A' for Active; 'I' for Inactive)
REMARK    1  A    between atoms: C_1  and  C_2
REMARK    2  A    between atoms: C_5  and  O_7
REMARK    3  A    between atoms: O_7  and  P_8
REMARK    4  A    between atoms: P_8  and  O_9
REMARK    5  A    between atoms: P_8  and  O_11
REMARK    6  A    between atoms: O_11  and  P_12
REMARK    7  A    between atoms: P_12  and  O_13
REMARK    8  A    between atoms: P_12  and  O_15
REMARK    9  A    between atoms: O_15  and  C_16
REMARK   10  A    between atoms: C_16  and  C_17
REMARK   11  A    between atoms: C_20  and  N_28
REMARK   12  A    between atoms: C_22  and  O_24
REMARK   13  A    between atoms: C_25  and  O_27
REMARK   14  A    between atoms: C_39  and  O_41
REMARK   15  A    between atoms: C_42  and  O_44
REMARK   16  A    between atoms: C_45  and  O_47
REMARK                            x       y       z     vdW  Elec       q    Type
REMARK                         _______ _______ _______ _____ _____    ______ ____
ROOT
ATOM      1  O   UNL     1       4.456   4.146  23.159  0.00  0.00    -0.284 OA
ENDROOT
BRANCH   1   2
ATOM      2  P   UNL     1       3.966   3.061  24.413  0.00  0.00    +0.483 P 
ATOM      3  O   UNL     1       2.591   2.913  23.750  0.00  0.00    -0.227 OA
BRANCH   2   4
ATOM      4  O   UNL     1       4.859   1.868  23.741  0.00  0.00    -0.302 OA
ATOM      5  H   UNL     1       4.239   1.193  23.412  0.00  0.00    +0.222 HD
ENDBRANCH   2   4
BRANCH   2   6
ATOM      6  O   UNL     1       3.474   1.976  25.668  0.00  0.00    -0.186 OA
BRANCH   6   7
ATOM      7  P   UNL     1       4.865   1.175  26.315  0.00  0.00    +0.486 P 
ATOM      8  O   UNL     1       4.368   1.318  27.753  0.00  0.00    -0.227 OA
BRANCH   7   9
ATOM      9  O   UNL     1       6.256   0.376  26.963  0.00  0.00    -0.302 OA
ATOM     10  H   UNL     1       6.279   0.708  27.887  0.00  0.00    +0.222 HD
ENDBRANCH   7   9
BRANCH   7  11
ATOM     11  O   UNL     1       4.478  -0.325  25.744  0.00  0.00    -0.254 OA
BRANCH  11  17
ATOM     12  C   UNL     1       5.746  -4.207  27.724  0.00  0.00    +0.041 C 
ATOM     13  C   UNL     1       6.248  -3.216  26.689  0.00  0.00    +0.149 C 
ATOM     14  C   UNL     1       6.712  -3.865  25.374  0.00  0.00    +0.174 C 
ATOM     15  C   UNL     1       6.945  -2.804  24.271  0.00  0.00    +0.179 C 
ATOM     16  C   UNL     1       5.835  -1.736  24.189  0.00  0.00    +0.202 C 
ATOM     17  C   UNL     1       5.536  -1.249  25.621  0.00  0.00    +0.293 C 
ATOM     18  O   UNL     1       5.174  -2.325  26.456  0.00  0.00    -0.343 OA
BRANCH  14  19
ATOM     19  O   UNL     1       7.953  -4.551  25.590  0.00  0.00    -0.387 OA
ATOM     20  H   UNL     1       7.814  -5.506  25.490  0.00  0.00    +0.210 HD
ENDBRANCH  14  19
BRANCH  15  21
ATOM     21  O   UNL     1       7.101  -3.440  22.997  0.00  0.00    -0.386 OA
ATOM     22  H   UNL     1       8.058  -3.587  22.872  0.00  0.00    +0.210 HD
ENDBRANCH  15  21
BRANCH  16  23
ATOM     23  O   UNL     1       6.295  -0.685  23.318  0.00  0.00    -0.384 OA
ATOM     24  H   UNL     1       5.537  -0.339  22.812  0.00  0.00    +0.210 HD
ENDBRANCH  16  23
ENDBRANCH  11  17
ENDBRANCH   7  11
ENDBRANCH   6   7
ENDBRANCH   2   6
ENDBRANCH   1   2
BRANCH   1  25
ATOM     25  C   UNL     1       5.469   5.075  23.582  0.00  0.00    +0.206 C 
BRANCH  25  26
ATOM     26  C   UNL     1       6.811   5.080  22.832  0.00  0.00    +0.178 C 
ATOM     27  C   UNL     1       8.080   5.557  23.537  0.00  0.00    +0.178 C 
ATOM     28  C   UNL     1       8.618   4.322  24.241  0.00  0.00    +0.195 C 
ATOM     29  C   UNL     1       7.830   3.176  23.575  0.00  0.00    +0.253 C 
ATOM     30  O   UNL     1       7.114   3.737  22.457  0.00  0.00    -0.346 OA
BRANCH  29  31
ATOM     31  N   UNL     1       8.645   2.106  23.069  0.00  0.00    -0.285 N 
ATOM     32  C   UNL     1       9.028   1.005  23.776  0.00  0.00    +0.171 A 
ATOM     33  N   UNL     1       8.800   0.782  25.093  0.00  0.00    -0.196 NA
ATOM     34  C   UNL     1       9.253  -0.372  25.494  0.00  0.00    +0.195 A 
ATOM     35  N   UNL     1       9.884  -1.282  24.663  0.00  0.00    -0.293 N 
ATOM     36  H   UNL     1      10.244  -2.142  25.037  0.00  0.00    +0.172 HD
ATOM     37  C   UNL     1      10.147  -1.079  23.316  0.00  0.00    +0.280 A 
ATOM     38  O   UNL     1      10.736  -1.911  22.636  0.00  0.00    -0.265 OA
ATOM     39  N   UNL     1       9.111  -0.749  26.787  0.00  0.00    -0.329 N 
ATOM     40  H   UNL     1       8.963  -1.734  26.963  0.00  0.00    +0.145 HD
ATOM     41  H   UNL     1       8.462  -0.160  27.297  0.00  0.00    +0.145 HD
ATOM     42  C   UNL     1       9.655   0.196  22.855  0.00  0.00    +0.172 A 
ATOM     43  N   UNL     1       9.704   0.778  21.616  0.00  0.00    -0.229 NA
ATOM     44  C   UNL     1       9.070   1.923  21.773  0.00  0.00    +0.203 A 
ENDBRANCH  29  31
BRANCH  27  45
ATOM     45  O   UNL     1       9.044   5.972  22.543  0.00  0.00    -0.386 OA
ATOM     46  H   UNL     1       9.768   6.447  22.994  0.00  0.00    +0.210 HD
ENDBRANCH  27  45
BRANCH  28  47
ATOM     47  O   UNL     1       8.384   4.421  25.649  0.00  0.00    -0.385 OA
ATOM     48  H   UNL     1       7.777   5.175  25.773  0.00  0.00    +0.210 HD
ENDBRANCH  28  47
ENDBRANCH  25  26
ENDBRANCH   1  25
TORSDOF 15
ENDMDL
MODEL 7
REMARK VINA RESULT:      -7.7      2.837      4.574
REMARK  Name = 
REMARK  16 active torsions:
REMARK  status: ('A' for Active; 'I' for Inactive)
REMARK    1  A    between atoms: C_1  and  C_2
REMARK    2  A    between atoms: C_5  and  O_7
REMARK    3  A    between atoms: O_7  and  P_8
REMARK    4  A    between atoms: P_8  and  O_9
REMARK    5  A    between atoms: P_8  and  O_11
REMARK    6  A    between atoms: O_11  and  P_12
REMARK    7  A    between atoms: P_12  and  O_13
REMARK    8  A    between atoms: P_12  and  O_15
REMARK    9  A    between atoms: O_15  and  C_16
REMARK   10  A    between atoms: C_16  and  C_17
REMARK   11  A    between atoms: C_20  and  N_28
REMARK   12  A    between atoms: C_22  and  O_24
REMARK   13  A    between atoms: C_25  and  O_27
REMARK   14  A    between atoms: C_39  and  O_41
REMARK   15  A    between atoms: C_42  and  O_44
REMARK   16  A    between atoms: C_45  and  O_47
REMARK                            x       y       z     vdW  Elec       q    Type
REMARK                         _______ _______ _______ _____ _____    ______ ____
ROOT
ATOM      1  O   UNL     1       9.119  -4.175  25.876  0.00  0.00    -0.284 OA
ENDROOT
BRANCH   1   2
ATOM      2  P   UNL     1       7.584  -4.242  26.671  0.00  0.00    +0.483 P 
ATOM      3  O   UNL     1       6.906  -4.578  25.338  0.00  0.00    -0.227 OA
BRANCH   2   4
ATOM      4  O   UNL     1       7.964  -5.701  27.301  0.00  0.00    -0.302 OA
ATOM      5  H   UNL     1       7.323  -5.886  28.010  0.00  0.00    +0.222 HD
ENDBRANCH   2   4
BRANCH   2   6
ATOM      6  O   UNL     1       6.049  -4.307  27.466  0.00  0.00    -0.186 OA
BRANCH   6   7
ATOM      7  P   UNL     1       5.694  -5.943  27.902  0.00  0.00    +0.486 P 
ATOM      8  O   UNL     1       5.802  -5.645  29.396  0.00  0.00    -0.227 OA
BRANCH   7   9
ATOM      9  O   UNL     1       5.340  -7.579  28.338  0.00  0.00    -0.302 OA
ATOM     10  H   UNL     1       6.226  -8.004  28.302  0.00  0.00    +0.222 HD
ENDBRANCH   7   9
BRANCH   7  11
ATOM     11  O   UNL     1       4.107  -5.900  27.444  0.00  0.00    -0.254 OA
BRANCH  11  17
ATOM     12  C   UNL     1       1.775  -9.230  25.424  0.00  0.00    +0.041 C 
ATOM     13  C   UNL     1       2.681  -8.066  25.064  0.00  0.00    +0.149 C 
ATOM     14  C   UNL     1       2.121  -7.154  23.960  0.00  0.00    +0.174 C 
ATOM     15  C   UNL     1       2.943  -5.849  23.832  0.00  0.00    +0.179 C 
ATOM     16  C   UNL     1       3.293  -5.198  25.187  0.00  0.00    +0.202 C 
ATOM     17  C   UNL     1       3.818  -6.305  26.125  0.00  0.00    +0.293 C 
ATOM     18  O   UNL     1       2.872  -7.340  26.264  0.00  0.00    -0.343 OA
BRANCH  14  19
ATOM     19  O   UNL     1       2.184  -7.835  22.699  0.00  0.00    -0.387 OA
ATOM     20  H   UNL     1       1.549  -7.434  22.085  0.00  0.00    +0.210 HD
ENDBRANCH  14  19
BRANCH  15  21
ATOM     21  O   UNL     1       2.249  -4.905  23.007  0.00  0.00    -0.386 OA
ATOM     22  H   UNL     1       1.753  -4.318  23.609  0.00  0.00    +0.210 HD
ENDBRANCH  15  21
BRANCH  16  23
ATOM     23  O   UNL     1       4.260  -4.158  24.942  0.00  0.00    -0.384 OA
ATOM     24  H   UNL     1       4.116  -3.796  24.049  0.00  0.00    +0.210 HD
ENDBRANCH  16  23
ENDBRANCH  11  17
ENDBRANCH   7  11
ENDBRANCH   6   7
ENDBRANCH   2   6
ENDBRANCH   1   2
BRANCH   1  25
ATOM     25  C   UNL     1       9.008  -4.070  24.446  0.00  0.00    +0.206 C 
BRANCH  25  26
ATOM     26  C   UNL     1       9.504  -2.781  23.770  0.00  0.00    +0.178 C 
ATOM     27  C   UNL     1       8.800  -2.251  22.523  0.00  0.00    +0.178 C 
ATOM     28  C   UNL     1       7.667  -1.389  23.056  0.00  0.00    +0.195 C 
ATOM     29  C   UNL     1       8.050  -1.196  24.538  0.00  0.00    +0.253 C 
ATOM     30  O   UNL     1       9.384  -1.714  24.709  0.00  0.00    -0.346 OA
BRANCH  29  31
ATOM     31  N   UNL     1       8.059   0.170  24.980  0.00  0.00    -0.285 N 
ATOM     32  C   UNL     1       8.636   1.211  24.315  0.00  0.00    +0.171 A 
ATOM     33  N   UNL     1       9.384   1.122  23.188  0.00  0.00    -0.196 NA
ATOM     34  C   UNL     1       9.780   2.284  22.754  0.00  0.00    +0.195 A 
ATOM     35  N   UNL     1       9.459   3.485  23.366  0.00  0.00    -0.293 N 
ATOM     36  H   UNL     1       9.823   4.349  23.005  0.00  0.00    +0.172 HD
ATOM     37  C   UNL     1       8.710   3.610  24.527  0.00  0.00    +0.280 A 
ATOM     38  O   UNL     1       8.482   4.700  25.039  0.00  0.00    -0.265 OA
ATOM     39  N   UNL     1      10.543   2.373  21.639  0.00  0.00    -0.329 N 
ATOM     40  H   UNL     1      10.400   3.183  21.050  0.00  0.00    +0.145 HD
ATOM     41  H   UNL     1      10.569   1.507  21.113  0.00  0.00    +0.145 HD
ATOM     42  C   UNL     1       8.265   2.331  25.024  0.00  0.00    +0.172 A 
ATOM     43  N   UNL     1       7.512   2.012  26.123  0.00  0.00    -0.229 NA
ATOM     44  C   UNL     1       7.390   0.701  26.060  0.00  0.00    +0.203 A 
ENDBRANCH  29  31
BRANCH  27  45
ATOM     45  O   UNL     1       9.712  -1.403  21.790  0.00  0.00    -0.386 OA
ATOM     46  H   UNL     1       9.365  -0.491  21.803  0.00  0.00    +0.210 HD
ENDBRANCH  27  45
BRANCH  28  47
ATOM     47  O   UNL     1       6.417  -2.062  22.882  0.00  0.00    -0.385 OA
ATOM     48  H   UNL     1       6.592  -3.009  23.036  0.00  0.00    +0.210 HD
ENDBRANCH  28  47
ENDBRANCH  25  26
ENDBRANCH   1  25
TORSDOF 15
ENDMDL
MODEL 8
REMARK VINA RESULT:      -7.7      2.420      3.282
REMARK  Name = 
REMARK  16 active torsions:
REMARK  status: ('A' for Active; 'I' for Inactive)
REMARK    1  A    between atoms: C_1  and  C_2
REMARK    2  A    between atoms: C_5  and  O_7
REMARK    3  A    between atoms: O_7  and  P_8
REMARK    4  A    between atoms: P_8  and  O_9
REMARK    5  A    between atoms: P_8  and  O_11
REMARK    6  A    between atoms: O_11  and  P_12
REMARK    7  A    between atoms: P_12  and  O_13
REMARK    8  A    between atoms: P_12  and  O_15
REMARK    9  A    between atoms: O_15  and  C_16
REMARK   10  A    between atoms: C_16  and  C_17
REMARK   11  A    between atoms: C_20  and  N_28
REMARK   12  A    between atoms: C_22  and  O_24
REMARK   13  A    between atoms: C_25  and  O_27
REMARK   14  A    between atoms: C_39  and  O_41
REMARK   15  A    between atoms: C_42  and  O_44
REMARK   16  A    between atoms: C_45  and  O_47
REMARK                            x       y       z     vdW  Elec       q    Type
REMARK                         _______ _______ _______ _____ _____    ______ ____
ROOT
ATOM      1  O   UNL     1       8.868  -1.525  22.859  0.00  0.00    -0.284 OA
ENDROOT
BRANCH   1   2
ATOM      2  P   UNL     1       8.495  -2.290  24.364  0.00  0.00    +0.483 P 
ATOM      3  O   UNL     1       7.005  -2.275  24.005  0.00  0.00    -0.227 OA
BRANCH   2   4
ATOM      4  O   UNL     1       9.029  -3.720  23.780  0.00  0.00    -0.302 OA
ATOM      5  H   UNL     1       9.647  -3.523  23.054  0.00  0.00    +0.222 HD
ENDBRANCH   2   4
BRANCH   2   6
ATOM      6  O   UNL     1       8.121  -3.053  25.871  0.00  0.00    -0.186 OA
BRANCH   6   7
ATOM      7  P   UNL     1       8.612  -4.712  25.814  0.00  0.00    +0.486 P 
ATOM      8  O   UNL     1       9.713  -4.497  26.851  0.00  0.00    -0.227 OA
BRANCH   7   9
ATOM      9  O   UNL     1       9.102  -6.369  25.757  0.00  0.00    -0.302 OA
ATOM     10  H   UNL     1       9.688  -6.389  24.968  0.00  0.00    +0.222 HD
ENDBRANCH   7   9
BRANCH   7  11
ATOM     11  O   UNL     1       7.264  -5.312  26.557  0.00  0.00    -0.254 OA
BRANCH  11  17
ATOM     12  C   UNL     1       6.348  -5.549  22.118  0.00  0.00    +0.041 C 
ATOM     13  C   UNL     1       5.624  -5.554  23.453  0.00  0.00    +0.149 C 
ATOM     14  C   UNL     1       4.608  -6.698  23.611  0.00  0.00    +0.174 C 
ATOM     15  C   UNL     1       4.113  -6.816  25.072  0.00  0.00    +0.179 C 
ATOM     16  C   UNL     1       5.238  -6.710  26.122  0.00  0.00    +0.202 C 
ATOM     17  C   UNL     1       6.128  -5.508  25.747  0.00  0.00    +0.293 C 
ATOM     18  O   UNL     1       6.635  -5.643  24.439  0.00  0.00    -0.343 OA
BRANCH  14  19
ATOM     19  O   UNL     1       3.466  -6.441  22.782  0.00  0.00    -0.387 OA
ATOM     20  H   UNL     1       3.736  -5.905  22.019  0.00  0.00    +0.210 HD
ENDBRANCH  14  19
BRANCH  15  21
ATOM     21  O   UNL     1       3.395  -8.043  25.254  0.00  0.00    -0.386 OA
ATOM     22  H   UNL     1       3.353  -8.475  24.379  0.00  0.00    +0.210 HD
ENDBRANCH  15  21
BRANCH  16  23
ATOM     23  O   UNL     1       4.624  -6.578  27.418  0.00  0.00    -0.384 OA
ATOM     24  H   UNL     1       5.279  -6.219  28.045  0.00  0.00    +0.210 HD
ENDBRANCH  16  23
ENDBRANCH  11  17
ENDBRANCH   7  11
ENDBRANCH   6   7
ENDBRANCH   2   6
ENDBRANCH   1   2
BRANCH   1  25
ATOM     25  C   UNL     1      10.004  -0.647  22.939  0.00  0.00    +0.206 C 
BRANCH  25  26
ATOM     26  C   UNL     1       9.777   0.858  22.717  0.00  0.00    +0.178 C 
ATOM     27  C   UNL     1       8.536   1.343  21.969  0.00  0.00    +0.178 C 
ATOM     28  C   UNL     1       7.464   1.466  23.041  0.00  0.00    +0.195 C 
ATOM     29  C   UNL     1       8.278   1.407  24.350  0.00  0.00    +0.253 C 
ATOM     30  O   UNL     1       9.673   1.484  23.994  0.00  0.00    -0.346 OA
BRANCH  29  31
ATOM     31  N   UNL     1       8.008   2.477  25.269  0.00  0.00    -0.285 N 
ATOM     32  C   UNL     1       8.346   3.784  25.078  0.00  0.00    +0.171 A 
ATOM     33  N   UNL     1       9.080   4.278  24.052  0.00  0.00    -0.196 NA
ATOM     34  C   UNL     1       9.219   5.572  24.109  0.00  0.00    +0.195 A 
ATOM     35  N   UNL     1       8.664   6.363  25.102  0.00  0.00    -0.293 N 
ATOM     36  H   UNL     1       8.834   7.353  25.113  0.00  0.00    +0.172 HD
ATOM     37  C   UNL     1       7.922   5.888  26.174  0.00  0.00    +0.280 A 
ATOM     38  O   UNL     1       7.479   6.635  27.039  0.00  0.00    -0.265 OA
ATOM     39  N   UNL     1       9.930   6.225  23.160  0.00  0.00    -0.329 N 
ATOM     40  H   UNL     1       9.613   7.152  22.907  0.00  0.00    +0.145 HD
ATOM     41  H   UNL     1      10.128   5.646  22.351  0.00  0.00    +0.145 HD
ATOM     42  C   UNL     1       7.760   4.455  26.128  0.00  0.00    +0.172 A 
ATOM     43  N   UNL     1       7.107   3.603  26.977  0.00  0.00    -0.229 NA
ATOM     44  C   UNL     1       7.259   2.417  26.422  0.00  0.00    +0.203 A 
ENDBRANCH  29  31
BRANCH  27  45
ATOM     45  O   UNL     1       8.794   2.659  21.430  0.00  0.00    -0.386 OA
ATOM     46  H   UNL     1       9.328   2.562  20.619  0.00  0.00    +0.210 HD
ENDBRANCH  27  45
BRANCH  28  47
ATOM     47  O   UNL     1       6.524   0.395  22.916  0.00  0.00    -0.385 OA
ATOM     48  H   UNL     1       5.699   0.793  22.580  0.00  0.00    +0.210 HD
ENDBRANCH  28  47
ENDBRANCH  25  26
ENDBRANCH   1  25
TORSDOF 15
ENDMDL
MODEL 9
REMARK VINA RESULT:      -7.7      4.390      9.793
REMARK  Name = 
REMARK  16 active torsions:
REMARK  status: ('A' for Active; 'I' for Inactive)
REMARK    1  A    between atoms: C_1  and  C_2
REMARK    2  A    between atoms: C_5  and  O_7
REMARK    3  A    between atoms: O_7  and  P_8
REMARK    4  A    between atoms: P_8  and  O_9
REMARK    5  A    between atoms: P_8  and  O_11
REMARK    6  A    between atoms: O_11  and  P_12
REMARK    7  A    between atoms: P_12  and  O_13
REMARK    8  A    between atoms: P_12  and  O_15
REMARK    9  A    between atoms: O_15  and  C_16
REMARK   10  A    between atoms: C_16  and  C_17
REMARK   11  A    between atoms: C_20  and  N_28
REMARK   12  A    between atoms: C_22  and  O_24
REMARK   13  A    between atoms: C_25  and  O_27
REMARK   14  A    between atoms: C_39  and  O_41
REMARK   15  A    between atoms: C_42  and  O_44
REMARK   16  A    between atoms: C_45  and  O_47
REMARK                            x       y       z     vdW  Elec       q    Type
REMARK                         _______ _______ _______ _____ _____    ______ ____
ROOT
ATOM      1  O   UNL     1       8.219  -2.889  22.840  0.00  0.00    -0.284 OA
ENDROOT
BRANCH   1   2
ATOM      2  P   UNL     1       9.402  -1.629  22.789  0.00  0.00    +0.483 P 
ATOM      3  O   UNL     1      10.478  -2.618  23.253  0.00  0.00    -0.227 OA
BRANCH   2   4
ATOM      4  O   UNL     1       9.451  -1.729  21.159  0.00  0.00    -0.302 OA
ATOM      5  H   UNL     1       9.400  -0.820  20.812  0.00  0.00    +0.222 HD
ENDBRANCH   2   4
BRANCH   2   6
ATOM      6  O   UNL     1      10.587  -0.369  22.740  0.00  0.00    -0.186 OA
BRANCH   6   7
ATOM      7  P   UNL     1       9.842   1.102  22.214  0.00  0.00    +0.486 P 
ATOM      8  O   UNL     1       8.464   0.665  22.707  0.00  0.00    -0.227 OA
BRANCH   7   9
ATOM      9  O   UNL     1       9.098   2.572  21.689  0.00  0.00    -0.302 OA
ATOM     10  H   UNL     1       9.762   3.249  21.946  0.00  0.00    +0.222 HD
ENDBRANCH   7   9
BRANCH   7  11
ATOM     11  O   UNL     1      10.554   2.067  23.351  0.00  0.00    -0.254 OA
BRANCH  11  17
ATOM     12  C   UNL     1       7.282   3.766  25.998  0.00  0.00    +0.041 C 
ATOM     13  C   UNL     1       8.215   4.204  24.882  0.00  0.00    +0.149 C 
ATOM     14  C   UNL     1       8.977   5.507  25.178  0.00  0.00    +0.174 C 
ATOM     15  C   UNL     1      10.102   5.750  24.143  0.00  0.00    +0.179 C 
ATOM     16  C   UNL     1      10.935   4.492  23.821  0.00  0.00    +0.202 C 
ATOM     17  C   UNL     1       9.958   3.324  23.577  0.00  0.00    +0.293 C 
ATOM     18  O   UNL     1       9.115   3.130  24.689  0.00  0.00    -0.343 OA
BRANCH  14  19
ATOM     19  O   UNL     1       8.072   6.617  25.108  0.00  0.00    -0.387 OA
ATOM     20  H   UNL     1       8.568   7.444  25.218  0.00  0.00    +0.210 HD
ENDBRANCH  14  19
BRANCH  15  21
ATOM     21  O   UNL     1      10.967   6.802  24.591  0.00  0.00    -0.386 OA
ATOM     22  H   UNL     1      11.865   6.423  24.641  0.00  0.00    +0.210 HD
ENDBRANCH  15  21
BRANCH  16  23
ATOM     23  O   UNL     1      11.760   4.788  22.677  0.00  0.00    -0.384 OA
ATOM     24  H   UNL     1      11.371   5.540  22.193  0.00  0.00    +0.210 HD
ENDBRANCH  16  23
ENDBRANCH  11  17
ENDBRANCH   7  11
ENDBRANCH   6   7
ENDBRANCH   2   6
ENDBRANCH   1   2
BRANCH   1  25
ATOM     25  C   UNL     1       6.963  -2.506  22.253  0.00  0.00    +0.206 C 
BRANCH  25  26
ATOM     26  C   UNL     1       6.086  -3.605  21.629  0.00  0.00    +0.178 C 
ATOM     27  C   UNL     1       6.636  -5.020  21.460  0.00  0.00    +0.178 C 
ATOM     28  C   UNL     1       6.342  -5.708  22.784  0.00  0.00    +0.195 C 
ATOM     29  C   UNL     1       5.324  -4.758  23.447  0.00  0.00    +0.253 C 
ATOM     30  O   UNL     1       4.940  -3.781  22.459  0.00  0.00    -0.346 OA
BRANCH  29  31
ATOM     31  N   UNL     1       4.123  -5.397  23.909  0.00  0.00    -0.285 N 
ATOM     32  C   UNL     1       3.987  -6.058  25.093  0.00  0.00    +0.171 A 
ATOM     33  N   UNL     1       4.977  -6.316  25.982  0.00  0.00    -0.196 NA
ATOM     34  C   UNL     1       4.551  -6.937  27.044  0.00  0.00    +0.195 A 
ATOM     35  N   UNL     1       3.225  -7.284  27.254  0.00  0.00    -0.293 N 
ATOM     36  H   UNL     1       2.961  -7.794  28.078  0.00  0.00    +0.172 HD
ATOM     37  C   UNL     1       2.192  -7.049  26.359  0.00  0.00    +0.280 A 
ATOM     38  O   UNL     1       1.041  -7.405  26.586  0.00  0.00    -0.265 OA
ATOM     39  N   UNL     1       5.414  -7.275  28.031  0.00  0.00    -0.329 N 
ATOM     40  H   UNL     1       5.060  -7.248  28.979  0.00  0.00    +0.145 HD
ATOM     41  H   UNL     1       6.314  -6.817  27.937  0.00  0.00    +0.145 HD
ATOM     42  C   UNL     1       2.648  -6.363  25.174  0.00  0.00    +0.172 A 
ATOM     43  N   UNL     1       1.962  -5.947  24.063  0.00  0.00    -0.229 NA
ATOM     44  C   UNL     1       2.877  -5.352  23.325  0.00  0.00    +0.203 A 
ENDBRANCH  29  31
BRANCH  27  45
ATOM     45  O   UNL     1       5.893  -5.695  20.421  0.00  0.00    -0.386 OA
ATOM     46  H   UNL     1       4.943  -5.643  20.636  0.00  0.00    +0.210 HD
ENDBRANCH  27  45
BRANCH  28  47
ATOM     47  O   UNL     1       7.549  -5.852  23.539  0.00  0.00    -0.385 OA
ATOM     48  H   UNL     1       7.295  -5.782  24.478  0.00  0.00    +0.210 HD
ENDBRANCH  28  47
ENDBRANCH  25  26
ENDBRANCH   1  25
TORSDOF 15
ENDMDL
