MODEL 1
REMARK VINA RESULT:      -6.3      0.000      0.000
REMARK  Name = 
REMARK  6 active torsions:
REMARK  status: ('A' for Active; 'I' for Inactive)
REMARK    1  A    between atoms: N6_1  and  C6_2
REMARK    2  A    between atoms: N9_6  and  C1*_7
REMARK    3  A    between atoms: C4*_10  and  C5*_12
REMARK    4  A    between atoms: C5*_12  and  O5*_13
REMARK    5  A    between atoms: C3*_14  and  O3*_16
REMARK    6  A    between atoms: C2*_17  and  O2*_19
REMARK                            x       y       z     vdW  Elec       q    Type
REMARK                         _______ _______ _______ _____ _____    ______ ____
ROOT
ATOM      1  C6    A A   1       6.699  -5.171  22.264  0.00  0.00    +0.147 A 
ATOM      2  N1    A A   1       5.656  -4.556  21.661  0.00  0.00    -0.219 NA
ATOM      3  C2    A A   1       5.487  -3.233  21.863  0.00  0.00    +0.225 A 
ATOM      4  N3    A A   1       6.229  -2.398  22.622  0.00  0.00    -0.216 NA
ATOM      5  C4    A A   1       7.252  -3.053  23.197  0.00  0.00    +0.167 A 
ATOM      6  N9    A A   1       8.202  -2.556  24.042  0.00  0.00    -0.286 N 
ATOM      7  C8    A A   1       9.006  -3.612  24.413  0.00  0.00    +0.203 A 
ATOM      8  N7    A A   1       8.638  -4.738  23.852  0.00  0.00    -0.231 NA
ATOM      9  C5    A A   1       7.544  -4.405  23.083  0.00  0.00    +0.147 A 
ENDROOT
BRANCH   6  10
ATOM     10  C1*   A A   1       8.377  -1.221  24.553  0.00  0.00    +0.253 C 
ATOM     11  C2*   A A   1       9.740  -0.728  25.059  0.00  0.00    +0.195 C 
ATOM     12  C3*   A A   1      10.380  -0.056  23.845  0.00  0.00    +0.178 C 
ATOM     13  C4*   A A   1       9.235   0.137  22.848  0.00  0.00    +0.177 C 
ATOM     14  O4*   A A   1       8.017  -0.308  23.491  0.00  0.00    -0.346 OA
BRANCH  11  15
ATOM     15  O2*   A A   1       9.575   0.266  26.101  0.00  0.00    -0.385 OA
ATOM     16  H2*   A A   1      10.171   1.017  25.915  0.00  0.00    +0.210 HD
ENDBRANCH  11  15
BRANCH  12  17
ATOM     17  O3*   A A   1      10.946   1.214  24.187  0.00  0.00    -0.386 OA
ATOM     18  H3*   A A   1      10.319   1.895  23.863  0.00  0.00    +0.210 HD
ENDBRANCH  12  17
BRANCH  13  19
ATOM     19  C5*   A A   1       9.464  -0.669  21.561  0.00  0.00    +0.190 C 
BRANCH  19  20
ATOM     20  O5*   A A   1      10.523  -1.604  21.743  0.00  0.00    -0.392 OA
ATOM     21  H5*   A A   1      11.348  -1.144  21.501  0.00  0.00    +0.210 HD
ENDBRANCH  19  20
ENDBRANCH  13  19
ENDBRANCH   6  10
BRANCH   1  22
ATOM     22  N6    A A   1       6.867  -6.533  22.064  0.00  0.00    -0.341 N 
ATOM     23  H61   A A   1       7.650  -6.737  21.456  0.00  0.00    +0.144 HD
ATOM     24  H62   A A   1       5.998  -7.026  21.888  0.00  0.00    +0.144 HD
ENDBRANCH   1  22
TORSDOF 6
ENDMDL
MODEL 2
REMARK VINA RESULT:      -6.2      3.309      5.474
REMARK  Name = 
REMARK  6 active torsions:
REMARK  status: ('A' for Active; 'I' for Inactive)
REMARK    1  A    between atoms: N6_1  and  C6_2
REMARK    2  A    between atoms: N9_6  and  C1*_7
REMARK    3  A    between atoms: C4*_10  and  C5*_12
REMARK    4  A    between atoms: C5*_12  and  O5*_13
REMARK    5  A    between atoms: C3*_14  and  O3*_16
REMARK    6  A    between atoms: C2*_17  and  O2*_19
REMARK                            x       y       z     vdW  Elec       q    Type
REMARK                         _______ _______ _______ _____ _____    ______ ____
ROOT
ATOM      1  C6    A A   1       9.669   0.157  23.947  0.00  0.00    +0.147 A 
ATOM      2  N1    A A   1      10.317  -0.335  22.866  0.00  0.00    -0.219 NA
ATOM      3  C2    A A   1      10.406  -1.672  22.725  0.00  0.00    +0.225 A 
ATOM      4  N3    A A   1       9.937  -2.636  23.546  0.00  0.00    -0.216 NA
ATOM      5  C4    A A   1       9.300  -2.101  24.601  0.00  0.00    +0.167 A 
ATOM      6  N9    A A   1       8.711  -2.749  25.648  0.00  0.00    -0.286 N 
ATOM      7  C8    A A   1       8.237  -1.782  26.508  0.00  0.00    +0.203 A 
ATOM      8  N7    A A   1       8.475  -0.569  26.072  0.00  0.00    -0.231 NA
ATOM      9  C5    A A   1       9.135  -0.751  24.876  0.00  0.00    +0.147 A 
ENDROOT
BRANCH   6  10
ATOM     10  C1*   A A   1       8.606  -4.159  25.921  0.00  0.00    +0.253 C 
ATOM     11  C2*   A A   1       7.523  -4.718  26.853  0.00  0.00    +0.195 C 
ATOM     12  C3*   A A   1       6.369  -5.089  25.921  0.00  0.00    +0.178 C 
ATOM     13  C4*   A A   1       6.976  -5.085  24.517  0.00  0.00    +0.177 C 
ATOM     14  O4*   A A   1       8.393  -4.824  24.654  0.00  0.00    -0.346 OA
BRANCH  11  15
ATOM     15  O2*   A A   1       7.982  -5.922  27.516  0.00  0.00    -0.385 OA
ATOM     16  H2*   A A   1       7.681  -5.903  28.445  0.00  0.00    +0.210 HD
ENDBRANCH  11  15
BRANCH  12  17
ATOM     17  O3*   A A   1       5.850  -6.389  26.223  0.00  0.00    -0.386 OA
ATOM     18  H3*   A A   1       6.577  -6.888  26.650  0.00  0.00    +0.210 HD
ENDBRANCH  12  17
BRANCH  13  19
ATOM     19  C5*   A A   1       6.336  -4.009  23.627  0.00  0.00    +0.190 C 
BRANCH  19  20
ATOM     20  O5*   A A   1       7.153  -3.761  22.486  0.00  0.00    -0.392 OA
ATOM     21  H5*   A A   1       6.928  -4.443  21.826  0.00  0.00    +0.210 HD
ENDBRANCH  19  20
ENDBRANCH  13  19
ENDBRANCH   6  10
BRANCH   1  22
ATOM     22  N6    A A   1       9.584   1.534  24.096  0.00  0.00    -0.341 N 
ATOM     23  H61   A A   1      10.191   2.027  23.454  0.00  0.00    +0.144 HD
ATOM     24  H62   A A   1       9.584   1.836  25.064  0.00  0.00    +0.144 HD
ENDBRANCH   1  22
TORSDOF 6
ENDMDL
MODEL 3
REMARK VINA RESULT:      -6.1      2.393      3.777
REMARK  Name = 
REMARK  6 active torsions:
REMARK  status: ('A' for Active; 'I' for Inactive)
REMARK    1  A    between atoms: N6_1  and  C6_2
REMARK    2  A    between atoms: N9_6  and  C1*_7
REMARK    3  A    between atoms: C4*_10  and  C5*_12
REMARK    4  A    between atoms: C5*_12  and  O5*_13
REMARK    5  A    between atoms: C3*_14  and  O3*_16
REMARK    6  A    between atoms: C2*_17  and  O2*_19
REMARK                            x       y       z     vdW  Elec       q    Type
REMARK                         _______ _______ _______ _____ _____    ______ ____
ROOT
ATOM      1  C6    A A   1       7.628  -4.153  26.413  0.00  0.00    +0.147 A 
ATOM      2  N1    A A   1       8.602  -5.091  26.369  0.00  0.00    -0.219 NA
ATOM      3  C2    A A   1       9.583  -4.954  25.455  0.00  0.00    +0.225 A 
ATOM      4  N3    A A   1       9.738  -3.985  24.527  0.00  0.00    -0.216 NA
ATOM      5  C4    A A   1       8.750  -3.078  24.611  0.00  0.00    +0.167 A 
ATOM      6  N9    A A   1       8.555  -1.971  23.837  0.00  0.00    -0.286 N 
ATOM      7  C8    A A   1       7.385  -1.380  24.263  0.00  0.00    +0.203 A 
ATOM      8  N7    A A   1       6.834  -2.030  25.259  0.00  0.00    -0.231 NA
ATOM      9  C5    A A   1       7.679  -3.092  25.494  0.00  0.00    +0.147 A 
ENDROOT
BRANCH   6  10
ATOM     10  C1*   A A   1       9.328  -1.468  22.730  0.00  0.00    +0.253 C 
ATOM     11  C2*   A A   1       8.864  -0.255  21.913  0.00  0.00    +0.195 C 
ATOM     12  C3*   A A   1       9.545   0.940  22.580  0.00  0.00    +0.178 C 
ATOM     13  C4*   A A   1      10.630   0.332  23.471  0.00  0.00    +0.177 C 
ATOM     14  O4*   A A   1      10.625  -1.099  23.251  0.00  0.00    -0.346 OA
BRANCH  11  15
ATOM     15  O2*   A A   1       9.332  -0.345  20.544  0.00  0.00    -0.385 OA
ATOM     16  H2*   A A   1      10.305  -0.423  20.550  0.00  0.00    +0.210 HD
ENDBRANCH  11  15
BRANCH  12  17
ATOM     17  O3*   A A   1      10.142   1.810  21.612  0.00  0.00    -0.386 OA
ATOM     18  H3*   A A   1       9.708   2.682  21.716  0.00  0.00    +0.210 HD
ENDBRANCH  12  17
BRANCH  13  19
ATOM     19  C5*   A A   1      10.374   0.627  24.957  0.00  0.00    +0.190 C 
BRANCH  19  20
ATOM     20  O5*   A A   1       9.355   1.613  25.097  0.00  0.00    -0.392 OA
ATOM     21  H5*   A A   1       8.553   1.147  25.398  0.00  0.00    +0.210 HD
ENDBRANCH  19  20
ENDBRANCH  13  19
ENDBRANCH   6  10
BRANCH   1  22
ATOM     22  N6    A A   1       6.613  -4.299  27.347  0.00  0.00    -0.341 N 
ATOM     23  H61   A A   1       6.674  -3.614  28.089  0.00  0.00    +0.144 HD
ATOM     24  H62   A A   1       6.444  -5.263  27.614  0.00  0.00    +0.144 HD
ENDBRANCH   1  22
TORSDOF 6
ENDMDL
MODEL 4
REMARK VINA RESULT:      -6.0      2.059      3.477
REMARK  Name = 
REMARK  6 active torsions:
REMARK  status: ('A' for Active; 'I' for Inactive)
REMARK    1  A    between atoms: N6_1  and  C6_2
REMARK    2  A    between atoms: N9_6  and  C1*_7
REMARK    3  A    between atoms: C4*_10  and  C5*_12
REMARK    4  A    between atoms: C5*_12  and  O5*_13
REMARK    5  A    between atoms: C3*_14  and  O3*_16
REMARK    6  A    between atoms: C2*_17  and  O2*_19
REMARK                            x       y       z     vdW  Elec       q    Type
REMARK                         _______ _______ _______ _____ _____    ______ ____
ROOT
ATOM      1  C6    A A   1       6.314  -5.610  25.654  0.00  0.00    +0.147 A 
ATOM      2  N1    A A   1       7.126  -5.771  26.723  0.00  0.00    -0.219 NA
ATOM      3  C2    A A   1       8.273  -5.064  26.770  0.00  0.00    +0.225 A 
ATOM      4  N3    A A   1       8.760  -4.192  25.861  0.00  0.00    -0.216 NA
ATOM      5  C4    A A   1       7.919  -4.063  24.821  0.00  0.00    +0.167 A 
ATOM      6  N9    A A   1       8.071  -3.293  23.705  0.00  0.00    -0.286 N 
ATOM      7  C8    A A   1       6.979  -3.529  22.898  0.00  0.00    +0.203 A 
ATOM      8  N7    A A   1       6.143  -4.386  23.431  0.00  0.00    -0.231 NA
ATOM      9  C5    A A   1       6.713  -4.726  24.638  0.00  0.00    +0.147 A 
ENDROOT
BRANCH   6  10
ATOM     10  C1*   A A   1       9.150  -2.419  23.325  0.00  0.00    +0.253 C 
ATOM     11  C2*   A A   1       9.150  -1.680  21.979  0.00  0.00    +0.195 C 
ATOM     12  C3*   A A   1       8.519  -0.323  22.287  0.00  0.00    +0.178 C 
ATOM     13  C4*   A A   1       8.545  -0.209  23.813  0.00  0.00    +0.177 C 
ATOM     14  O4*   A A   1       9.228  -1.378  24.326  0.00  0.00    -0.346 OA
BRANCH  11  15
ATOM     15  O2*   A A   1      10.503  -1.462  21.510  0.00  0.00    -0.385 OA
ATOM     16  H2*   A A   1      11.124  -1.899  22.125  0.00  0.00    +0.210 HD
ENDBRANCH  11  15
BRANCH  12  17
ATOM     17  O3*   A A   1       9.273   0.748  21.707  0.00  0.00    -0.386 OA
ATOM     18  H3*   A A   1      10.205   0.447  21.674  0.00  0.00    +0.210 HD
ENDBRANCH  12  17
BRANCH  13  19
ATOM     19  C5*   A A   1       7.127  -0.140  24.399  0.00  0.00    +0.190 C 
BRANCH  19  20
ATOM     20  O5*   A A   1       6.159  -0.116  23.353  0.00  0.00    -0.392 OA
ATOM     21  H5*   A A   1       6.475   0.529  22.693  0.00  0.00    +0.210 HD
ENDBRANCH  19  20
ENDBRANCH  13  19
ENDBRANCH   6  10
BRANCH   1  22
ATOM     22  N6    A A   1       5.137  -6.344  25.602  0.00  0.00    -0.341 N 
ATOM     23  H61   A A   1       4.394  -5.845  25.130  0.00  0.00    +0.144 HD
ATOM     24  H62   A A   1       4.909  -6.804  26.477  0.00  0.00    +0.144 HD
ENDBRANCH   1  22
TORSDOF 6
ENDMDL
MODEL 5
REMARK VINA RESULT:      -6.0      3.290      5.405
REMARK  Name = 
REMARK  6 active torsions:
REMARK  status: ('A' for Active; 'I' for Inactive)
REMARK    1  A    between atoms: N6_1  and  C6_2
REMARK    2  A    between atoms: N9_6  and  C1*_7
REMARK    3  A    between atoms: C4*_10  and  C5*_12
REMARK    4  A    between atoms: C5*_12  and  O5*_13
REMARK    5  A    between atoms: C3*_14  and  O3*_16
REMARK    6  A    between atoms: C2*_17  and  O2*_19
REMARK                            x       y       z     vdW  Elec       q    Type
REMARK                         _______ _______ _______ _____ _____    ______ ____
ROOT
ATOM      1  C6    A A   1       9.320   0.951  23.137  0.00  0.00    +0.147 A 
ATOM      2  N1    A A   1       9.455   0.670  21.821  0.00  0.00    -0.219 NA
ATOM      3  C2    A A   1       9.491  -0.623  21.441  0.00  0.00    +0.225 A 
ATOM      4  N3    A A   1       9.423  -1.728  22.215  0.00  0.00    -0.216 NA
ATOM      5  C4    A A   1       9.287  -1.399  23.511  0.00  0.00    +0.167 A 
ATOM      6  N9    A A   1       9.203  -2.233  24.587  0.00  0.00    -0.286 N 
ATOM      7  C8    A A   1       9.128  -1.438  25.711  0.00  0.00    +0.203 A 
ATOM      8  N7    A A   1       9.147  -0.160  25.418  0.00  0.00    -0.231 NA
ATOM      9  C5    A A   1       9.240  -0.118  24.044  0.00  0.00    +0.147 A 
ENDROOT
BRANCH   6  10
ATOM     10  C1*   A A   1       9.239  -3.671  24.648  0.00  0.00    +0.253 C 
ATOM     11  C2*   A A   1       9.441  -4.414  25.976  0.00  0.00    +0.195 C 
ATOM     12  C3*   A A   1       8.024  -4.698  26.475  0.00  0.00    +0.178 C 
ATOM     13  C4*   A A   1       7.120  -4.457  25.265  0.00  0.00    +0.177 C 
ATOM     14  O4*   A A   1       7.974  -4.150  24.136  0.00  0.00    -0.346 OA
BRANCH  11  15
ATOM     15  O2*   A A   1      10.115  -5.679  25.762  0.00  0.00    -0.385 OA
ATOM     16  H2*   A A   1       9.931  -6.265  26.522  0.00  0.00    +0.210 HD
ENDBRANCH  11  15
BRANCH  12  17
ATOM     17  O3*   A A   1       7.888  -6.053  26.921  0.00  0.00    -0.386 OA
ATOM     18  H3*   A A   1       8.665  -6.239  27.488  0.00  0.00    +0.210 HD
ENDBRANCH  12  17
BRANCH  13  19
ATOM     19  C5*   A A   1       6.148  -3.293  25.508  0.00  0.00    +0.190 C 
BRANCH  19  20
ATOM     20  O5*   A A   1       6.149  -2.927  26.885  0.00  0.00    -0.392 OA
ATOM     21  H5*   A A   1       6.429  -3.716  27.385  0.00  0.00    +0.210 HD
ENDBRANCH  19  20
ENDBRANCH  13  19
ENDBRANCH   6  10
BRANCH   1  22
ATOM     22  N6    A A   1       9.293   2.282  23.528  0.00  0.00    -0.341 N 
ATOM     23  H61   A A   1       9.535   2.909  22.771  0.00  0.00    +0.144 HD
ATOM     24  H62   A A   1       9.727   2.448  24.429  0.00  0.00    +0.144 HD
ENDBRANCH   1  22
TORSDOF 6
ENDMDL
MODEL 6
REMARK VINA RESULT:      -6.0      3.139      5.498
REMARK  Name = 
REMARK  6 active torsions:
REMARK  status: ('A' for Active; 'I' for Inactive)
REMARK    1  A    between atoms: N6_1  and  C6_2
REMARK    2  A    between atoms: N9_6  and  C1*_7
REMARK    3  A    between atoms: C4*_10  and  C5*_12
REMARK    4  A    between atoms: C5*_12  and  O5*_13
REMARK    5  A    between atoms: C3*_14  and  O3*_16
REMARK    6  A    between atoms: C2*_17  and  O2*_19
REMARK                            x       y       z     vdW  Elec       q    Type
REMARK                         _______ _______ _______ _____ _____    ______ ____
ROOT
ATOM      1  C6    A A   1       9.348   1.929  22.270  0.00  0.00    +0.147 A 
ATOM      2  N1    A A   1       8.405   2.755  22.778  0.00  0.00    -0.219 NA
ATOM      3  C2    A A   1       7.238   2.220  23.190  0.00  0.00    +0.225 A 
ATOM      4  N3    A A   1       6.848   0.928  23.155  0.00  0.00    -0.216 NA
ATOM      5  C4    A A   1       7.816   0.148  22.646  0.00  0.00    +0.167 A 
ATOM      6  N9    A A   1       7.789  -1.201  22.437  0.00  0.00    -0.286 N 
ATOM      7  C8    A A   1       8.988  -1.543  21.848  0.00  0.00    +0.203 A 
ATOM      8  N7    A A   1       9.774  -0.508  21.682  0.00  0.00    -0.231 NA
ATOM      9  C5    A A   1       9.058   0.558  22.181  0.00  0.00    +0.147 A 
ENDROOT
BRANCH   6  10
ATOM     10  C1*   A A   1       6.741  -2.155  22.690  0.00  0.00    +0.253 C 
ATOM     11  C2*   A A   1       6.810  -3.588  22.144  0.00  0.00    +0.195 C 
ATOM     12  C3*   A A   1       7.449  -4.397  23.272  0.00  0.00    +0.178 C 
ATOM     13  C4*   A A   1       7.361  -3.498  24.507  0.00  0.00    +0.177 C 
ATOM     14  O4*   A A   1       6.638  -2.303  24.125  0.00  0.00    -0.346 OA
BRANCH  11  15
ATOM     15  O2*   A A   1       5.481  -4.111  21.899  0.00  0.00    -0.385 OA
ATOM     16  H2*   A A   1       5.023  -3.523  21.268  0.00  0.00    +0.210 HD
ENDBRANCH  11  15
BRANCH  12  17
ATOM     17  O3*   A A   1       6.738  -5.618  23.508  0.00  0.00    -0.386 OA
ATOM     18  H3*   A A   1       6.046  -5.414  24.171  0.00  0.00    +0.210 HD
ENDBRANCH  12  17
BRANCH  13  19
ATOM     19  C5*   A A   1       8.754  -3.115  25.028  0.00  0.00    +0.190 C 
BRANCH  19  20
ATOM     20  O5*   A A   1       9.756  -3.901  24.388  0.00  0.00    -0.392 OA
ATOM     21  H5*   A A   1      10.543  -3.875  24.963  0.00  0.00    +0.210 HD
ENDBRANCH  19  20
ENDBRANCH  13  19
ENDBRANCH   6  10
BRANCH   1  22
ATOM     22  N6    A A   1      10.545   2.482  21.839  0.00  0.00    -0.341 N 
ATOM     23  H61   A A   1      10.984   1.928  21.114  0.00  0.00    +0.144 HD
ATOM     24  H62   A A   1      11.134   2.812  22.596  0.00  0.00    +0.144 HD
ENDBRANCH   1  22
TORSDOF 6
ENDMDL
MODEL 7
REMARK VINA RESULT:      -6.0      3.312      5.300
REMARK  Name = 
REMARK  6 active torsions:
REMARK  status: ('A' for Active; 'I' for Inactive)
REMARK    1  A    between atoms: N6_1  and  C6_2
REMARK    2  A    between atoms: N9_6  and  C1*_7
REMARK    3  A    between atoms: C4*_10  and  C5*_12
REMARK    4  A    between atoms: C5*_12  and  O5*_13
REMARK    5  A    between atoms: C3*_14  and  O3*_16
REMARK    6  A    between atoms: C2*_17  and  O2*_19
REMARK                            x       y       z     vdW  Elec       q    Type
REMARK                         _______ _______ _______ _____ _____    ______ ____
ROOT
ATOM      1  C6    A A   1       9.480  -0.561  22.424  0.00  0.00    +0.147 A 
ATOM      2  N1    A A   1      10.326   0.167  23.188  0.00  0.00    -0.219 NA
ATOM      3  C2    A A   1      10.324  -0.038  24.521  0.00  0.00    +0.225 A 
ATOM      4  N3    A A   1       9.560  -0.889  25.238  0.00  0.00    -0.216 NA
ATOM      5  C4    A A   1       8.740  -1.591  24.438  0.00  0.00    +0.167 A 
ATOM      6  N9    A A   1       7.814  -2.528  24.793  0.00  0.00    -0.286 N 
ATOM      7  C8    A A   1       7.181  -2.931  23.636  0.00  0.00    +0.203 A 
ATOM      8  N7    A A   1       7.651  -2.321  22.575  0.00  0.00    -0.231 NA
ATOM      9  C5    A A   1       8.632  -1.483  23.058  0.00  0.00    +0.147 A 
ENDROOT
BRANCH   6  10
ATOM     10  C1*   A A   1       7.452  -3.023  26.095  0.00  0.00    +0.253 C 
ATOM     11  C2*   A A   1       6.261  -3.971  26.292  0.00  0.00    +0.195 C 
ATOM     12  C3*   A A   1       6.870  -5.371  26.227  0.00  0.00    +0.178 C 
ATOM     13  C4*   A A   1       8.377  -5.157  26.380  0.00  0.00    +0.177 C 
ATOM     14  O4*   A A   1       8.596  -3.744  26.610  0.00  0.00    -0.346 OA
BRANCH  11  15
ATOM     15  O2*   A A   1       5.666  -3.789  27.601  0.00  0.00    -0.385 OA
ATOM     16  H2*   A A   1       6.306  -3.325  28.174  0.00  0.00    +0.210 HD
ENDBRANCH  11  15
BRANCH  12  17
ATOM     17  O3*   A A   1       6.388  -6.202  27.289  0.00  0.00    -0.386 OA
ATOM     18  H3*   A A   1       6.661  -5.771  28.126  0.00  0.00    +0.210 HD
ENDBRANCH  12  17
BRANCH  13  19
ATOM     19  C5*   A A   1       9.142  -5.600  25.124  0.00  0.00    +0.190 C 
BRANCH  19  20
ATOM     20  O5*   A A   1      10.521  -5.258  25.237  0.00  0.00    -0.392 OA
ATOM     21  H5*   A A   1      10.952  -5.986  25.722  0.00  0.00    +0.210 HD
ENDBRANCH  19  20
ENDBRANCH  13  19
ENDBRANCH   6  10
BRANCH   1  22
ATOM     22  N6    A A   1       9.477  -0.344  21.054  0.00  0.00    -0.341 N 
ATOM     23  H61   A A   1       9.070   0.549  20.808  0.00  0.00    +0.144 HD
ATOM     24  H62   A A   1       9.185  -1.154  20.516  0.00  0.00    +0.144 HD
ENDBRANCH   1  22
TORSDOF 6
ENDMDL
MODEL 8
REMARK VINA RESULT:      -5.9      3.180      5.414
REMARK  Name = 
REMARK  6 active torsions:
REMARK  status: ('A' for Active; 'I' for Inactive)
REMARK    1  A    between atoms: N6_1  and  C6_2
REMARK    2  A    between atoms: N9_6  and  C1*_7
REMARK    3  A    between atoms: C4*_10  and  C5*_12
REMARK    4  A    between atoms: C5*_12  and  O5*_13
REMARK    5  A    between atoms: C3*_14  and  O3*_16
REMARK    6  A    between atoms: C2*_17  and  O2*_19
REMARK                            x       y       z     vdW  Elec       q    Type
REMARK                         _______ _______ _______ _____ _____    ______ ____
ROOT
ATOM      1  C6    A A   1       8.249   0.221  23.620  0.00  0.00    +0.147 A 
ATOM      2  N1    A A   1       8.748   0.546  24.834  0.00  0.00    -0.219 NA
ATOM      3  C2    A A   1       9.109  -0.451  25.667  0.00  0.00    +0.225 A 
ATOM      4  N3    A A   1       9.029  -1.784  25.465  0.00  0.00    -0.216 NA
ATOM      5  C4    A A   1       8.531  -2.057  24.248  0.00  0.00    +0.167 A 
ATOM      6  N9    A A   1       8.287  -3.279  23.691  0.00  0.00    -0.286 N 
ATOM      7  C8    A A   1       7.728  -3.055  22.451  0.00  0.00    +0.203 A 
ATOM      8  N7    A A   1       7.613  -1.777  22.181  0.00  0.00    -0.231 NA
ATOM      9  C5    A A   1       8.116  -1.138  23.293  0.00  0.00    +0.147 A 
ENDROOT
BRANCH   6  10
ATOM     10  C1*   A A   1       8.482  -4.598  24.234  0.00  0.00    +0.253 C 
ATOM     11  C2*   A A   1       9.102  -4.811  25.622  0.00  0.00    +0.195 C 
ATOM     12  C3*   A A   1       7.904  -4.894  26.568  0.00  0.00    +0.178 C 
ATOM     13  C4*   A A   1       6.693  -5.105  25.658  0.00  0.00    +0.177 C 
ATOM     14  O4*   A A   1       7.182  -5.228  24.301  0.00  0.00    -0.346 OA
BRANCH  11  15
ATOM     15  O2*   A A   1       9.820  -6.068  25.679  0.00  0.00    -0.385 OA
ATOM     16  H2*   A A   1      10.696  -5.949  25.263  0.00  0.00    +0.210 HD
ENDBRANCH  11  15
BRANCH  12  17
ATOM     17  O3*   A A   1       8.029  -5.995  27.475  0.00  0.00    -0.386 OA
ATOM     18  H3*   A A   1       7.136  -6.151  27.848  0.00  0.00    +0.210 HD
ENDBRANCH  12  17
BRANCH  13  19
ATOM     19  C5*   A A   1       5.706  -3.931  25.747  0.00  0.00    +0.190 C 
BRANCH  19  20
ATOM     20  O5*   A A   1       6.241  -2.896  26.568  0.00  0.00    -0.392 OA
ATOM     21  H5*   A A   1       5.989  -2.051  26.153  0.00  0.00    +0.210 HD
ENDBRANCH  19  20
ENDBRANCH  13  19
ENDBRANCH   6  10
BRANCH   1  22
ATOM     22  N6    A A   1       7.870   1.248  22.767  0.00  0.00    -0.341 N 
ATOM     23  H61   A A   1       8.368   2.107  22.956  0.00  0.00    +0.144 HD
ATOM     24  H62   A A   1       6.866   1.309  22.629  0.00  0.00    +0.144 HD
ENDBRANCH   1  22
TORSDOF 6
ENDMDL
MODEL 9
REMARK VINA RESULT:      -5.8      1.547      2.467
REMARK  Name = 
REMARK  6 active torsions:
REMARK  status: ('A' for Active; 'I' for Inactive)
REMARK    1  A    between atoms: N6_1  and  C6_2
REMARK    2  A    between atoms: N9_6  and  C1*_7
REMARK    3  A    between atoms: C4*_10  and  C5*_12
REMARK    4  A    between atoms: C5*_12  and  O5*_13
REMARK    5  A    between atoms: C3*_14  and  O3*_16
REMARK    6  A    between atoms: C2*_17  and  O2*_19
REMARK                            x       y       z     vdW  Elec       q    Type
REMARK                         _______ _______ _______ _____ _____    ______ ____
ROOT
ATOM      1  C6    A A   1       5.672  -5.607  23.457  0.00  0.00    +0.147 A 
ATOM      2  N1    A A   1       5.287  -5.299  22.198  0.00  0.00    -0.219 NA
ATOM      3  C2    A A   1       6.004  -4.387  21.512  0.00  0.00    +0.225 A 
ATOM      4  N3    A A   1       7.088  -3.692  21.920  0.00  0.00    -0.216 NA
ATOM      5  C4    A A   1       7.433  -4.032  23.173  0.00  0.00    +0.167 A 
ATOM      6  N9    A A   1       8.457  -3.538  23.929  0.00  0.00    -0.286 N 
ATOM      7  C8    A A   1       8.382  -4.151  25.161  0.00  0.00    +0.203 A 
ATOM      8  N7    A A   1       7.390  -5.005  25.233  0.00  0.00    -0.231 NA
ATOM      9  C5    A A   1       6.790  -4.948  23.994  0.00  0.00    +0.147 A 
ENDROOT
BRANCH   6  10
ATOM     10  C1*   A A   1       9.437  -2.532  23.613  0.00  0.00    +0.253 C 
ATOM     11  C2*   A A   1       9.486  -1.864  22.232  0.00  0.00    +0.195 C 
ATOM     12  C3*   A A   1       8.637  -0.602  22.386  0.00  0.00    +0.178 C 
ATOM     13  C4*   A A   1       8.469  -0.417  23.895  0.00  0.00    +0.177 C 
ATOM     14  O4*   A A   1       9.248  -1.446  24.550  0.00  0.00    -0.346 OA
BRANCH  11  15
ATOM     15  O2*   A A   1      10.840  -1.468  21.898  0.00  0.00    -0.385 OA
ATOM     16  H2*   A A   1      11.404  -1.583  22.687  0.00  0.00    +0.210 HD
ENDBRANCH  11  15
BRANCH  12  17
ATOM     17  O3*   A A   1       9.291   0.541  21.825  0.00  0.00    -0.386 OA
ATOM     18  H3*   A A   1       9.894   0.885  22.517  0.00  0.00    +0.210 HD
ENDBRANCH  12  17
BRANCH  13  19
ATOM     19  C5*   A A   1       6.998  -0.533  24.320  0.00  0.00    +0.190 C 
BRANCH  19  20
ATOM     20  O5*   A A   1       6.183  -0.864  23.199  0.00  0.00    -0.392 OA
ATOM     21  H5*   A A   1       5.320  -0.433  23.342  0.00  0.00    +0.210 HD
ENDBRANCH  19  20
ENDBRANCH  13  19
ENDBRANCH   6  10
BRANCH   1  22
ATOM     22  N6    A A   1       4.929  -6.540  24.165  0.00  0.00    -0.341 N 
ATOM     23  H61   A A   1       5.077  -6.471  25.163  0.00  0.00    +0.144 HD
ATOM     24  H62   A A   1       4.945  -7.467  23.753  0.00  0.00    +0.144 HD
ENDBRANCH   1  22
TORSDOF 6
ENDMDL
