MODEL 1
REMARK VINA RESULT:      -7.5      0.000      0.000
REMARK  Name = 
REMARK  8 active torsions:
REMARK  status: ('A' for Active; 'I' for Inactive)
REMARK    1  A    between atoms: C_1  and  C_2
REMARK    2  A    between atoms: C_2  and  C_3
REMARK    3  A    between atoms: C_2  and  C_4
REMARK    4  A    between atoms: C_4  and  O_5
REMARK    5  A    between atoms: O_5  and  C_6
REMARK    6  A    between atoms: C_7  and  O_8
REMARK    7  A    between atoms: C_9  and  C_13
REMARK    8  A    between atoms: C_17  and  C_18
REMARK                            x       y       z     vdW  Elec       q    Type
REMARK                         _______ _______ _______ _____ _____    ______ ____
ROOT
ATOM      1  C   UNL     1       8.081   0.175  23.504  0.00  0.00    +0.143 A 
ATOM      2  N   UNL     1       7.600  -0.768  22.623  0.00  0.00    -0.338 N 
ATOM      3  H   UNL     1       7.095  -0.544  21.777  0.00  0.00    +0.167 HD
ATOM      4  C   UNL     1       7.851  -2.015  23.134  0.00  0.00    +0.069 A 
ATOM      5  C   UNL     1       8.494  -1.763  24.338  0.00  0.00    +0.090 A 
ATOM      6  C   UNL     1       8.846  -2.832  25.175  0.00  0.00    +0.048 A 
ATOM      7  C   UNL     1       8.543  -4.143  24.771  0.00  0.00    +0.102 A 
ATOM      8  C   UNL     1       7.921  -4.354  23.532  0.00  0.00    +0.140 A 
ATOM      9  F   UNL     1       7.629  -5.600  23.123  0.00  0.00    -0.205 F 
ATOM     10  C   UNL     1       7.562  -3.302  22.682  0.00  0.00    +0.067 A 
ATOM     11  N   UNL     1       8.671  -0.418  24.526  0.00  0.00    -0.228 NA
ENDROOT
BRANCH   1  16
ATOM     12  C   UNL     1       8.636   3.940  23.675  0.00  0.00    +0.162 A 
ATOM     13  C   UNL     1       7.624   4.373  22.816  0.00  0.00    +0.049 A 
ATOM     14  C   UNL     1       6.796   3.445  22.182  0.00  0.00    +0.004 A 
ATOM     15  C   UNL     1       6.967   2.081  22.416  0.00  0.00    +0.015 A 
ATOM     16  C   UNL     1       7.953   1.619  23.299  0.00  0.00    +0.062 A 
ATOM     17  C   UNL     1       8.785   2.563  23.918  0.00  0.00    +0.169 A 
BRANCH  17  18
ATOM     18  O   UNL     1       9.788   2.149  24.765  0.00  0.00    -0.503 OA
ATOM     19  H   UNL     1       9.336   1.969  25.615  0.00  0.00    +0.292 HD
ENDBRANCH  17  18
BRANCH  12  20
ATOM     20  O   UNL     1       9.536   4.760  24.318  0.00  0.00    -0.488 OA
BRANCH  20  21
ATOM     21  C   UNL     1      10.017   5.865  23.543  0.00  0.00    +0.232 C 
BRANCH  21  23
ATOM     22  C   UNL     1      12.095   6.473  24.850  0.00  0.00    +0.010 C 
ATOM     23  C   UNL     1      11.551   5.900  23.541  0.00  0.00    +0.020 C 
ATOM     24  C   UNL     1      12.091   4.488  23.317  0.00  0.00    +0.010 C 
ENDBRANCH  21  23
ENDBRANCH  20  21
ENDBRANCH  12  20
ENDBRANCH   1  16
BRANCH   7  25
ATOM     25  C   UNL     1       8.858  -5.288  25.680  0.00  0.00    +0.311 C 
ATOM     26  N   UNL     1       9.925  -6.017  25.576  0.00  0.00    -0.099 NA
ATOM     27  H   UNL     1      10.511  -5.710  24.790  0.00  0.00    +0.363 HD
ATOM     28  N   UNL     1       8.017  -5.647  26.694  0.00  0.00    -0.247 N 
ATOM     29  H   UNL     1       8.470  -6.320  27.307  0.00  0.00    +0.288 HD
ATOM     30  H   UNL     1       7.564  -4.905  27.211  0.00  0.00    +0.288 HD
ENDBRANCH   7  25
TORSDOF 6
ENDMDL
MODEL 2
REMARK VINA RESULT:      -7.3      3.985      8.574
REMARK  Name = 
REMARK  8 active torsions:
REMARK  status: ('A' for Active; 'I' for Inactive)
REMARK    1  A    between atoms: C_1  and  C_2
REMARK    2  A    between atoms: C_2  and  C_3
REMARK    3  A    between atoms: C_2  and  C_4
REMARK    4  A    between atoms: C_4  and  O_5
REMARK    5  A    between atoms: O_5  and  C_6
REMARK    6  A    between atoms: C_7  and  O_8
REMARK    7  A    between atoms: C_9  and  C_13
REMARK    8  A    between atoms: C_17  and  C_18
REMARK                            x       y       z     vdW  Elec       q    Type
REMARK                         _______ _______ _______ _____ _____    ______ ____
ROOT
ATOM      1  C   UNL     1       8.216   0.994  23.883  0.00  0.00    +0.143 A 
ATOM      2  N   UNL     1       7.683   2.237  24.142  0.00  0.00    -0.338 N 
ATOM      3  H   UNL     1       6.703   2.403  24.327  0.00  0.00    +0.167 HD
ATOM      4  C   UNL     1       8.674   3.175  24.020  0.00  0.00    +0.069 A 
ATOM      5  C   UNL     1       9.799   2.435  23.683  0.00  0.00    +0.090 A 
ATOM      6  C   UNL     1      11.009   3.092  23.412  0.00  0.00    +0.048 A 
ATOM      7  C   UNL     1      11.056   4.494  23.493  0.00  0.00    +0.102 A 
ATOM      8  C   UNL     1       9.904   5.200  23.867  0.00  0.00    +0.140 A 
ATOM      9  F   UNL     1       9.929   6.540  23.958  0.00  0.00    -0.205 F 
ATOM     10  C   UNL     1       8.687   4.564  24.142  0.00  0.00    +0.067 A 
ATOM     11  N   UNL     1       9.513   1.096  23.653  0.00  0.00    -0.228 NA
ENDROOT
BRANCH   1  16
ATOM     12  C   UNL     1       6.963  -2.523  23.130  0.00  0.00    +0.162 A 
ATOM     13  C   UNL     1       5.866  -2.579  23.992  0.00  0.00    +0.049 A 
ATOM     14  C   UNL     1       5.563  -1.493  24.813  0.00  0.00    +0.004 A 
ATOM     15  C   UNL     1       6.346  -0.341  24.767  0.00  0.00    +0.015 A 
ATOM     16  C   UNL     1       7.434  -0.244  23.887  0.00  0.00    +0.062 A 
ATOM     17  C   UNL     1       7.733  -1.348  23.078  0.00  0.00    +0.169 A 
BRANCH  17  18
ATOM     18  O   UNL     1       8.814  -1.307  22.225  0.00  0.00    -0.503 OA
ATOM     19  H   UNL     1       9.579  -1.110  22.804  0.00  0.00    +0.292 HD
ENDBRANCH  17  18
BRANCH  12  20
ATOM     20  O   UNL     1       7.381  -3.548  22.309  0.00  0.00    -0.488 OA
BRANCH  20  21
ATOM     21  C   UNL     1       7.601  -4.803  22.964  0.00  0.00    +0.232 C 
BRANCH  21  23
ATOM     22  C   UNL     1       5.438  -6.080  23.267  0.00  0.00    +0.010 C 
ATOM     23  C   UNL     1       6.675  -5.884  22.390  0.00  0.00    +0.020 C 
ATOM     24  C   UNL     1       6.260  -5.496  20.970  0.00  0.00    +0.010 C 
ENDBRANCH  21  23
ENDBRANCH  20  21
ENDBRANCH  12  20
ENDBRANCH   1  16
BRANCH   7  25
ATOM     25  C   UNL     1      12.322   5.211  23.148  0.00  0.00    +0.311 C 
ATOM     26  N   UNL     1      13.095   5.768  24.027  0.00  0.00    -0.099 NA
ATOM     27  H   UNL     1      12.720   5.657  24.978  0.00  0.00    +0.363 HD
ATOM     28  N   UNL     1      12.746   5.332  21.856  0.00  0.00    -0.247 N 
ATOM     29  H   UNL     1      13.697   5.688  21.828  0.00  0.00    +0.288 HD
ATOM     30  H   UNL     1      12.618   4.536  21.246  0.00  0.00    +0.288 HD
ENDBRANCH   7  25
TORSDOF 6
ENDMDL
MODEL 3
REMARK VINA RESULT:      -7.2      3.850      8.385
REMARK  Name = 
REMARK  8 active torsions:
REMARK  status: ('A' for Active; 'I' for Inactive)
REMARK    1  A    between atoms: C_1  and  C_2
REMARK    2  A    between atoms: C_2  and  C_3
REMARK    3  A    between atoms: C_2  and  C_4
REMARK    4  A    between atoms: C_4  and  O_5
REMARK    5  A    between atoms: O_5  and  C_6
REMARK    6  A    between atoms: C_7  and  O_8
REMARK    7  A    between atoms: C_9  and  C_13
REMARK    8  A    between atoms: C_17  and  C_18
REMARK                            x       y       z     vdW  Elec       q    Type
REMARK                         _______ _______ _______ _____ _____    ______ ____
ROOT
ATOM      1  C   UNL     1       8.770   0.697  23.579  0.00  0.00    +0.143 A 
ATOM      2  N   UNL     1       8.075   1.837  23.914  0.00  0.00    -0.338 N 
ATOM      3  H   UNL     1       7.078   1.863  24.079  0.00  0.00    +0.167 HD
ATOM      4  C   UNL     1       8.940   2.900  23.897  0.00  0.00    +0.069 A 
ATOM      5  C   UNL     1      10.158   2.338  23.542  0.00  0.00    +0.090 A 
ATOM      6  C   UNL     1      11.280   3.162  23.363  0.00  0.00    +0.048 A 
ATOM      7  C   UNL     1      11.144   4.547  23.552  0.00  0.00    +0.102 A 
ATOM      8  C   UNL     1       9.902   5.070  23.941  0.00  0.00    +0.140 A 
ATOM      9  F   UNL     1       9.752   6.390  24.135  0.00  0.00    -0.205 F 
ATOM     10  C   UNL     1       8.771   4.265  24.125  0.00  0.00    +0.067 A 
ATOM     11  N   UNL     1      10.048   0.980  23.400  0.00  0.00    -0.228 NA
ENDROOT
BRANCH   1  16
ATOM     12  C   UNL     1       8.187  -3.068  23.644  0.00  0.00    +0.162 A 
ATOM     13  C   UNL     1       6.859  -3.114  23.217  0.00  0.00    +0.049 A 
ATOM     14  C   UNL     1       6.170  -1.934  22.935  0.00  0.00    +0.004 A 
ATOM     15  C   UNL     1       6.810  -0.702  23.067  0.00  0.00    +0.015 A 
ATOM     16  C   UNL     1       8.153  -0.626  23.462  0.00  0.00    +0.062 A 
ATOM     17  C   UNL     1       8.828  -1.820  23.754  0.00  0.00    +0.169 A 
BRANCH  17  18
ATOM     18  O   UNL     1      10.137  -1.788  24.179  0.00  0.00    -0.503 OA
ATOM     19  H   UNL     1      10.627  -1.372  23.440  0.00  0.00    +0.292 HD
ENDBRANCH  17  18
BRANCH  12  20
ATOM     20  O   UNL     1       8.949  -4.162  23.991  0.00  0.00    -0.488 OA
BRANCH  20  21
ATOM     21  C   UNL     1       8.206  -5.324  24.381  0.00  0.00    +0.232 C 
BRANCH  21  23
ATOM     22  C   UNL     1       9.127  -4.482  26.581  0.00  0.00    +0.010 C 
ATOM     23  C   UNL     1       8.143  -5.439  25.910  0.00  0.00    +0.020 C 
ATOM     24  C   UNL     1       6.717  -5.149  26.382  0.00  0.00    +0.010 C 
ENDBRANCH  21  23
ENDBRANCH  20  21
ENDBRANCH  12  20
ENDBRANCH   1  16
BRANCH   7  25
ATOM     25  C   UNL     1      12.314   5.444  23.306  0.00  0.00    +0.311 C 
ATOM     26  N   UNL     1      12.896   6.139  24.233  0.00  0.00    -0.099 NA
ATOM     27  H   UNL     1      12.443   5.997  25.145  0.00  0.00    +0.363 HD
ATOM     28  N   UNL     1      12.850   5.594  22.059  0.00  0.00    -0.247 N 
ATOM     29  H   UNL     1      13.733   6.094  22.111  0.00  0.00    +0.288 HD
ATOM     30  H   UNL     1      12.911   4.772  21.474  0.00  0.00    +0.288 HD
ENDBRANCH   7  25
TORSDOF 6
ENDMDL
MODEL 4
REMARK VINA RESULT:      -7.0      3.872      8.686
REMARK  Name = 
REMARK  8 active torsions:
REMARK  status: ('A' for Active; 'I' for Inactive)
REMARK    1  A    between atoms: C_1  and  C_2
REMARK    2  A    between atoms: C_2  and  C_3
REMARK    3  A    between atoms: C_2  and  C_4
REMARK    4  A    between atoms: C_4  and  O_5
REMARK    5  A    between atoms: O_5  and  C_6
REMARK    6  A    between atoms: C_7  and  O_8
REMARK    7  A    between atoms: C_9  and  C_13
REMARK    8  A    between atoms: C_17  and  C_18
REMARK                            x       y       z     vdW  Elec       q    Type
REMARK                         _______ _______ _______ _____ _____    ______ ____
ROOT
ATOM      1  C   UNL     1       7.239  -2.362  22.688  0.00  0.00    +0.143 A 
ATOM      2  N   UNL     1       8.464  -2.099  22.119  0.00  0.00    -0.338 N 
ATOM      3  H   UNL     1       9.096  -2.814  21.784  0.00  0.00    +0.167 HD
ATOM      4  C   UNL     1       8.693  -0.749  22.169  0.00  0.00    +0.069 A 
ATOM      5  C   UNL     1       7.559  -0.238  22.785  0.00  0.00    +0.090 A 
ATOM      6  C   UNL     1       7.476   1.135  23.063  0.00  0.00    +0.048 A 
ATOM      7  C   UNL     1       8.550   1.968  22.705  0.00  0.00    +0.102 A 
ATOM      8  C   UNL     1       9.663   1.414  22.056  0.00  0.00    +0.140 A 
ATOM      9  F   UNL     1      10.696   2.194  21.698  0.00  0.00    -0.205 F 
ATOM     10  C   UNL     1       9.764   0.048  21.769  0.00  0.00    +0.067 A 
ATOM     11  N   UNL     1       6.656  -1.233  23.052  0.00  0.00    -0.228 NA
ENDROOT
BRANCH   1  16
ATOM     12  C   UNL     1       5.364  -5.399  24.021  0.00  0.00    +0.162 A 
ATOM     13  C   UNL     1       5.657  -6.324  23.018  0.00  0.00    +0.049 A 
ATOM     14  C   UNL     1       6.435  -5.948  21.922  0.00  0.00    +0.004 A 
ATOM     15  C   UNL     1       6.935  -4.649  21.831  0.00  0.00    +0.015 A 
ATOM     16  C   UNL     1       6.684  -3.709  22.840  0.00  0.00    +0.062 A 
ATOM     17  C   UNL     1       5.890  -4.098  23.928  0.00  0.00    +0.169 A 
BRANCH  17  18
ATOM     18  O   UNL     1       5.592  -3.194  24.924  0.00  0.00    -0.503 OA
ATOM     19  H   UNL     1       5.165  -3.730  25.624  0.00  0.00    +0.292 HD
ENDBRANCH  17  18
BRANCH  12  20
ATOM     20  O   UNL     1       4.573  -5.645  25.122  0.00  0.00    -0.488 OA
BRANCH  20  21
ATOM     21  C   UNL     1       5.115  -6.576  26.067  0.00  0.00    +0.232 C 
BRANCH  21  23
ATOM     22  C   UNL     1       5.241  -6.766  28.586  0.00  0.00    +0.010 C 
ATOM     23  C   UNL     1       5.487  -5.866  27.376  0.00  0.00    +0.020 C 
ATOM     24  C   UNL     1       6.955  -5.440  27.322  0.00  0.00    +0.010 C 
ENDBRANCH  21  23
ENDBRANCH  20  21
ENDBRANCH  12  20
ENDBRANCH   1  16
BRANCH   7  25
ATOM     25  C   UNL     1       8.503   3.422  23.050  0.00  0.00    +0.311 C 
ATOM     26  N   UNL     1       7.897   4.313  22.328  0.00  0.00    -0.099 NA
ATOM     27  H   UNL     1       7.468   3.890  21.496  0.00  0.00    +0.363 HD
ATOM     28  N   UNL     1       9.115   3.911  24.167  0.00  0.00    -0.247 N 
ATOM     29  H   UNL     1       8.833   4.874  24.332  0.00  0.00    +0.288 HD
ATOM     30  H   UNL     1       9.070   3.352  25.008  0.00  0.00    +0.288 HD
ENDBRANCH   7  25
TORSDOF 6
ENDMDL
MODEL 5
REMARK VINA RESULT:      -7.0      2.415      3.662
REMARK  Name = 
REMARK  8 active torsions:
REMARK  status: ('A' for Active; 'I' for Inactive)
REMARK    1  A    between atoms: C_1  and  C_2
REMARK    2  A    between atoms: C_2  and  C_3
REMARK    3  A    between atoms: C_2  and  C_4
REMARK    4  A    between atoms: C_4  and  O_5
REMARK    5  A    between atoms: O_5  and  C_6
REMARK    6  A    between atoms: C_7  and  O_8
REMARK    7  A    between atoms: C_9  and  C_13
REMARK    8  A    between atoms: C_17  and  C_18
REMARK                            x       y       z     vdW  Elec       q    Type
REMARK                         _______ _______ _______ _____ _____    ______ ____
ROOT
ATOM      1  C   UNL     1       8.145  -2.541  24.287  0.00  0.00    +0.143 A 
ATOM      2  N   UNL     1       7.251  -3.429  23.734  0.00  0.00    -0.338 N 
ATOM      3  H   UNL     1       6.933  -3.388  22.776  0.00  0.00    +0.167 HD
ATOM      4  C   UNL     1       6.826  -4.291  24.711  0.00  0.00    +0.069 A 
ATOM      5  C   UNL     1       7.504  -3.873  25.848  0.00  0.00    +0.090 A 
ATOM      6  C   UNL     1       7.257  -4.503  27.077  0.00  0.00    +0.048 A 
ATOM      7  C   UNL     1       6.325  -5.553  27.129  0.00  0.00    +0.102 A 
ATOM      8  C   UNL     1       5.686  -5.965  25.950  0.00  0.00    +0.140 A 
ATOM      9  F   UNL     1       4.798  -6.972  25.976  0.00  0.00    -0.205 F 
ATOM     10  C   UNL     1       5.919  -5.350  24.714  0.00  0.00    +0.067 A 
ATOM     11  N   UNL     1       8.346  -2.831  25.560  0.00  0.00    -0.228 NA
ENDROOT
BRANCH   1  16
ATOM     12  C   UNL     1       9.952   0.692  23.392  0.00  0.00    +0.162 A 
ATOM     13  C   UNL     1       9.978   0.577  22.001  0.00  0.00    +0.049 A 
ATOM     14  C   UNL     1       9.433  -0.547  21.379  0.00  0.00    +0.004 A 
ATOM     15  C   UNL     1       8.846  -1.554  22.144  0.00  0.00    +0.015 A 
ATOM     16  C   UNL     1       8.776  -1.451  23.540  0.00  0.00    +0.062 A 
ATOM     17  C   UNL     1       9.340  -0.321  24.151  0.00  0.00    +0.169 A 
BRANCH  17  18
ATOM     18  O   UNL     1       9.322  -0.197  25.523  0.00  0.00    -0.503 OA
ATOM     19  H   UNL     1       9.093   0.741  25.684  0.00  0.00    +0.292 HD
ENDBRANCH  17  18
BRANCH  12  20
ATOM     20  O   UNL     1      10.497   1.731  24.113  0.00  0.00    -0.488 OA
BRANCH  20  21
ATOM     21  C   UNL     1      10.045   3.038  23.738  0.00  0.00    +0.232 C 
BRANCH  21  23
ATOM     22  C   UNL     1       8.396   4.181  25.279  0.00  0.00    +0.010 C 
ATOM     23  C   UNL     1       8.565   3.224  24.099  0.00  0.00    +0.020 C 
ATOM     24  C   UNL     1       7.807   3.750  22.879  0.00  0.00    +0.010 C 
ENDBRANCH  21  23
ENDBRANCH  20  21
ENDBRANCH  12  20
ENDBRANCH   1  16
BRANCH   7  25
ATOM     25  C   UNL     1       6.007  -6.194  28.442  0.00  0.00    +0.311 C 
ATOM     26  N   UNL     1       6.060  -5.571  29.578  0.00  0.00    -0.099 NA
ATOM     27  H   UNL     1       6.355  -4.594  29.454  0.00  0.00    +0.363 HD
ATOM     28  N   UNL     1       5.639  -7.506  28.527  0.00  0.00    -0.247 N 
ATOM     29  H   UNL     1       5.295  -7.717  29.459  0.00  0.00    +0.288 HD
ATOM     30  H   UNL     1       5.031  -7.868  27.805  0.00  0.00    +0.288 HD
ENDBRANCH   7  25
TORSDOF 6
ENDMDL
MODEL 6
REMARK VINA RESULT:      -7.0      2.634      3.567
REMARK  Name = 
REMARK  8 active torsions:
REMARK  status: ('A' for Active; 'I' for Inactive)
REMARK    1  A    between atoms: C_1  and  C_2
REMARK    2  A    between atoms: C_2  and  C_3
REMARK    3  A    between atoms: C_2  and  C_4
REMARK    4  A    between atoms: C_4  and  O_5
REMARK    5  A    between atoms: O_5  and  C_6
REMARK    6  A    between atoms: C_7  and  O_8
REMARK    7  A    between atoms: C_9  and  C_13
REMARK    8  A    between atoms: C_17  and  C_18
REMARK                            x       y       z     vdW  Elec       q    Type
REMARK                         _______ _______ _______ _____ _____    ______ ____
ROOT
ATOM      1  C   UNL     1       7.571  -1.370  22.641  0.00  0.00    +0.143 A 
ATOM      2  N   UNL     1       8.158  -2.507  22.135  0.00  0.00    -0.338 N 
ATOM      3  H   UNL     1       9.027  -2.511  21.618  0.00  0.00    +0.167 HD
ATOM      4  C   UNL     1       7.333  -3.574  22.379  0.00  0.00    +0.069 A 
ATOM      5  C   UNL     1       6.250  -3.018  23.044  0.00  0.00    +0.090 A 
ATOM      6  C   UNL     1       5.159  -3.827  23.397  0.00  0.00    +0.048 A 
ATOM      7  C   UNL     1       5.191  -5.193  23.071  0.00  0.00    +0.102 A 
ATOM      8  C   UNL     1       6.319  -5.720  22.425  0.00  0.00    +0.140 A 
ATOM      9  F   UNL     1       6.373  -7.025  22.112  0.00  0.00    -0.205 F 
ATOM     10  C   UNL     1       7.417  -4.930  22.065  0.00  0.00    +0.067 A 
ATOM     11  N   UNL     1       6.434  -1.674  23.242  0.00  0.00    -0.228 NA
ENDROOT
BRANCH   1  16
ATOM     12  C   UNL     1       8.014   2.412  22.507  0.00  0.00    +0.162 A 
ATOM     13  C   UNL     1       9.394   2.487  22.314  0.00  0.00    +0.049 A 
ATOM     14  C   UNL     1      10.159   1.321  22.250  0.00  0.00    +0.004 A 
ATOM     15  C   UNL     1       9.545   0.075  22.366  0.00  0.00    +0.015 A 
ATOM     16  C   UNL     1       8.156  -0.032  22.528  0.00  0.00    +0.062 A 
ATOM     17  C   UNL     1       7.404   1.149  22.603  0.00  0.00    +0.169 A 
BRANCH  17  18
ATOM     18  O   UNL     1       6.042   1.088  22.797  0.00  0.00    -0.503 OA
ATOM     19  H   UNL     1       5.935   0.915  23.755  0.00  0.00    +0.292 HD
ENDBRANCH  17  18
BRANCH  12  20
ATOM     20  O   UNL     1       7.170   3.493  22.629  0.00  0.00    -0.488 OA
BRANCH  20  21
ATOM     21  C   UNL     1       7.384   4.307  23.789  0.00  0.00    +0.232 C 
BRANCH  21  23
ATOM     22  C   UNL     1       9.236   6.012  23.534  0.00  0.00    +0.010 C 
ATOM     23  C   UNL     1       7.738   5.745  23.384  0.00  0.00    +0.020 C 
ATOM     24  C   UNL     1       7.298   5.989  21.940  0.00  0.00    +0.010 C 
ENDBRANCH  21  23
ENDBRANCH  20  21
ENDBRANCH  12  20
ENDBRANCH   1  16
BRANCH   7  25
ATOM     25  C   UNL     1       4.011  -6.055  23.386  0.00  0.00    +0.311 C 
ATOM     26  N   UNL     1       4.102  -7.226  23.937  0.00  0.00    -0.099 NA
ATOM     27  H   UNL     1       5.082  -7.478  24.116  0.00  0.00    +0.363 HD
ATOM     28  N   UNL     1       2.737  -5.655  23.101  0.00  0.00    -0.247 N 
ATOM     29  H   UNL     1       2.064  -6.278  23.539  0.00  0.00    +0.288 HD
ATOM     30  H   UNL     1       2.508  -4.682  23.250  0.00  0.00    +0.288 HD
ENDBRANCH   7  25
TORSDOF 6
ENDMDL
MODEL 7
REMARK VINA RESULT:      -6.9      2.178      2.990
REMARK  Name = 
REMARK  8 active torsions:
REMARK  status: ('A' for Active; 'I' for Inactive)
REMARK    1  A    between atoms: C_1  and  C_2
REMARK    2  A    between atoms: C_2  and  C_3
REMARK    3  A    between atoms: C_2  and  C_4
REMARK    4  A    between atoms: C_4  and  O_5
REMARK    5  A    between atoms: O_5  and  C_6
REMARK    6  A    between atoms: C_7  and  O_8
REMARK    7  A    between atoms: C_9  and  C_13
REMARK    8  A    between atoms: C_17  and  C_18
REMARK                            x       y       z     vdW  Elec       q    Type
REMARK                         _______ _______ _______ _____ _____    ______ ____
ROOT
ATOM      1  C   UNL     1       8.259  -1.574  24.228  0.00  0.00    +0.143 A 
ATOM      2  N   UNL     1       8.900  -2.139  25.307  0.00  0.00    -0.338 N 
ATOM      3  H   UNL     1       9.797  -1.830  25.656  0.00  0.00    +0.167 HD
ATOM      4  C   UNL     1       8.166  -3.211  25.743  0.00  0.00    +0.069 A 
ATOM      5  C   UNL     1       7.077  -3.246  24.883  0.00  0.00    +0.090 A 
ATOM      6  C   UNL     1       6.131  -4.275  24.998  0.00  0.00    +0.048 A 
ATOM      7  C   UNL     1       6.306  -5.252  25.993  0.00  0.00    +0.102 A 
ATOM      8  C   UNL     1       7.404  -5.161  26.861  0.00  0.00    +0.140 A 
ATOM      9  F   UNL     1       7.585  -6.079  27.825  0.00  0.00    -0.205 F 
ATOM     10  C   UNL     1       8.358  -4.141  26.763  0.00  0.00    +0.067 A 
ATOM     11  N   UNL     1       7.124  -2.206  23.992  0.00  0.00    -0.228 NA
ENDROOT
BRANCH   1  16
ATOM     12  C   UNL     1       9.782   1.803  23.337  0.00  0.00    +0.162 A 
ATOM     13  C   UNL     1       9.773   1.713  21.944  0.00  0.00    +0.049 A 
ATOM     14  C   UNL     1       9.296   0.560  21.319  0.00  0.00    +0.004 A 
ATOM     15  C   UNL     1       8.814  -0.502  22.082  0.00  0.00    +0.015 A 
ATOM     16  C   UNL     1       8.780  -0.426  23.482  0.00  0.00    +0.062 A 
ATOM     17  C   UNL     1       9.274   0.734  24.096  0.00  0.00    +0.169 A 
BRANCH  17  18
ATOM     18  O   UNL     1       9.291   0.834  25.469  0.00  0.00    -0.503 OA
ATOM     19  H   UNL     1       8.882   1.704  25.659  0.00  0.00    +0.292 HD
ENDBRANCH  17  18
BRANCH  12  20
ATOM     20  O   UNL     1      10.268   2.870  24.060  0.00  0.00    -0.488 OA
BRANCH  20  21
ATOM     21  C   UNL     1       9.500   4.076  23.961  0.00  0.00    +0.232 C 
BRANCH  21  23
ATOM     22  C   UNL     1      10.328   6.341  24.723  0.00  0.00    +0.010 C 
ATOM     23  C   UNL     1      10.406   5.271  23.634  0.00  0.00    +0.020 C 
ATOM     24  C   UNL     1      11.847   4.785  23.471  0.00  0.00    +0.010 C 
ENDBRANCH  21  23
ENDBRANCH  20  21
ENDBRANCH  12  20
ENDBRANCH   1  16
BRANCH   7  25
ATOM     25  C   UNL     1       5.340  -6.389  26.090  0.00  0.00    +0.311 C 
ATOM     26  N   UNL     1       4.693  -6.872  25.075  0.00  0.00    -0.099 NA
ATOM     27  H   UNL     1       4.926  -6.368  24.210  0.00  0.00    +0.363 HD
ATOM     28  N   UNL     1       5.069  -6.997  27.281  0.00  0.00    -0.247 N 
ATOM     29  H   UNL     1       4.534  -7.848  27.131  0.00  0.00    +0.288 HD
ATOM     30  H   UNL     1       5.839  -7.139  27.920  0.00  0.00    +0.288 HD
ENDBRANCH   7  25
TORSDOF 6
ENDMDL
MODEL 8
REMARK VINA RESULT:      -6.8      1.991      2.611
REMARK  Name = 
REMARK  8 active torsions:
REMARK  status: ('A' for Active; 'I' for Inactive)
REMARK    1  A    between atoms: C_1  and  C_2
REMARK    2  A    between atoms: C_2  and  C_3
REMARK    3  A    between atoms: C_2  and  C_4
REMARK    4  A    between atoms: C_4  and  O_5
REMARK    5  A    between atoms: O_5  and  C_6
REMARK    6  A    between atoms: C_7  and  O_8
REMARK    7  A    between atoms: C_9  and  C_13
REMARK    8  A    between atoms: C_17  and  C_18
REMARK                            x       y       z     vdW  Elec       q    Type
REMARK                         _______ _______ _______ _____ _____    ______ ____
ROOT
ATOM      1  C   UNL     1       7.718  -0.191  24.200  0.00  0.00    +0.143 A 
ATOM      2  N   UNL     1       8.595  -1.210  24.496  0.00  0.00    -0.338 N 
ATOM      3  H   UNL     1       9.487  -1.073  24.952  0.00  0.00    +0.167 HD
ATOM      4  C   UNL     1       8.090  -2.383  24.000  0.00  0.00    +0.069 A 
ATOM      5  C   UNL     1       6.891  -2.011  23.408  0.00  0.00    +0.090 A 
ATOM      6  C   UNL     1       6.122  -2.968  22.730  0.00  0.00    +0.048 A 
ATOM      7  C   UNL     1       6.584  -4.294  22.669  0.00  0.00    +0.102 A 
ATOM      8  C   UNL     1       7.785  -4.634  23.308  0.00  0.00    +0.140 A 
ATOM      9  F   UNL     1       8.241  -5.897  23.269  0.00  0.00    -0.205 F 
ATOM     10  C   UNL     1       8.567  -3.693  23.990  0.00  0.00    +0.067 A 
ATOM     11  N   UNL     1       6.654  -0.673  23.583  0.00  0.00    -0.228 NA
ENDROOT
BRANCH   1  16
ATOM     12  C   UNL     1       9.157   3.334  24.339  0.00  0.00    +0.162 A 
ATOM     13  C   UNL     1       8.302   3.907  25.281  0.00  0.00    +0.049 A 
ATOM     14  C   UNL     1       7.267   3.156  25.839  0.00  0.00    +0.004 A 
ATOM     15  C   UNL     1       7.090   1.824  25.468  0.00  0.00    +0.015 A 
ATOM     16  C   UNL     1       7.954   1.212  24.548  0.00  0.00    +0.062 A 
ATOM     17  C   UNL     1       8.981   1.984  23.987  0.00  0.00    +0.169 A 
BRANCH  17  18
ATOM     18  O   UNL     1       9.830   1.430  23.054  0.00  0.00    -0.503 OA
ATOM     19  H   UNL     1      10.234   2.199  22.601  0.00  0.00    +0.292 HD
ENDBRANCH  17  18
BRANCH  12  20
ATOM     20  O   UNL     1      10.181   3.990  23.693  0.00  0.00    -0.488 OA
BRANCH  20  21
ATOM     21  C   UNL     1      10.218   5.409  23.892  0.00  0.00    +0.232 C 
BRANCH  21  23
ATOM     22  C   UNL     1      12.164   6.597  24.988  0.00  0.00    +0.010 C 
ATOM     23  C   UNL     1      11.644   5.945  23.706  0.00  0.00    +0.020 C 
ATOM     24  C   UNL     1      12.566   4.801  23.283  0.00  0.00    +0.010 C 
ENDBRANCH  21  23
ENDBRANCH  20  21
ENDBRANCH  12  20
ENDBRANCH   1  16
BRANCH   7  25
ATOM     25  C   UNL     1       5.806  -5.312  21.899  0.00  0.00    +0.311 C 
ATOM     26  N   UNL     1       6.008  -5.574  20.645  0.00  0.00    -0.099 NA
ATOM     27  H   UNL     1       6.758  -4.988  20.257  0.00  0.00    +0.363 HD
ATOM     28  N   UNL     1       4.809  -6.041  22.481  0.00  0.00    -0.247 N 
ATOM     29  H   UNL     1       4.517  -6.795  21.866  0.00  0.00    +0.288 HD
ATOM     30  H   UNL     1       4.955  -6.357  23.430  0.00  0.00    +0.288 HD
ENDBRANCH   7  25
TORSDOF 6
ENDMDL
MODEL 9
REMARK VINA RESULT:      -6.7      4.803      9.440
REMARK  Name = 
REMARK  8 active torsions:
REMARK  status: ('A' for Active; 'I' for Inactive)
REMARK    1  A    between atoms: C_1  and  C_2
REMARK    2  A    between atoms: C_2  and  C_3
REMARK    3  A    between atoms: C_2  and  C_4
REMARK    4  A    between atoms: C_4  and  O_5
REMARK    5  A    between atoms: O_5  and  C_6
REMARK    6  A    between atoms: C_7  and  O_8
REMARK    7  A    between atoms: C_9  and  C_13
REMARK    8  A    between atoms: C_17  and  C_18
REMARK                            x       y       z     vdW  Elec       q    Type
REMARK                         _______ _______ _______ _____ _____    ______ ____
ROOT
ATOM      1  C   UNL     1       6.902  -3.144  23.979  0.00  0.00    +0.143 A 
ATOM      2  N   UNL     1       8.135  -2.994  24.571  0.00  0.00    -0.338 N 
ATOM      3  H   UNL     1       8.512  -3.631  25.259  0.00  0.00    +0.167 HD
ATOM      4  C   UNL     1       8.694  -1.822  24.133  0.00  0.00    +0.069 A 
ATOM      5  C   UNL     1       7.744  -1.299  23.267  0.00  0.00    +0.090 A 
ATOM      6  C   UNL     1       7.959  -0.046  22.672  0.00  0.00    +0.048 A 
ATOM      7  C   UNL     1       9.141   0.654  22.966  0.00  0.00    +0.102 A 
ATOM      8  C   UNL     1      10.089   0.074  23.822  0.00  0.00    +0.140 A 
ATOM      9  F   UNL     1      11.230   0.722  24.109  0.00  0.00    -0.205 F 
ATOM     10  C   UNL     1       9.894  -1.175  24.425  0.00  0.00    +0.067 A 
ATOM     11  N   UNL     1       6.674  -2.145  23.145  0.00  0.00    -0.228 NA
ENDROOT
BRANCH   1  16
ATOM     12  C   UNL     1       4.130  -5.741  23.678  0.00  0.00    +0.162 A 
ATOM     13  C   UNL     1       4.349  -6.465  24.851  0.00  0.00    +0.049 A 
ATOM     14  C   UNL     1       5.395  -6.117  25.707  0.00  0.00    +0.004 A 
ATOM     15  C   UNL     1       6.219  -5.035  25.400  0.00  0.00    +0.015 A 
ATOM     16  C   UNL     1       6.004  -4.270  24.245  0.00  0.00    +0.062 A 
ATOM     17  C   UNL     1       4.956  -4.640  23.389  0.00  0.00    +0.169 A 
BRANCH  17  18
ATOM     18  O   UNL     1       4.732  -3.936  22.227  0.00  0.00    -0.503 OA
ATOM     19  H   UNL     1       4.500  -3.033  22.525  0.00  0.00    +0.292 HD
ENDBRANCH  17  18
BRANCH  12  20
ATOM     20  O   UNL     1       3.160  -6.021  22.741  0.00  0.00    -0.488 OA
BRANCH  20  21
ATOM     21  C   UNL     1       1.839  -5.581  23.081  0.00  0.00    +0.232 C 
BRANCH  21  23
ATOM     22  C   UNL     1       1.296  -7.842  22.085  0.00  0.00    +0.010 C 
ATOM     23  C   UNL     1       0.856  -6.760  23.071  0.00  0.00    +0.020 C 
ATOM     24  C   UNL     1       0.746  -7.342  24.481  0.00  0.00    +0.010 C 
ENDBRANCH  21  23
ENDBRANCH  20  21
ENDBRANCH  12  20
ENDBRANCH   1  16
BRANCH   7  25
ATOM     25  C   UNL     1       9.356   2.016  22.388  0.00  0.00    +0.311 C 
ATOM     26  N   UNL     1      10.322   2.307  21.573  0.00  0.00    -0.099 NA
ATOM     27  H   UNL     1      10.915   1.487  21.389  0.00  0.00    +0.363 HD
ATOM     28  N   UNL     1       8.534   3.060  22.696  0.00  0.00    -0.247 N 
ATOM     29  H   UNL     1       8.721   3.850  22.084  0.00  0.00    +0.288 HD
ATOM     30  H   UNL     1       7.545   2.868  22.778  0.00  0.00    +0.288 HD
ENDBRANCH   7  25
TORSDOF 6
ENDMDL
