MODEL 1
REMARK VINA RESULT:      -6.6      0.000      0.000
REMARK  Name = 
REMARK  11 active torsions:
REMARK  status: ('A' for Active; 'I' for Inactive)
REMARK    1  A    between atoms: C_2  and  C_3
REMARK    2  A    between atoms: C_3  and  C_5
REMARK    3  A    between atoms: C_3  and  C_8
REMARK    4  A    between atoms: C_5  and  C_6
REMARK    5  A    between atoms: C_5  and  C_7
REMARK    6  A    between atoms: C_13  and  N_15
REMARK    7  A    between atoms: N_15  and  S_16
REMARK    8  A    between atoms: S_16  and  C_19
REMARK    9  A    between atoms: C_20  and  C_22
REMARK   10  A    between atoms: C_23  and  C_24
REMARK   11  A    between atoms: C_24  and  N_25
REMARK                            x       y       z     vdW  Elec       q    Type
REMARK                         _______ _______ _______ _____ _____    ______ ____
ROOT
ATOM      1  C   UNL     1       6.273  -4.531  24.955  0.00  0.00    +0.105 C 
ATOM      2  C   UNL     1       5.426  -4.466  26.256  0.00  0.00    +0.099 C 
ATOM      3  C   UNL     1       6.131  -5.441  27.213  0.00  0.00    +0.041 C 
ATOM      4  C   UNL     1       7.558  -5.587  26.698  0.00  0.00    +0.110 C 
ATOM      5  N   UNL     1       7.628  -4.801  25.479  0.00  0.00    -0.293 N 
ATOM      6  C   UNL     1       8.863  -4.436  24.986  0.00  0.00    +0.239 C 
ATOM      7  O   UNL     1       9.914  -4.854  25.462  0.00  0.00    -0.271 OA
ENDROOT
BRANCH   2   8
ATOM      8  N   UNL     1       5.499  -3.057  26.808  0.00  0.00    -0.190 NA
ATOM      9  H   UNL     1       5.224  -3.045  27.795  0.00  0.00    +0.148 HD
BRANCH   8  10
ATOM     10  S   UNL     1       4.607  -1.895  25.942  0.00  0.00    +0.027 S 
ATOM     11  C   UNL     1       4.037  -0.825  27.241  0.00  0.00    +0.214 C 
ATOM     12  O   UNL     1       3.451  -2.574  25.400  0.00  0.00    -0.158 OA
ATOM     13  O   UNL     1       5.527  -1.160  25.108  0.00  0.00    -0.158 OA
ENDBRANCH   8  10
ENDBRANCH   2   8
BRANCH   6  14
ATOM     14  C   UNL     1       8.876  -3.449  23.883  0.00  0.00    +0.064 C 
ATOM     15  C   UNL     1       9.800  -2.476  23.816  0.00  0.00    -0.007 C 
BRANCH  15  16
ATOM     16  C   UNL     1       9.754  -1.409  22.761  0.00  0.00    +0.112 C 
BRANCH  16  17
ATOM     17  N   UNL     1       8.750  -0.364  22.993  0.00  0.00    -0.299 NA
ATOM     18  C   UNL     1       8.796   0.644  21.916  0.00  0.00    +0.085 C 
ATOM     19  C   UNL     1      10.037   1.548  21.965  0.00  0.00    +0.015 C 
ATOM     20  C   UNL     1      10.200   2.202  23.333  0.00  0.00    +0.002 C 
ATOM     21  C   UNL     1      10.090   1.178  24.457  0.00  0.00    +0.015 C 
ATOM     22  C   UNL     1       8.846   0.304  24.299  0.00  0.00    +0.085 C 
ENDBRANCH  16  17
ENDBRANCH  15  16
ENDBRANCH   6  14
BRANCH   1  23
ATOM     23  C   UNL     1       5.837  -5.582  23.887  0.00  0.00    +0.076 C 
BRANCH  23  24
ATOM     24  C   UNL     1       5.701  -5.031  22.435  0.00  0.00    -0.005 C 
ATOM     25  C   UNL     1       6.882  -5.465  21.546  0.00  0.00    +0.008 C 
ATOM     26  C   UNL     1       5.629  -3.501  22.396  0.00  0.00    +0.008 C 
ENDBRANCH  23  24
BRANCH  23  28
ATOM     27  O   UNL     1       4.430  -7.476  24.463  0.00  0.00    -0.301 OA
ATOM     28  C   UNL     1       4.547  -6.259  24.304  0.00  0.00    +0.228 C 
ENDBRANCH  23  28
ENDBRANCH   1  23
TORSDOF 8
ENDMDL
MODEL 2
REMARK VINA RESULT:      -6.3      1.284      1.921
REMARK  Name = 
REMARK  11 active torsions:
REMARK  status: ('A' for Active; 'I' for Inactive)
REMARK    1  A    between atoms: C_2  and  C_3
REMARK    2  A    between atoms: C_3  and  C_5
REMARK    3  A    between atoms: C_3  and  C_8
REMARK    4  A    between atoms: C_5  and  C_6
REMARK    5  A    between atoms: C_5  and  C_7
REMARK    6  A    between atoms: C_13  and  N_15
REMARK    7  A    between atoms: N_15  and  S_16
REMARK    8  A    between atoms: S_16  and  C_19
REMARK    9  A    between atoms: C_20  and  C_22
REMARK   10  A    between atoms: C_23  and  C_24
REMARK   11  A    between atoms: C_24  and  N_25
REMARK                            x       y       z     vdW  Elec       q    Type
REMARK                         _______ _______ _______ _____ _____    ______ ____
ROOT
ATOM      1  C   UNL     1       6.131  -4.544  25.150  0.00  0.00    +0.105 C 
ATOM      2  C   UNL     1       4.951  -4.640  26.156  0.00  0.00    +0.099 C 
ATOM      3  C   UNL     1       5.454  -5.613  27.234  0.00  0.00    +0.041 C 
ATOM      4  C   UNL     1       6.975  -5.602  27.143  0.00  0.00    +0.110 C 
ATOM      5  N   UNL     1       7.304  -4.732  26.027  0.00  0.00    -0.293 N 
ATOM      6  C   UNL     1       8.585  -4.231  25.923  0.00  0.00    +0.239 C 
ATOM      7  O   UNL     1       9.496  -4.588  26.662  0.00  0.00    -0.271 OA
ENDROOT
BRANCH   2   8
ATOM      8  N   UNL     1       4.723  -3.270  26.763  0.00  0.00    -0.190 NA
ATOM      9  H   UNL     1       5.088  -3.237  27.720  0.00  0.00    +0.148 HD
BRANCH   8  10
ATOM     10  S   UNL     1       3.111  -2.728  26.736  0.00  0.00    +0.027 S 
ATOM     11  C   UNL     1       2.468  -3.551  25.298  0.00  0.00    +0.214 C 
ATOM     12  O   UNL     1       3.152  -1.311  26.443  0.00  0.00    -0.158 OA
ATOM     13  O   UNL     1       2.446  -3.251  27.904  0.00  0.00    -0.158 OA
ENDBRANCH   8  10
ENDBRANCH   2   8
BRANCH   6  14
ATOM     14  C   UNL     1       8.806  -3.174  24.911  0.00  0.00    +0.064 C 
ATOM     15  C   UNL     1       8.396  -1.910  25.108  0.00  0.00    -0.007 C 
BRANCH  15  16
ATOM     16  C   UNL     1       8.522  -0.859  24.043  0.00  0.00    +0.112 C 
BRANCH  16  17
ATOM     17  N   UNL     1       9.834  -0.810  23.386  0.00  0.00    -0.299 NA
ATOM     18  C   UNL     1      10.670   0.251  23.981  0.00  0.00    +0.085 C 
ATOM     19  C   UNL     1      10.216   1.673  23.622  0.00  0.00    +0.015 C 
ATOM     20  C   UNL     1      10.091   1.858  22.113  0.00  0.00    +0.002 C 
ATOM     21  C   UNL     1       9.282   0.732  21.479  0.00  0.00    +0.015 C 
ATOM     22  C   UNL     1       9.786  -0.640  21.927  0.00  0.00    +0.085 C 
ENDBRANCH  16  17
ENDBRANCH  15  16
ENDBRANCH   6  14
BRANCH   1  23
ATOM     23  C   UNL     1       6.120  -5.555  23.960  0.00  0.00    +0.076 C 
BRANCH  23  24
ATOM     24  C   UNL     1       6.566  -4.964  22.588  0.00  0.00    -0.005 C 
ATOM     25  C   UNL     1       5.891  -3.609  22.302  0.00  0.00    +0.008 C 
ATOM     26  C   UNL     1       6.244  -5.899  21.417  0.00  0.00    +0.008 C 
ENDBRANCH  23  24
BRANCH  23  28
ATOM     27  O   UNL     1       4.501  -7.349  24.189  0.00  0.00    -0.301 OA
ATOM     28  C   UNL     1       4.756  -6.200  23.824  0.00  0.00    +0.228 C 
ENDBRANCH  23  28
ENDBRANCH   1  23
TORSDOF 8
ENDMDL
MODEL 3
REMARK VINA RESULT:      -6.2      2.448      3.683
REMARK  Name = 
REMARK  11 active torsions:
REMARK  status: ('A' for Active; 'I' for Inactive)
REMARK    1  A    between atoms: C_2  and  C_3
REMARK    2  A    between atoms: C_3  and  C_5
REMARK    3  A    between atoms: C_3  and  C_8
REMARK    4  A    between atoms: C_5  and  C_6
REMARK    5  A    between atoms: C_5  and  C_7
REMARK    6  A    between atoms: C_13  and  N_15
REMARK    7  A    between atoms: N_15  and  S_16
REMARK    8  A    between atoms: S_16  and  C_19
REMARK    9  A    between atoms: C_20  and  C_22
REMARK   10  A    between atoms: C_23  and  C_24
REMARK   11  A    between atoms: C_24  and  N_25
REMARK                            x       y       z     vdW  Elec       q    Type
REMARK                         _______ _______ _______ _____ _____    ______ ____
ROOT
ATOM      1  C   UNL     1       5.595  -4.517  25.263  0.00  0.00    +0.105 C 
ATOM      2  C   UNL     1       4.840  -5.706  25.920  0.00  0.00    +0.099 C 
ATOM      3  C   UNL     1       4.349  -6.545  24.730  0.00  0.00    +0.041 C 
ATOM      4  C   UNL     1       5.240  -6.175  23.551  0.00  0.00    +0.110 C 
ATOM      5  N   UNL     1       6.130  -5.132  24.031  0.00  0.00    -0.293 N 
ATOM      6  C   UNL     1       7.280  -4.853  23.323  0.00  0.00    +0.239 C 
ATOM      7  O   UNL     1       7.524  -5.361  22.233  0.00  0.00    -0.271 OA
ENDROOT
BRANCH   2   8
ATOM      8  N   UNL     1       5.829  -6.507  26.744  0.00  0.00    -0.190 NA
ATOM      9  H   UNL     1       5.809  -7.493  26.467  0.00  0.00    +0.148 HD
BRANCH   8  10
ATOM     10  S   UNL     1       5.641  -6.372  28.429  0.00  0.00    +0.027 S 
ATOM     11  C   UNL     1       3.874  -6.397  28.607  0.00  0.00    +0.214 C 
ATOM     12  O   UNL     1       6.096  -5.049  28.796  0.00  0.00    -0.158 OA
ATOM     13  O   UNL     1       6.184  -7.565  29.034  0.00  0.00    -0.158 OA
ENDBRANCH   8  10
ENDBRANCH   2   8
BRANCH   6  14
ATOM     14  C   UNL     1       8.261  -3.954  23.972  0.00  0.00    +0.064 C 
ATOM     15  C   UNL     1       8.583  -2.761  23.445  0.00  0.00    -0.007 C 
BRANCH  15  16
ATOM     16  C   UNL     1       9.653  -1.893  24.040  0.00  0.00    +0.112 C 
BRANCH  16  17
ATOM     17  N   UNL     1      10.297  -0.980  23.088  0.00  0.00    -0.299 NA
ATOM     18  C   UNL     1      10.831   0.204  23.790  0.00  0.00    +0.085 C 
ATOM     19  C   UNL     1       9.748   1.171  24.289  0.00  0.00    +0.015 C 
ATOM     20  C   UNL     1       8.802   1.582  23.166  0.00  0.00    +0.002 C 
ATOM     21  C   UNL     1       8.293   0.370  22.394  0.00  0.00    +0.015 C 
ATOM     22  C   UNL     1       9.441  -0.548  21.974  0.00  0.00    +0.085 C 
ENDBRANCH  16  17
ENDBRANCH  15  16
ENDBRANCH   6  14
BRANCH   1  23
ATOM     23  C   UNL     1       4.755  -3.236  24.963  0.00  0.00    +0.076 C 
BRANCH  23  24
ATOM     24  C   UNL     1       5.237  -1.945  25.692  0.00  0.00    -0.005 C 
ATOM     25  C   UNL     1       5.741  -0.881  24.698  0.00  0.00    +0.008 C 
ATOM     26  C   UNL     1       6.370  -2.225  26.686  0.00  0.00    +0.008 C 
ENDBRANCH  23  24
BRANCH  23  28
ATOM     27  O   UNL     1       2.514  -2.603  25.651  0.00  0.00    -0.301 OA
ATOM     28  C   UNL     1       3.290  -3.479  25.261  0.00  0.00    +0.228 C 
ENDBRANCH  23  28
ENDBRANCH   1  23
TORSDOF 8
ENDMDL
MODEL 4
REMARK VINA RESULT:      -6.2      2.261      4.258
REMARK  Name = 
REMARK  11 active torsions:
REMARK  status: ('A' for Active; 'I' for Inactive)
REMARK    1  A    between atoms: C_2  and  C_3
REMARK    2  A    between atoms: C_3  and  C_5
REMARK    3  A    between atoms: C_3  and  C_8
REMARK    4  A    between atoms: C_5  and  C_6
REMARK    5  A    between atoms: C_5  and  C_7
REMARK    6  A    between atoms: C_13  and  N_15
REMARK    7  A    between atoms: N_15  and  S_16
REMARK    8  A    between atoms: S_16  and  C_19
REMARK    9  A    between atoms: C_20  and  C_22
REMARK   10  A    between atoms: C_23  and  C_24
REMARK   11  A    between atoms: C_24  and  N_25
REMARK                            x       y       z     vdW  Elec       q    Type
REMARK                         _______ _______ _______ _____ _____    ______ ____
ROOT
ATOM      1  C   UNL     1       6.366  -3.909  25.265  0.00  0.00    +0.105 C 
ATOM      2  C   UNL     1       5.714  -5.253  24.840  0.00  0.00    +0.099 C 
ATOM      3  C   UNL     1       4.415  -5.318  25.659  0.00  0.00    +0.041 C 
ATOM      4  C   UNL     1       4.090  -3.884  26.058  0.00  0.00    +0.110 C 
ATOM      5  N   UNL     1       5.185  -3.070  25.559  0.00  0.00    -0.293 N 
ATOM      6  C   UNL     1       5.007  -1.708  25.437  0.00  0.00    +0.239 C 
ATOM      7  O   UNL     1       4.006  -1.133  25.852  0.00  0.00    -0.271 OA
ENDROOT
BRANCH   2   8
ATOM      8  N   UNL     1       5.390  -5.185  23.361  0.00  0.00    -0.190 NA
ATOM      9  H   UNL     1       4.842  -6.003  23.077  0.00  0.00    +0.148 HD
BRANCH   8  10
ATOM     10  S   UNL     1       6.733  -4.999  22.335  0.00  0.00    +0.027 S 
ATOM     11  C   UNL     1       6.186  -5.820  20.857  0.00  0.00    +0.214 C 
ATOM     12  O   UNL     1       7.804  -5.791  22.900  0.00  0.00    -0.158 OA
ATOM     13  O   UNL     1       6.886  -3.592  22.052  0.00  0.00    -0.158 OA
ENDBRANCH   8  10
ENDBRANCH   2   8
BRANCH   6  14
ATOM     14  C   UNL     1       6.059  -0.961  24.711  0.00  0.00    +0.064 C 
ATOM     15  C   UNL     1       6.205   0.368  24.850  0.00  0.00    -0.007 C 
BRANCH  15  16
ATOM     16  C   UNL     1       7.198   1.146  24.037  0.00  0.00    +0.112 C 
BRANCH  16  17
ATOM     17  N   UNL     1       8.556   0.589  24.036  0.00  0.00    -0.299 NA
ATOM     18  C   UNL     1       9.533   1.611  24.457  0.00  0.00    +0.085 C 
ATOM     19  C   UNL     1       9.771   2.711  23.413  0.00  0.00    +0.015 C 
ATOM     20  C   UNL     1      10.144   2.124  22.055  0.00  0.00    +0.002 C 
ATOM     21  C   UNL     1       9.177   1.022  21.639  0.00  0.00    +0.015 C 
ATOM     22  C   UNL     1       8.978  -0.001  22.758  0.00  0.00    +0.085 C 
ENDBRANCH  16  17
ENDBRANCH  15  16
ENDBRANCH   6  14
BRANCH   1  23
ATOM     23  C   UNL     1       7.361  -3.962  26.467  0.00  0.00    +0.076 C 
BRANCH  23  24
ATOM     24  C   UNL     1       8.692  -3.179  26.257  0.00  0.00    -0.005 C 
ATOM     25  C   UNL     1       8.596  -1.734  26.782  0.00  0.00    +0.008 C 
ATOM     26  C   UNL     1       9.102  -3.110  24.782  0.00  0.00    +0.008 C 
ENDBRANCH  23  24
BRANCH  23  28
ATOM     27  O   UNL     1       7.354  -5.903  27.927  0.00  0.00    -0.301 OA
ATOM     28  C   UNL     1       7.661  -5.398  26.844  0.00  0.00    +0.228 C 
ENDBRANCH  23  28
ENDBRANCH   1  23
TORSDOF 8
ENDMDL
MODEL 5
REMARK VINA RESULT:      -6.1      1.471      1.895
REMARK  Name = 
REMARK  11 active torsions:
REMARK  status: ('A' for Active; 'I' for Inactive)
REMARK    1  A    between atoms: C_2  and  C_3
REMARK    2  A    between atoms: C_3  and  C_5
REMARK    3  A    between atoms: C_3  and  C_8
REMARK    4  A    between atoms: C_5  and  C_6
REMARK    5  A    between atoms: C_5  and  C_7
REMARK    6  A    between atoms: C_13  and  N_15
REMARK    7  A    between atoms: N_15  and  S_16
REMARK    8  A    between atoms: S_16  and  C_19
REMARK    9  A    between atoms: C_20  and  C_22
REMARK   10  A    between atoms: C_23  and  C_24
REMARK   11  A    between atoms: C_24  and  N_25
REMARK                            x       y       z     vdW  Elec       q    Type
REMARK                         _______ _______ _______ _____ _____    ______ ____
ROOT
ATOM      1  C   UNL     1       6.296  -3.570  24.818  0.00  0.00    +0.105 C 
ATOM      2  C   UNL     1       5.620  -3.451  26.212  0.00  0.00    +0.099 C 
ATOM      3  C   UNL     1       6.026  -4.742  26.939  0.00  0.00    +0.041 C 
ATOM      4  C   UNL     1       7.278  -5.253  26.236  0.00  0.00    +0.110 C 
ATOM      5  N   UNL     1       7.516  -4.342  25.129  0.00  0.00    -0.293 N 
ATOM      6  C   UNL     1       8.761  -4.318  24.537  0.00  0.00    +0.239 C 
ATOM      7  O   UNL     1       9.643  -5.123  24.820  0.00  0.00    -0.271 OA
ENDROOT
BRANCH   2   8
ATOM      8  N   UNL     1       6.204  -2.250  26.929  0.00  0.00    -0.190 NA
ATOM      9  H   UNL     1       6.586  -2.527  27.838  0.00  0.00    +0.148 HD
BRANCH   8  10
ATOM     10  S   UNL     1       5.140  -0.936  27.121  0.00  0.00    +0.027 S 
ATOM     11  C   UNL     1       6.232   0.453  26.937  0.00  0.00    +0.214 C 
ATOM     12  O   UNL     1       4.694  -0.957  28.498  0.00  0.00    -0.158 OA
ATOM     13  O   UNL     1       4.215  -0.947  26.014  0.00  0.00    -0.158 OA
ENDBRANCH   8  10
ENDBRANCH   2   8
BRANCH   6  14
ATOM     14  C   UNL     1       9.022  -3.221  23.578  0.00  0.00    +0.064 C 
ATOM     15  C   UNL     1       9.951  -2.280  23.817  0.00  0.00    -0.007 C 
BRANCH  15  16
ATOM     16  C   UNL     1      10.146  -1.107  22.901  0.00  0.00    +0.112 C 
BRANCH  16  17
ATOM     17  N   UNL     1       8.957  -0.265  22.727  0.00  0.00    -0.299 NA
ATOM     18  C   UNL     1       9.178   0.726  21.656  0.00  0.00    +0.085 C 
ATOM     19  C   UNL     1      10.159   1.844  22.037  0.00  0.00    +0.015 C 
ATOM     20  C   UNL     1       9.751   2.528  23.338  0.00  0.00    +0.002 C 
ATOM     21  C   UNL     1       9.458   1.511  24.434  0.00  0.00    +0.015 C 
ATOM     22  C   UNL     1       8.504   0.420  23.947  0.00  0.00    +0.085 C 
ENDBRANCH  16  17
ENDBRANCH  15  16
ENDBRANCH   6  14
BRANCH   1  23
ATOM     23  C   UNL     1       5.452  -4.236  23.686  0.00  0.00    +0.076 C 
BRANCH  23  24
ATOM     24  C   UNL     1       5.808  -5.724  23.387  0.00  0.00    -0.005 C 
ATOM     25  C   UNL     1       6.015  -5.970  21.880  0.00  0.00    +0.008 C 
ATOM     26  C   UNL     1       4.722  -6.692  23.870  0.00  0.00    +0.008 C 
ENDBRANCH  23  24
BRANCH  23  28
ATOM     27  O   UNL     1       5.936  -2.256  22.368  0.00  0.00    -0.301 OA
ATOM     28  C   UNL     1       5.534  -3.420  22.413  0.00  0.00    +0.228 C 
ENDBRANCH  23  28
ENDBRANCH   1  23
TORSDOF 8
ENDMDL
MODEL 6
REMARK VINA RESULT:      -6.1      2.027      3.838
REMARK  Name = 
REMARK  11 active torsions:
REMARK  status: ('A' for Active; 'I' for Inactive)
REMARK    1  A    between atoms: C_2  and  C_3
REMARK    2  A    between atoms: C_3  and  C_5
REMARK    3  A    between atoms: C_3  and  C_8
REMARK    4  A    between atoms: C_5  and  C_6
REMARK    5  A    between atoms: C_5  and  C_7
REMARK    6  A    between atoms: C_13  and  N_15
REMARK    7  A    between atoms: N_15  and  S_16
REMARK    8  A    between atoms: S_16  and  C_19
REMARK    9  A    between atoms: C_20  and  C_22
REMARK   10  A    between atoms: C_23  and  C_24
REMARK   11  A    between atoms: C_24  and  N_25
REMARK                            x       y       z     vdW  Elec       q    Type
REMARK                         _______ _______ _______ _____ _____    ______ ____
ROOT
ATOM      1  C   UNL     1       5.753  -3.916  25.578  0.00  0.00    +0.105 C 
ATOM      2  C   UNL     1       4.693  -5.005  25.901  0.00  0.00    +0.099 C 
ATOM      3  C   UNL     1       4.068  -4.542  27.226  0.00  0.00    +0.041 C 
ATOM      4  C   UNL     1       4.343  -3.047  27.328  0.00  0.00    +0.110 C 
ATOM      5  N   UNL     1       5.143  -2.705  26.164  0.00  0.00    -0.293 N 
ATOM      6  C   UNL     1       5.239  -1.384  25.781  0.00  0.00    +0.239 C 
ATOM      7  O   UNL     1       4.780  -0.466  26.453  0.00  0.00    -0.271 OA
ENDROOT
BRANCH   2   8
ATOM      8  N   UNL     1       3.646  -4.997  24.805  0.00  0.00    -0.190 NA
ATOM      9  H   UNL     1       2.712  -5.135  25.202  0.00  0.00    +0.148 HD
BRANCH   8  10
ATOM     10  S   UNL     1       3.912  -6.107  23.544  0.00  0.00    +0.027 S 
ATOM     11  C   UNL     1       2.253  -6.531  23.069  0.00  0.00    +0.214 C 
ATOM     12  O   UNL     1       4.507  -7.284  24.141  0.00  0.00    -0.158 OA
ATOM     13  O   UNL     1       4.539  -5.400  22.454  0.00  0.00    -0.158 OA
ENDBRANCH   8  10
ENDBRANCH   2   8
BRANCH   6  14
ATOM     14  C   UNL     1       5.867  -1.115  24.467  0.00  0.00    +0.064 C 
ATOM     15  C   UNL     1       7.058  -0.502  24.366  0.00  0.00    -0.007 C 
BRANCH  15  16
ATOM     16  C   UNL     1       7.649  -0.132  23.037  0.00  0.00    +0.112 C 
BRANCH  16  17
ATOM     17  N   UNL     1       9.071  -0.462  22.889  0.00  0.00    -0.299 NA
ATOM     18  C   UNL     1       9.792  -0.222  24.154  0.00  0.00    +0.085 C 
ATOM     19  C   UNL     1       9.969   1.265  24.494  0.00  0.00    +0.015 C 
ATOM     20  C   UNL     1      10.614   2.031  23.344  0.00  0.00    +0.002 C 
ATOM     21  C   UNL     1       9.917   1.740  22.020  0.00  0.00    +0.015 C 
ATOM     22  C   UNL     1       9.754   0.238  21.791  0.00  0.00    +0.085 C 
ENDBRANCH  16  17
ENDBRANCH  15  16
ENDBRANCH   6  14
BRANCH   1  23
ATOM     23  C   UNL     1       7.198  -4.164  26.117  0.00  0.00    +0.076 C 
BRANCH  23  24
ATOM     24  C   UNL     1       8.339  -3.905  25.087  0.00  0.00    -0.005 C 
ATOM     25  C   UNL     1       7.868  -4.139  23.639  0.00  0.00    +0.008 C 
ATOM     26  C   UNL     1       9.558  -4.802  25.328  0.00  0.00    +0.008 C 
ENDBRANCH  23  24
BRANCH  23  28
ATOM     27  O   UNL     1       7.372  -5.818  27.886  0.00  0.00    -0.301 OA
ATOM     28  C   UNL     1       7.321  -5.565  26.680  0.00  0.00    +0.228 C 
ENDBRANCH  23  28
ENDBRANCH   1  23
TORSDOF 8
ENDMDL
MODEL 7
REMARK VINA RESULT:      -5.9      2.029      3.786
REMARK  Name = 
REMARK  11 active torsions:
REMARK  status: ('A' for Active; 'I' for Inactive)
REMARK    1  A    between atoms: C_2  and  C_3
REMARK    2  A    between atoms: C_3  and  C_5
REMARK    3  A    between atoms: C_3  and  C_8
REMARK    4  A    between atoms: C_5  and  C_6
REMARK    5  A    between atoms: C_5  and  C_7
REMARK    6  A    between atoms: C_13  and  N_15
REMARK    7  A    between atoms: N_15  and  S_16
REMARK    8  A    between atoms: S_16  and  C_19
REMARK    9  A    between atoms: C_20  and  C_22
REMARK   10  A    between atoms: C_23  and  C_24
REMARK   11  A    between atoms: C_24  and  N_25
REMARK                            x       y       z     vdW  Elec       q    Type
REMARK                         _______ _______ _______ _____ _____    ______ ____
ROOT
ATOM      1  C   UNL     1       6.484  -3.627  24.982  0.00  0.00    +0.105 C 
ATOM      2  C   UNL     1       5.818  -5.004  25.253  0.00  0.00    +0.099 C 
ATOM      3  C   UNL     1       5.846  -5.142  26.783  0.00  0.00    +0.041 C 
ATOM      4  C   UNL     1       5.983  -3.729  27.337  0.00  0.00    +0.110 C 
ATOM      5  N   UNL     1       6.101  -2.855  26.182  0.00  0.00    -0.293 N 
ATOM      6  C   UNL     1       5.870  -1.505  26.337  0.00  0.00    +0.239 C 
ATOM      7  O   UNL     1       5.691  -0.987  27.435  0.00  0.00    -0.271 OA
ENDROOT
BRANCH   2   8
ATOM      8  N   UNL     1       4.383  -4.949  24.766  0.00  0.00    -0.190 NA
ATOM      9  H   UNL     1       3.734  -5.029  25.555  0.00  0.00    +0.148 HD
BRANCH   8  10
ATOM     10  S   UNL     1       3.983  -6.087  23.566  0.00  0.00    +0.027 S 
ATOM     11  C   UNL     1       2.234  -5.834  23.387  0.00  0.00    +0.214 C 
ATOM     12  O   UNL     1       4.175  -7.396  24.151  0.00  0.00    -0.158 OA
ATOM     13  O   UNL     1       4.635  -5.690  22.342  0.00  0.00    -0.158 OA
ENDBRANCH   8  10
ENDBRANCH   2   8
BRANCH   6  14
ATOM     14  C   UNL     1       5.775  -0.699  25.099  0.00  0.00    +0.064 C 
ATOM     15  C   UNL     1       6.607   0.328  24.859  0.00  0.00    -0.007 C 
BRANCH  15  16
ATOM     16  C   UNL     1       6.448   1.214  23.658  0.00  0.00    +0.112 C 
BRANCH  16  17
ATOM     17  N   UNL     1       7.387   2.340  23.602  0.00  0.00    -0.299 NA
ATOM     18  C   UNL     1       7.637   2.736  22.202  0.00  0.00    +0.085 C 
ATOM     19  C   UNL     1       8.489   1.729  21.415  0.00  0.00    +0.015 C 
ATOM     20  C   UNL     1       9.796   1.417  22.136  0.00  0.00    +0.002 C 
ATOM     21  C   UNL     1       9.556   1.068  23.600  0.00  0.00    +0.015 C 
ATOM     22  C   UNL     1       8.668   2.108  24.285  0.00  0.00    +0.085 C 
ENDBRANCH  16  17
ENDBRANCH  15  16
ENDBRANCH   6  14
BRANCH   1  23
ATOM     23  C   UNL     1       8.028  -3.630  24.754  0.00  0.00    +0.076 C 
BRANCH  23  24
ATOM     24  C   UNL     1       8.561  -2.488  23.836  0.00  0.00    -0.005 C 
ATOM     25  C   UNL     1       7.968  -2.571  22.416  0.00  0.00    +0.008 C 
ATOM     26  C   UNL     1      10.088  -2.512  23.702  0.00  0.00    +0.008 C 
ENDBRANCH  23  24
BRANCH  23  28
ATOM     27  O   UNL     1       9.400  -5.633  24.718  0.00  0.00    -0.301 OA
ATOM     28  C   UNL     1       8.484  -4.973  24.222  0.00  0.00    +0.228 C 
ENDBRANCH  23  28
ENDBRANCH   1  23
TORSDOF 8
ENDMDL
MODEL 8
REMARK VINA RESULT:      -5.7      2.252      3.826
REMARK  Name = 
REMARK  11 active torsions:
REMARK  status: ('A' for Active; 'I' for Inactive)
REMARK    1  A    between atoms: C_2  and  C_3
REMARK    2  A    between atoms: C_3  and  C_5
REMARK    3  A    between atoms: C_3  and  C_8
REMARK    4  A    between atoms: C_5  and  C_6
REMARK    5  A    between atoms: C_5  and  C_7
REMARK    6  A    between atoms: C_13  and  N_15
REMARK    7  A    between atoms: N_15  and  S_16
REMARK    8  A    between atoms: S_16  and  C_19
REMARK    9  A    between atoms: C_20  and  C_22
REMARK   10  A    between atoms: C_23  and  C_24
REMARK   11  A    between atoms: C_24  and  N_25
REMARK                            x       y       z     vdW  Elec       q    Type
REMARK                         _______ _______ _______ _____ _____    ______ ____
ROOT
ATOM      1  C   UNL     1       6.213  -4.214  24.590  0.00  0.00    +0.105 C 
ATOM      2  C   UNL     1       5.417  -5.495  24.964  0.00  0.00    +0.099 C 
ATOM      3  C   UNL     1       5.776  -5.745  26.437  0.00  0.00    +0.041 C 
ATOM      4  C   UNL     1       6.260  -4.410  26.991  0.00  0.00    +0.110 C 
ATOM      5  N   UNL     1       6.247  -3.483  25.873  0.00  0.00    -0.293 N 
ATOM      6  C   UNL     1       6.276  -2.128  26.125  0.00  0.00    +0.239 C 
ATOM      7  O   UNL     1       6.441  -1.669  27.251  0.00  0.00    -0.271 OA
ENDROOT
BRANCH   2   8
ATOM      8  N   UNL     1       3.937  -5.195  24.837  0.00  0.00    -0.190 NA
ATOM      9  H   UNL     1       3.533  -4.989  25.756  0.00  0.00    +0.148 HD
BRANCH   8  10
ATOM     10  S   UNL     1       3.021  -6.396  24.056  0.00  0.00    +0.027 S 
ATOM     11  C   UNL     1       1.491  -6.340  24.958  0.00  0.00    +0.214 C 
ATOM     12  O   UNL     1       3.653  -7.664  24.352  0.00  0.00    -0.158 OA
ATOM     13  O   UNL     1       2.776  -5.959  22.702  0.00  0.00    -0.158 OA
ENDBRANCH   8  10
ENDBRANCH   2   8
BRANCH   6  14
ATOM     14  C   UNL     1       6.027  -1.230  24.975  0.00  0.00    +0.064 C 
ATOM     15  C   UNL     1       7.004  -0.477  24.442  0.00  0.00    -0.007 C 
BRANCH  15  16
ATOM     16  C   UNL     1       6.735   0.513  23.347  0.00  0.00    +0.112 C 
BRANCH  16  17
ATOM     17  N   UNL     1       7.913   0.881  22.553  0.00  0.00    -0.299 NA
ATOM     18  C   UNL     1       9.067   1.145  23.434  0.00  0.00    +0.085 C 
ATOM     19  C   UNL     1       8.953   2.451  24.233  0.00  0.00    +0.015 C 
ATOM     20  C   UNL     1       8.677   3.643  23.322  0.00  0.00    +0.002 C 
ATOM     21  C   UNL     1       7.526   3.357  22.364  0.00  0.00    +0.015 C 
ATOM     22  C   UNL     1       7.714   2.020  21.646  0.00  0.00    +0.085 C 
ENDBRANCH  16  17
ENDBRANCH  15  16
ENDBRANCH   6  14
BRANCH   1  23
ATOM     23  C   UNL     1       7.642  -4.427  23.998  0.00  0.00    +0.076 C 
BRANCH  23  24
ATOM     24  C   UNL     1       8.811  -3.917  24.895  0.00  0.00    -0.005 C 
ATOM     25  C   UNL     1       9.722  -2.930  24.142  0.00  0.00    +0.008 C 
ATOM     26  C   UNL     1       9.692  -5.060  25.411  0.00  0.00    +0.008 C 
ENDBRANCH  23  24
BRANCH  23  28
ATOM     27  O   UNL     1       6.829  -3.183  22.078  0.00  0.00    -0.301 OA
ATOM     28  C   UNL     1       7.744  -3.809  22.619  0.00  0.00    +0.228 C 
ENDBRANCH  23  28
ENDBRANCH   1  23
TORSDOF 8
ENDMDL
MODEL 9
REMARK VINA RESULT:      -5.6      3.213      5.463
REMARK  Name = 
REMARK  11 active torsions:
REMARK  status: ('A' for Active; 'I' for Inactive)
REMARK    1  A    between atoms: C_2  and  C_3
REMARK    2  A    between atoms: C_3  and  C_5
REMARK    3  A    between atoms: C_3  and  C_8
REMARK    4  A    between atoms: C_5  and  C_6
REMARK    5  A    between atoms: C_5  and  C_7
REMARK    6  A    between atoms: C_13  and  N_15
REMARK    7  A    between atoms: N_15  and  S_16
REMARK    8  A    between atoms: S_16  and  C_19
REMARK    9  A    between atoms: C_20  and  C_22
REMARK   10  A    between atoms: C_23  and  C_24
REMARK   11  A    between atoms: C_24  and  N_25
REMARK                            x       y       z     vdW  Elec       q    Type
REMARK                         _______ _______ _______ _____ _____    ______ ____
ROOT
ATOM      1  C   UNL     1       8.035  -1.072  24.232  0.00  0.00    +0.105 C 
ATOM      2  C   UNL     1       7.683  -2.579  24.091  0.00  0.00    +0.099 C 
ATOM      3  C   UNL     1       8.142  -3.198  25.421  0.00  0.00    +0.041 C 
ATOM      4  C   UNL     1       8.205  -2.055  26.426  0.00  0.00    +0.110 C 
ATOM      5  N   UNL     1       7.876  -0.850  25.684  0.00  0.00    -0.293 N 
ATOM      6  C   UNL     1       7.491   0.279  26.376  0.00  0.00    +0.239 C 
ATOM      7  O   UNL     1       7.537   0.351  27.600  0.00  0.00    -0.271 OA
ENDROOT
BRANCH   2   8
ATOM      8  N   UNL     1       6.180  -2.712  23.952  0.00  0.00    -0.190 NA
ATOM      9  H   UNL     1       5.750  -2.884  24.865  0.00  0.00    +0.148 HD
BRANCH   8  10
ATOM     10  S   UNL     1       5.659  -3.882  22.833  0.00  0.00    +0.027 S 
ATOM     11  C   UNL     1       4.104  -4.391  23.527  0.00  0.00    +0.214 C 
ATOM     12  O   UNL     1       6.570  -5.001  22.943  0.00  0.00    -0.158 OA
ATOM     13  O   UNL     1       5.409  -3.217  21.577  0.00  0.00    -0.158 OA
ENDBRANCH   8  10
ENDBRANCH   2   8
BRANCH   6  14
ATOM     14  C   UNL     1       6.946   1.398  25.575  0.00  0.00    +0.064 C 
ATOM     15  C   UNL     1       7.421   2.649  25.694  0.00  0.00    -0.007 C 
BRANCH  15  16
ATOM     16  C   UNL     1       6.802   3.806  24.964  0.00  0.00    +0.112 C 
BRANCH  16  17
ATOM     17  N   UNL     1       7.085   3.841  23.525  0.00  0.00    -0.299 NA
ATOM     18  C   UNL     1       8.447   4.352  23.279  0.00  0.00    +0.085 C 
ATOM     19  C   UNL     1       8.605   5.856  23.548  0.00  0.00    +0.015 C 
ATOM     20  C   UNL     1       7.569   6.674  22.785  0.00  0.00    +0.002 C 
ATOM     21  C   UNL     1       6.164   6.116  22.980  0.00  0.00    +0.015 C 
ATOM     22  C   UNL     1       6.119   4.609  22.726  0.00  0.00    +0.085 C 
ENDBRANCH  16  17
ENDBRANCH  15  16
ENDBRANCH   6  14
BRANCH   1  23
ATOM     23  C   UNL     1       9.443  -0.631  23.722  0.00  0.00    +0.076 C 
BRANCH  23  24
ATOM     24  C   UNL     1       9.571   0.881  23.362  0.00  0.00    -0.005 C 
ATOM     25  C   UNL     1       9.758   1.095  21.848  0.00  0.00    +0.008 C 
ATOM     26  C   UNL     1      10.750   1.552  24.075  0.00  0.00    +0.008 C 
ENDBRANCH  23  24
BRANCH  23  28
ATOM     27  O   UNL     1      10.844  -2.235  22.555  0.00  0.00    -0.301 OA
ATOM     28  C   UNL     1       9.869  -1.479  22.542  0.00  0.00    +0.228 C 
ENDBRANCH  23  28
ENDBRANCH   1  23
TORSDOF 8
ENDMDL
