MODEL 1
REMARK VINA RESULT:      -8.1      0.000      0.000
REMARK  Name = 
REMARK  19 active torsions:
REMARK  status: ('A' for Active; 'I' for Inactive)
REMARK    1  A    between atoms: C_2  and  C_4
REMARK    2  A    between atoms: N_8  and  C_10
REMARK    3  A    between atoms: C_13  and  C_15
REMARK    4  A    between atoms: C_15  and  O_16
REMARK    5  A    between atoms: O_16  and  P_17
REMARK    6  A    between atoms: P_17  and  O_20
REMARK    7  A    between atoms: O_20  and  P_21
REMARK    8  A    between atoms: P_21  and  O_22
REMARK    9  A    between atoms: P_21  and  O_24
REMARK   10  A    between atoms: O_24  and  C_25
REMARK   11  A    between atoms: C_25  and  C_26
REMARK   12  A    between atoms: C_29  and  N_41
REMARK   13  A    between atoms: C_31  and  O_33
REMARK   14  A    between atoms: O_33  and  P_34
REMARK   15  A    between atoms: P_34  and  O_35
REMARK   16  A    between atoms: P_34  and  O_36
REMARK   17  A    between atoms: C_38  and  O_40
REMARK   18  A    between atoms: C_52  and  O_54
REMARK   19  A    between atoms: C_55  and  O_57
REMARK                            x       y       z     vdW  Elec       q    Type
REMARK                         _______ _______ _______ _____ _____    ______ ____
ROOT
ATOM      1  P   UNL     1       7.273  -4.986  22.586  0.00  0.00    +0.480 P 
ATOM      2  O   UNL     1       7.176  -5.922  21.402  0.00  0.00    -0.227 OA
ENDROOT
BRANCH   1   3
ATOM      3  O   UNL     1       7.628  -3.482  22.159  0.00  0.00    -0.302 OA
ATOM      4  H   UNL     1       7.838  -2.924  22.937  0.00  0.00    +0.222 HD
ENDBRANCH   1   3
BRANCH   1   5
ATOM      5  O   UNL     1       5.803  -4.750  23.263  0.00  0.00    -0.284 OA
BRANCH   5   6
ATOM      6  C   UNL     1       4.866  -5.771  22.878  0.00  0.00    +0.206 C 
BRANCH   6   7
ATOM      7  C   UNL     1       3.820  -6.219  23.911  0.00  0.00    +0.178 C 
ATOM      8  C   UNL     1       4.321  -7.172  24.988  0.00  0.00    +0.179 C 
ATOM      9  C   UNL     1       4.409  -6.354  26.266  0.00  0.00    +0.211 C 
ATOM     10  C   UNL     1       3.909  -4.971  25.855  0.00  0.00    +0.255 C 
ATOM     11  O   UNL     1       3.263  -5.082  24.577  0.00  0.00    -0.346 OA
BRANCH  10  12
ATOM     12  N   UNL     1       2.973  -4.368  26.778  0.00  0.00    -0.274 N 
ATOM     13  C   UNL     1       3.215  -3.286  27.590  0.00  0.00    +0.168 A 
ATOM     14  N   UNL     1       4.337  -2.544  27.669  0.00  0.00    -0.216 NA
ATOM     15  C   UNL     1       4.174  -1.548  28.584  0.00  0.00    +0.225 A 
ATOM     16  N   UNL     1       3.096  -1.269  29.349  0.00  0.00    -0.219 NA
ATOM     17  C   UNL     1       2.009  -2.062  29.236  0.00  0.00    +0.147 A 
ATOM     18  N   UNL     1       0.897  -1.785  30.023  0.00  0.00    -0.341 N 
ATOM     19  H   UNL     1       0.038  -2.179  29.655  0.00  0.00    +0.144 HD
ATOM     20  H   UNL     1       0.875  -0.822  30.331  0.00  0.00    +0.144 HD
ATOM     21  C   UNL     1       2.044  -3.118  28.311  0.00  0.00    +0.148 A 
ATOM     22  N   UNL     1       1.100  -4.050  27.949  0.00  0.00    -0.216 NA
ATOM     23  C   UNL     1       1.687  -4.784  27.027  0.00  0.00    +0.182 A 
ATOM     24 BR   UNL     1       0.798  -6.223  26.211  0.00  0.00    -0.008 Br
ENDBRANCH  10  12
BRANCH   8  25
ATOM     25  O   UNL     1       3.363  -8.221  25.189  0.00  0.00    -0.386 OA
ATOM     26  H   UNL     1       2.733  -7.938  25.887  0.00  0.00    +0.210 HD
ENDBRANCH   8  25
BRANCH   9  27
ATOM     27  O   UNL     1       5.749  -6.256  26.738  0.00  0.00    -0.276 OA
BRANCH  27  28
ATOM     28  P   UNL     1       5.909  -6.019  28.444  0.00  0.00    +0.473 P 
ATOM     29  O   UNL     1       6.053  -5.807  29.971  0.00  0.00    -0.228 OA
BRANCH  28  30
ATOM     30  O   UNL     1       5.402  -7.570  28.550  0.00  0.00    -0.303 OA
ATOM     31  H   UNL     1       4.998  -7.898  27.725  0.00  0.00    +0.222 HD
ENDBRANCH  28  30
BRANCH  28  32
ATOM     32  O   UNL     1       7.483  -6.417  28.239  0.00  0.00    -0.303 OA
ATOM     33  H   UNL     1       7.612  -7.229  28.766  0.00  0.00    +0.222 HD
ENDBRANCH  28  32
ENDBRANCH  27  28
ENDBRANCH   9  27
ENDBRANCH   6   7
ENDBRANCH   5   6
ENDBRANCH   1   5
BRANCH   1  34
ATOM     34  O   UNL     1       8.359  -5.336  23.680  0.00  0.00    -0.229 OA
BRANCH  34  35
ATOM     35  P   UNL     1       8.715  -4.818  25.291  0.00  0.00    +0.222 P 
ATOM     36  O   UNL     1       9.070  -4.302  26.903  0.00  0.00    -0.437 OA
ATOM     37  O   UNL     1      10.182  -4.888  24.840  0.00  0.00    -0.517 OA
BRANCH  35  38
ATOM     38  O   UNL     1       8.153  -3.336  24.830  0.00  0.00    -0.324 OA
BRANCH  38  39
ATOM     39  C   UNL     1       8.462  -2.224  25.631  0.00  0.00    +0.202 C 
BRANCH  39  43
ATOM     40  C   UNL     1       8.229  -0.312  22.564  0.00  0.00    +0.439 C 
ATOM     41  C   UNL     1       9.742  -0.508  22.592  0.00  0.00    +0.244 C 
ATOM     42  C   UNL     1      10.039  -0.937  24.027  0.00  0.00    +0.183 C 
ATOM     43  C   UNL     1       8.665  -1.038  24.715  0.00  0.00    +0.182 C 
ATOM     44  O   UNL     1       7.651  -0.952  23.704  0.00  0.00    -0.309 OA
BRANCH  40  47
ATOM     45  C   UNL     1       6.163   2.805  22.835  0.00  0.00    +0.100 A 
ATOM     46  C   UNL     1       6.534   1.470  22.695  0.00  0.00    +0.324 A 
ATOM     47  N   UNL     1       7.842   1.129  22.567  0.00  0.00    -0.173 N 
ATOM     48  C   UNL     1       8.788   2.105  22.528  0.00  0.00    +0.311 A 
ATOM     49  C   UNL     1       8.461   3.441  22.680  0.00  0.00    +0.071 A 
ATOM     50  C   UNL     1       7.135   3.803  22.833  0.00  0.00    +0.025 A 
BRANCH  45  54
ATOM     51  N   UNL     1       4.190   4.008  22.068  0.00  0.00    -0.325 N 
ATOM     52  H   UNL     1       4.727   4.611  21.462  0.00  0.00    +0.145 HD
ATOM     53  H   UNL     1       3.205   4.230  22.177  0.00  0.00    +0.145 HD
ATOM     54  C   UNL     1       4.720   3.105  22.942  0.00  0.00    +0.247 C 
ATOM     55  O   UNL     1       4.055   2.561  23.808  0.00  0.00    -0.270 OA
ENDBRANCH  45  54
ENDBRANCH  40  47
BRANCH  42  56
ATOM     56  O   UNL     1      10.801   0.094  24.665  0.00  0.00    -0.386 OA
ATOM     57  H   UNL     1      11.602  -0.358  25.016  0.00  0.00    +0.210 HD
ENDBRANCH  42  56
BRANCH  41  58
ATOM     58  O   UNL     1      10.128  -1.506  21.630  0.00  0.00    -0.380 OA
ATOM     59  H   UNL     1      10.768  -2.127  22.047  0.00  0.00    +0.210 HD
ENDBRANCH  41  58
ENDBRANCH  39  43
ENDBRANCH  38  39
ENDBRANCH  35  38
ENDBRANCH  34  35
ENDBRANCH   1  34
TORSDOF 19
ENDMDL
MODEL 2
REMARK VINA RESULT:      -8.0      1.812      2.387
REMARK  Name = 
REMARK  19 active torsions:
REMARK  status: ('A' for Active; 'I' for Inactive)
REMARK    1  A    between atoms: C_2  and  C_4
REMARK    2  A    between atoms: N_8  and  C_10
REMARK    3  A    between atoms: C_13  and  C_15
REMARK    4  A    between atoms: C_15  and  O_16
REMARK    5  A    between atoms: O_16  and  P_17
REMARK    6  A    between atoms: P_17  and  O_20
REMARK    7  A    between atoms: O_20  and  P_21
REMARK    8  A    between atoms: P_21  and  O_22
REMARK    9  A    between atoms: P_21  and  O_24
REMARK   10  A    between atoms: O_24  and  C_25
REMARK   11  A    between atoms: C_25  and  C_26
REMARK   12  A    between atoms: C_29  and  N_41
REMARK   13  A    between atoms: C_31  and  O_33
REMARK   14  A    between atoms: O_33  and  P_34
REMARK   15  A    between atoms: P_34  and  O_35
REMARK   16  A    between atoms: P_34  and  O_36
REMARK   17  A    between atoms: C_38  and  O_40
REMARK   18  A    between atoms: C_52  and  O_54
REMARK   19  A    between atoms: C_55  and  O_57
REMARK                            x       y       z     vdW  Elec       q    Type
REMARK                         _______ _______ _______ _____ _____    ______ ____
ROOT
ATOM      1  P   UNL     1       7.042  -5.307  22.701  0.00  0.00    +0.480 P 
ATOM      2  O   UNL     1       7.210  -5.801  21.282  0.00  0.00    -0.227 OA
ENDROOT
BRANCH   1   3
ATOM      3  O   UNL     1       6.612  -3.764  22.772  0.00  0.00    -0.302 OA
ATOM      4  H   UNL     1       5.712  -3.656  23.145  0.00  0.00    +0.222 HD
ENDBRANCH   1   3
BRANCH   1   5
ATOM      5  O   UNL     1       5.738  -5.998  23.407  0.00  0.00    -0.284 OA
BRANCH   5   6
ATOM      6  C   UNL     1       4.518  -5.322  23.057  0.00  0.00    +0.206 C 
BRANCH   6   7
ATOM      7  C   UNL     1       3.614  -4.825  24.196  0.00  0.00    +0.178 C 
ATOM      8  C   UNL     1       3.657  -5.644  25.479  0.00  0.00    +0.179 C 
ATOM      9  C   UNL     1       4.433  -4.810  26.486  0.00  0.00    +0.211 C 
ATOM     10  C   UNL     1       4.760  -3.525  25.727  0.00  0.00    +0.255 C 
ATOM     11  O   UNL     1       3.950  -3.477  24.542  0.00  0.00    -0.346 OA
BRANCH  10  12
ATOM     12  N   UNL     1       4.531  -2.308  26.474  0.00  0.00    -0.274 N 
ATOM     13  C   UNL     1       5.495  -1.436  26.921  0.00  0.00    +0.168 A 
ATOM     14  N   UNL     1       6.826  -1.503  26.728  0.00  0.00    -0.216 NA
ATOM     15  C   UNL     1       7.437  -0.437  27.318  0.00  0.00    +0.225 A 
ATOM     16  N   UNL     1       6.882   0.578  28.015  0.00  0.00    -0.219 NA
ATOM     17  C   UNL     1       5.543   0.577  28.189  0.00  0.00    +0.147 A 
ATOM     18  N   UNL     1       4.964   1.615  28.908  0.00  0.00    -0.341 N 
ATOM     19  H   UNL     1       3.976   1.737  28.712  0.00  0.00    +0.144 HD
ATOM     20  H   UNL     1       5.543   2.444  28.922  0.00  0.00    +0.144 HD
ATOM     21  C   UNL     1       4.793  -0.462  27.613  0.00  0.00    +0.148 A 
ATOM     22  N   UNL     1       3.441  -0.708  27.583  0.00  0.00    -0.216 NA
ATOM     23  C   UNL     1       3.316  -1.821  26.892  0.00  0.00    +0.182 A 
ATOM     24 BR   UNL     1       1.632  -2.590  26.575  0.00  0.00    -0.008 Br
ENDBRANCH  10  12
BRANCH   8  25
ATOM     25  O   UNL     1       2.325  -5.831  25.978  0.00  0.00    -0.386 OA
ATOM     26  H   UNL     1       1.815  -6.345  25.315  0.00  0.00    +0.210 HD
ENDBRANCH   8  25
BRANCH   9  27
ATOM     27  O   UNL     1       5.640  -5.451  26.882  0.00  0.00    -0.276 OA
BRANCH  27  28
ATOM     28  P   UNL     1       5.652  -6.051  28.505  0.00  0.00    +0.473 P 
ATOM     29  O   UNL     1       5.663  -6.587  29.957  0.00  0.00    -0.228 OA
BRANCH  28  30
ATOM     30  O   UNL     1       5.208  -7.467  27.819  0.00  0.00    -0.303 OA
ATOM     31  H   UNL     1       5.768  -7.717  27.061  0.00  0.00    +0.222 HD
ENDBRANCH  28  30
BRANCH  28  32
ATOM     32  O   UNL     1       7.254  -6.302  28.282  0.00  0.00    -0.303 OA
ATOM     33  H   UNL     1       7.395  -7.246  28.488  0.00  0.00    +0.222 HD
ENDBRANCH  28  32
ENDBRANCH  27  28
ENDBRANCH   9  27
ENDBRANCH   6   7
ENDBRANCH   5   6
ENDBRANCH   1   5
BRANCH   1  34
ATOM     34  O   UNL     1       8.313  -5.390  23.637  0.00  0.00    -0.229 OA
BRANCH  34  35
ATOM     35  P   UNL     1       8.695  -4.936  25.261  0.00  0.00    +0.222 P 
ATOM     36  O   UNL     1       9.077  -4.483  26.886  0.00  0.00    -0.437 OA
ATOM     37  O   UNL     1      10.122  -5.380  24.901  0.00  0.00    -0.517 OA
BRANCH  35  38
ATOM     38  O   UNL     1       8.549  -3.373  24.750  0.00  0.00    -0.324 OA
BRANCH  38  39
ATOM     39  C   UNL     1       9.714  -2.594  24.636  0.00  0.00    +0.202 C 
BRANCH  39  43
ATOM     40  C   UNL     1       7.929  -0.189  22.600  0.00  0.00    +0.439 C 
ATOM     41  C   UNL     1       9.338   0.078  22.080  0.00  0.00    +0.244 C 
ATOM     42  C   UNL     1      10.251  -0.559  23.125  0.00  0.00    +0.183 C 
ATOM     43  C   UNL     1       9.305  -1.224  24.141  0.00  0.00    +0.182 C 
ATOM     44  O   UNL     1       7.981  -1.218  23.591  0.00  0.00    -0.309 OA
BRANCH  40  47
ATOM     45  C   UNL     1       7.069   3.403  23.250  0.00  0.00    +0.100 A 
ATOM     46  C   UNL     1       7.728   2.257  22.811  0.00  0.00    +0.324 A 
ATOM     47  N   UNL     1       7.301   1.027  23.194  0.00  0.00    -0.173 N 
ATOM     48  C   UNL     1       6.251   0.920  24.052  0.00  0.00    +0.311 A 
ATOM     49  C   UNL     1       5.561   2.032  24.499  0.00  0.00    +0.071 A 
ATOM     50  C   UNL     1       5.970   3.292  24.098  0.00  0.00    +0.025 A 
BRANCH  45  54
ATOM     51  N   UNL     1       6.954   5.360  21.807  0.00  0.00    -0.325 N 
ATOM     52  H   UNL     1       6.238   4.954  21.222  0.00  0.00    +0.145 HD
ATOM     53  H   UNL     1       7.355   6.239  21.494  0.00  0.00    +0.145 HD
ATOM     54  C   UNL     1       7.605   4.709  22.813  0.00  0.00    +0.247 C 
ATOM     55  O   UNL     1       8.609   5.155  23.343  0.00  0.00    -0.270 OA
ENDBRANCH  45  54
ENDBRANCH  40  47
BRANCH  42  56
ATOM     56  O   UNL     1      10.985   0.477  23.786  0.00  0.00    -0.386 OA
ATOM     57  H   UNL     1      11.933   0.261  23.632  0.00  0.00    +0.210 HD
ENDBRANCH  42  56
BRANCH  41  58
ATOM     58  O   UNL     1       9.503  -0.507  20.776  0.00  0.00    -0.380 OA
ATOM     59  H   UNL     1      10.260  -1.135  20.797  0.00  0.00    +0.210 HD
ENDBRANCH  41  58
ENDBRANCH  39  43
ENDBRANCH  38  39
ENDBRANCH  35  38
ENDBRANCH  34  35
ENDBRANCH   1  34
TORSDOF 19
ENDMDL
MODEL 3
REMARK VINA RESULT:      -7.8      1.432      2.432
REMARK  Name = 
REMARK  19 active torsions:
REMARK  status: ('A' for Active; 'I' for Inactive)
REMARK    1  A    between atoms: C_2  and  C_4
REMARK    2  A    between atoms: N_8  and  C_10
REMARK    3  A    between atoms: C_13  and  C_15
REMARK    4  A    between atoms: C_15  and  O_16
REMARK    5  A    between atoms: O_16  and  P_17
REMARK    6  A    between atoms: P_17  and  O_20
REMARK    7  A    between atoms: O_20  and  P_21
REMARK    8  A    between atoms: P_21  and  O_22
REMARK    9  A    between atoms: P_21  and  O_24
REMARK   10  A    between atoms: O_24  and  C_25
REMARK   11  A    between atoms: C_25  and  C_26
REMARK   12  A    between atoms: C_29  and  N_41
REMARK   13  A    between atoms: C_31  and  O_33
REMARK   14  A    between atoms: O_33  and  P_34
REMARK   15  A    between atoms: P_34  and  O_35
REMARK   16  A    between atoms: P_34  and  O_36
REMARK   17  A    between atoms: C_38  and  O_40
REMARK   18  A    between atoms: C_52  and  O_54
REMARK   19  A    between atoms: C_55  and  O_57
REMARK                            x       y       z     vdW  Elec       q    Type
REMARK                         _______ _______ _______ _____ _____    ______ ____
ROOT
ATOM      1  P   UNL     1       7.195  -5.012  22.636  0.00  0.00    +0.480 P 
ATOM      2  O   UNL     1       7.004  -6.009  21.515  0.00  0.00    -0.227 OA
ENDROOT
BRANCH   1   3
ATOM      3  O   UNL     1       7.529  -3.538  22.102  0.00  0.00    -0.302 OA
ATOM      4  H   UNL     1       6.716  -3.051  21.850  0.00  0.00    +0.222 HD
ENDBRANCH   1   3
BRANCH   1   5
ATOM      5  O   UNL     1       5.780  -4.723  23.403  0.00  0.00    -0.284 OA
BRANCH   5   6
ATOM      6  C   UNL     1       4.731  -5.589  22.937  0.00  0.00    +0.206 C 
BRANCH   6   7
ATOM      7  C   UNL     1       3.736  -6.142  23.971  0.00  0.00    +0.178 C 
ATOM      8  C   UNL     1       4.313  -7.120  24.985  0.00  0.00    +0.179 C 
ATOM      9  C   UNL     1       4.394  -6.363  26.301  0.00  0.00    +0.211 C 
ATOM     10  C   UNL     1       3.814  -4.989  25.973  0.00  0.00    +0.255 C 
ATOM     11  O   UNL     1       3.140  -5.069  24.707  0.00  0.00    -0.346 OA
BRANCH  10  12
ATOM     12  N   UNL     1       2.873  -4.482  26.948  0.00  0.00    -0.274 N 
ATOM     13  C   UNL     1       3.100  -3.465  27.844  0.00  0.00    +0.168 A 
ATOM     14  N   UNL     1       4.208  -2.711  27.977  0.00  0.00    -0.216 NA
ATOM     15  C   UNL     1       4.033  -1.796  28.972  0.00  0.00    +0.225 A 
ATOM     16  N   UNL     1       2.955  -1.602  29.763  0.00  0.00    -0.219 NA
ATOM     17  C   UNL     1       1.883  -2.404  29.592  0.00  0.00    +0.147 A 
ATOM     18  N   UNL     1       0.772  -2.215  30.405  0.00  0.00    -0.341 N 
ATOM     19  H   UNL     1      -0.082  -2.595  30.012  0.00  0.00    +0.144 HD
ATOM     20  H   UNL     1       0.734  -1.281  30.792  0.00  0.00    +0.144 HD
ATOM     21  C   UNL     1       1.931  -3.381  28.583  0.00  0.00    +0.148 A 
ATOM     22  N   UNL     1       1.003  -4.298  28.152  0.00  0.00    -0.216 NA
ATOM     23  C   UNL     1       1.597  -4.942  27.169  0.00  0.00    +0.182 A 
ATOM     24 BR   UNL     1       0.730  -6.327  26.244  0.00  0.00    -0.008 Br
ENDBRANCH  10  12
BRANCH   8  25
ATOM     25  O   UNL     1       3.415  -8.226  25.155  0.00  0.00    -0.386 OA
ATOM     26  H   UNL     1       3.474  -8.534  26.085  0.00  0.00    +0.210 HD
ENDBRANCH   8  25
BRANCH   9  27
ATOM     27  O   UNL     1       5.739  -6.219  26.745  0.00  0.00    -0.276 OA
BRANCH  27  28
ATOM     28  P   UNL     1       5.930  -6.035  28.454  0.00  0.00    +0.473 P 
ATOM     29  O   UNL     1       6.102  -5.870  29.985  0.00  0.00    -0.228 OA
BRANCH  28  30
ATOM     30  O   UNL     1       5.446  -7.595  28.520  0.00  0.00    -0.303 OA
ATOM     31  H   UNL     1       5.269  -7.979  27.640  0.00  0.00    +0.222 HD
ENDBRANCH  28  30
BRANCH  28  32
ATOM     32  O   UNL     1       7.505  -6.405  28.205  0.00  0.00    -0.303 OA
ATOM     33  H   UNL     1       7.961  -6.142  29.028  0.00  0.00    +0.222 HD
ENDBRANCH  28  32
ENDBRANCH  27  28
ENDBRANCH   9  27
ENDBRANCH   6   7
ENDBRANCH   5   6
ENDBRANCH   1   5
BRANCH   1  34
ATOM     34  O   UNL     1       8.355  -5.315  23.665  0.00  0.00    -0.229 OA
BRANCH  34  35
ATOM     35  P   UNL     1       8.738  -4.842  25.284  0.00  0.00    +0.222 P 
ATOM     36  O   UNL     1       9.121  -4.370  26.904  0.00  0.00    -0.437 OA
ATOM     37  O   UNL     1      10.178  -5.223  24.906  0.00  0.00    -0.517 OA
BRANCH  35  38
ATOM     38  O   UNL     1       8.516  -3.288  24.773  0.00  0.00    -0.324 OA
BRANCH  38  39
ATOM     39  C   UNL     1       8.287  -2.292  25.739  0.00  0.00    +0.202 C 
BRANCH  39  43
ATOM     40  C   UNL     1       6.581   0.894  25.493  0.00  0.00    +0.439 C 
ATOM     41  C   UNL     1       5.439  -0.009  25.035  0.00  0.00    +0.244 C 
ATOM     42  C   UNL     1       6.120  -1.332  24.691  0.00  0.00    +0.183 C 
ATOM     43  C   UNL     1       7.604  -1.131  25.050  0.00  0.00    +0.182 C 
ATOM     44  O   UNL     1       7.724   0.089  25.793  0.00  0.00    -0.309 OA
BRANCH  40  47
ATOM     45  C   UNL     1       8.590   3.369  23.519  0.00  0.00    +0.100 A 
ATOM     46  C   UNL     1       8.163   2.524  24.539  0.00  0.00    +0.324 A 
ATOM     47  N   UNL     1       6.957   1.905  24.462  0.00  0.00    -0.173 N 
ATOM     48  C   UNL     1       6.144   2.153  23.401  0.00  0.00    +0.311 A 
ATOM     49  C   UNL     1       6.538   2.974  22.359  0.00  0.00    +0.071 A 
ATOM     50  C   UNL     1       7.774   3.595  22.413  0.00  0.00    +0.025 A 
BRANCH  45  54
ATOM     51  N   UNL     1       9.913   5.339  24.063  0.00  0.00    -0.325 N 
ATOM     52  H   UNL     1       9.104   5.943  24.084  0.00  0.00    +0.145 HD
ATOM     53  H   UNL     1      10.821   5.789  24.137  0.00  0.00    +0.145 HD
ATOM     54  C   UNL     1       9.902   4.029  23.682  0.00  0.00    +0.247 C 
ATOM     55  O   UNL     1      10.923   3.402  23.458  0.00  0.00    -0.270 OA
ENDBRANCH  45  54
ENDBRANCH  40  47
BRANCH  42  56
ATOM     56  O   UNL     1       6.011  -1.550  23.280  0.00  0.00    -0.386 OA
ATOM     57  H   UNL     1       6.154  -0.666  22.870  0.00  0.00    +0.210 HD
ENDBRANCH  42  56
BRANCH  41  58
ATOM     58  O   UNL     1       4.468  -0.148  26.087  0.00  0.00    -0.380 OA
ATOM     59  H   UNL     1       4.395   0.704  26.574  0.00  0.00    +0.210 HD
ENDBRANCH  41  58
ENDBRANCH  39  43
ENDBRANCH  38  39
ENDBRANCH  35  38
ENDBRANCH  34  35
ENDBRANCH   1  34
TORSDOF 19
ENDMDL
MODEL 4
REMARK VINA RESULT:      -7.7      3.227      5.079
REMARK  Name = 
REMARK  19 active torsions:
REMARK  status: ('A' for Active; 'I' for Inactive)
REMARK    1  A    between atoms: C_2  and  C_4
REMARK    2  A    between atoms: N_8  and  C_10
REMARK    3  A    between atoms: C_13  and  C_15
REMARK    4  A    between atoms: C_15  and  O_16
REMARK    5  A    between atoms: O_16  and  P_17
REMARK    6  A    between atoms: P_17  and  O_20
REMARK    7  A    between atoms: O_20  and  P_21
REMARK    8  A    between atoms: P_21  and  O_22
REMARK    9  A    between atoms: P_21  and  O_24
REMARK   10  A    between atoms: O_24  and  C_25
REMARK   11  A    between atoms: C_25  and  C_26
REMARK   12  A    between atoms: C_29  and  N_41
REMARK   13  A    between atoms: C_31  and  O_33
REMARK   14  A    between atoms: O_33  and  P_34
REMARK   15  A    between atoms: P_34  and  O_35
REMARK   16  A    between atoms: P_34  and  O_36
REMARK   17  A    between atoms: C_38  and  O_40
REMARK   18  A    between atoms: C_52  and  O_54
REMARK   19  A    between atoms: C_55  and  O_57
REMARK                            x       y       z     vdW  Elec       q    Type
REMARK                         _______ _______ _______ _____ _____    ______ ____
ROOT
ATOM      1  P   UNL     1       1.633  -2.455  26.131  0.00  0.00    +0.480 P 
ATOM      2  O   UNL     1       1.029  -3.014  24.863  0.00  0.00    -0.227 OA
ENDROOT
BRANCH   1   3
ATOM      3  O   UNL     1       1.048  -1.011  26.511  0.00  0.00    -0.302 OA
ATOM      4  H   UNL     1       1.500  -0.632  27.293  0.00  0.00    +0.222 HD
ENDBRANCH   1   3
BRANCH   1   5
ATOM      5  O   UNL     1       1.142  -3.313  27.435  0.00  0.00    -0.284 OA
BRANCH   5   6
ATOM      6  C   UNL     1       1.245  -4.730  27.214  0.00  0.00    +0.206 C 
BRANCH   6   7
ATOM      7  C   UNL     1       2.397  -5.487  27.895  0.00  0.00    +0.178 C 
ATOM      8  C   UNL     1       2.483  -6.975  27.586  0.00  0.00    +0.179 C 
ATOM      9  C   UNL     1       3.671  -7.144  26.653  0.00  0.00    +0.211 C 
ATOM     10  C   UNL     1       4.232  -5.731  26.510  0.00  0.00    +0.255 C 
ATOM     11  O   UNL     1       3.654  -4.906  27.533  0.00  0.00    -0.346 OA
BRANCH  10  12
ATOM     12  N   UNL     1       5.671  -5.637  26.623  0.00  0.00    -0.274 N 
ATOM     13  C   UNL     1       6.557  -5.453  25.588  0.00  0.00    +0.168 A 
ATOM     14  N   UNL     1       6.279  -5.280  24.281  0.00  0.00    -0.216 NA
ATOM     15  C   UNL     1       7.433  -5.113  23.577  0.00  0.00    +0.225 A 
ATOM     16  N   UNL     1       8.707  -5.111  24.028  0.00  0.00    -0.219 NA
ATOM     17  C   UNL     1       8.919  -5.308  25.346  0.00  0.00    +0.147 A 
ATOM     18  N   UNL     1      10.227  -5.312  25.817  0.00  0.00    -0.341 N 
ATOM     19  H   UNL     1      10.295  -5.122  26.811  0.00  0.00    +0.144 HD
ATOM     20  H   UNL     1      10.858  -4.816  25.202  0.00  0.00    +0.144 HD
ATOM     21  C   UNL     1       7.806  -5.477  26.186  0.00  0.00    +0.148 A 
ATOM     22  N   UNL     1       7.703  -5.651  27.545  0.00  0.00    -0.216 NA
ATOM     23  C   UNL     1       6.410  -5.743  27.776  0.00  0.00    +0.182 A 
ATOM     24 BR   UNL     1       5.744  -6.004  29.513  0.00  0.00    -0.008 Br
ENDBRANCH  10  12
BRANCH   8  25
ATOM     25  O   UNL     1       2.748  -7.705  28.792  0.00  0.00    -0.386 OA
ATOM     26  H   UNL     1       2.046  -8.381  28.908  0.00  0.00    +0.210 HD
ENDBRANCH   8  25
BRANCH   9  27
ATOM     27  O   UNL     1       3.274  -7.631  25.376  0.00  0.00    -0.276 OA
BRANCH  27  28
ATOM     28  P   UNL     1       3.034  -6.413  24.171  0.00  0.00    +0.473 P 
ATOM     29  O   UNL     1       2.818  -5.323  23.092  0.00  0.00    -0.228 OA
BRANCH  28  30
ATOM     30  O   UNL     1       4.285  -7.139  23.410  0.00  0.00    -0.303 OA
ATOM     31  H   UNL     1       4.814  -6.522  22.870  0.00  0.00    +0.222 HD
ENDBRANCH  28  30
BRANCH  28  32
ATOM     32  O   UNL     1       1.906  -7.417  23.541  0.00  0.00    -0.303 OA
ATOM     33  H   UNL     1       1.896  -8.194  24.133  0.00  0.00    +0.222 HD
ENDBRANCH  28  32
ENDBRANCH  27  28
ENDBRANCH   9  27
ENDBRANCH   6   7
ENDBRANCH   5   6
ENDBRANCH   1   5
BRANCH   1  34
ATOM     34  O   UNL     1       3.199  -2.244  26.139  0.00  0.00    -0.229 OA
BRANCH  34  35
ATOM     35  P   UNL     1       4.293  -1.067  26.778  0.00  0.00    +0.222 P 
ATOM     36  O   UNL     1       5.387   0.111  27.417  0.00  0.00    -0.437 OA
ATOM     37  O   UNL     1       3.897  -1.646  28.145  0.00  0.00    -0.517 OA
BRANCH  35  38
ATOM     38  O   UNL     1       5.504  -2.027  26.197  0.00  0.00    -0.324 OA
BRANCH  38  39
ATOM     39  C   UNL     1       5.801  -1.973  24.824  0.00  0.00    +0.202 C 
BRANCH  39  43
ATOM     40  C   UNL     1       8.721  -0.630  23.153  0.00  0.00    +0.439 C 
ATOM     41  C   UNL     1       9.427  -1.339  24.305  0.00  0.00    +0.244 C 
ATOM     42  C   UNL     1       8.318  -1.604  25.320  0.00  0.00    +0.183 C 
ATOM     43  C   UNL     1       7.025  -1.101  24.652  0.00  0.00    +0.182 C 
ATOM     44  O   UNL     1       7.309  -0.831  23.273  0.00  0.00    -0.309 OA
BRANCH  40  47
ATOM     45  C   UNL     1       8.239   3.069  22.771  0.00  0.00    +0.100 A 
ATOM     46  C   UNL     1       8.050   1.692  22.680  0.00  0.00    +0.324 A 
ATOM     47  N   UNL     1       9.002   0.834  23.127  0.00  0.00    -0.173 N 
ATOM     48  C   UNL     1      10.168   1.329  23.621  0.00  0.00    +0.311 A 
ATOM     49  C   UNL     1      10.389   2.689  23.743  0.00  0.00    +0.071 A 
ATOM     50  C   UNL     1       9.417   3.576  23.313  0.00  0.00    +0.025 A 
BRANCH  45  54
ATOM     51  N   UNL     1       7.523   5.183  21.799  0.00  0.00    -0.325 N 
ATOM     52  H   UNL     1       8.421   5.619  21.953  0.00  0.00    +0.145 HD
ATOM     53  H   UNL     1       6.774   5.785  21.471  0.00  0.00    +0.145 HD
ATOM     54  C   UNL     1       7.171   3.942  22.241  0.00  0.00    +0.247 C 
ATOM     55  O   UNL     1       6.018   3.544  22.230  0.00  0.00    -0.270 OA
ENDBRANCH  45  54
ENDBRANCH  40  47
BRANCH  42  56
ATOM     56  O   UNL     1       8.569  -0.818  26.490  0.00  0.00    -0.386 OA
ATOM     57  H   UNL     1       8.007  -1.215  27.194  0.00  0.00    +0.210 HD
ENDBRANCH  42  56
BRANCH  41  58
ATOM     58  O   UNL     1      10.043  -2.552  23.835  0.00  0.00    -0.380 OA
ATOM     59  H   UNL     1      10.577  -2.353  23.032  0.00  0.00    +0.210 HD
ENDBRANCH  41  58
ENDBRANCH  39  43
ENDBRANCH  38  39
ENDBRANCH  35  38
ENDBRANCH  34  35
ENDBRANCH   1  34
TORSDOF 19
ENDMDL
MODEL 5
REMARK VINA RESULT:      -7.7      3.274      5.983
REMARK  Name = 
REMARK  19 active torsions:
REMARK  status: ('A' for Active; 'I' for Inactive)
REMARK    1  A    between atoms: C_2  and  C_4
REMARK    2  A    between atoms: N_8  and  C_10
REMARK    3  A    between atoms: C_13  and  C_15
REMARK    4  A    between atoms: C_15  and  O_16
REMARK    5  A    between atoms: O_16  and  P_17
REMARK    6  A    between atoms: P_17  and  O_20
REMARK    7  A    between atoms: O_20  and  P_21
REMARK    8  A    between atoms: P_21  and  O_22
REMARK    9  A    between atoms: P_21  and  O_24
REMARK   10  A    between atoms: O_24  and  C_25
REMARK   11  A    between atoms: C_25  and  C_26
REMARK   12  A    between atoms: C_29  and  N_41
REMARK   13  A    between atoms: C_31  and  O_33
REMARK   14  A    between atoms: O_33  and  P_34
REMARK   15  A    between atoms: P_34  and  O_35
REMARK   16  A    between atoms: P_34  and  O_36
REMARK   17  A    between atoms: C_38  and  O_40
REMARK   18  A    between atoms: C_52  and  O_54
REMARK   19  A    between atoms: C_55  and  O_57
REMARK                            x       y       z     vdW  Elec       q    Type
REMARK                         _______ _______ _______ _____ _____    ______ ____
ROOT
ATOM      1  P   UNL     1       6.284   0.159  26.397  0.00  0.00    +0.480 P 
ATOM      2  O   UNL     1       6.621  -1.132  27.109  0.00  0.00    -0.227 OA
ENDROOT
BRANCH   1   3
ATOM      3  O   UNL     1       7.380   1.304  26.641  0.00  0.00    -0.302 OA
ATOM      4  H   UNL     1       8.289   0.937  26.655  0.00  0.00    +0.222 HD
ENDBRANCH   1   3
BRANCH   1   5
ATOM      5  O   UNL     1       6.416  -0.020  24.776  0.00  0.00    -0.284 OA
BRANCH   5   6
ATOM      6  C   UNL     1       6.957  -1.305  24.421  0.00  0.00    +0.206 C 
BRANCH   6   7
ATOM      7  C   UNL     1       6.006  -2.347  23.811  0.00  0.00    +0.178 C 
ATOM      8  C   UNL     1       6.616  -3.258  22.754  0.00  0.00    +0.179 C 
ATOM      9  C   UNL     1       6.779  -4.618  23.412  0.00  0.00    +0.211 C 
ATOM     10  C   UNL     1       6.209  -4.420  24.816  0.00  0.00    +0.255 C 
ATOM     11  O   UNL     1       5.470  -3.189  24.837  0.00  0.00    -0.346 OA
BRANCH  10  12
ATOM     12  N   UNL     1       5.330  -5.476  25.265  0.00  0.00    -0.274 N 
ATOM     13  C   UNL     1       4.298  -6.035  24.549  0.00  0.00    +0.168 A 
ATOM     14  N   UNL     1       3.919  -5.755  23.288  0.00  0.00    -0.216 NA
ATOM     15  C   UNL     1       2.861  -6.537  22.934  0.00  0.00    +0.225 A 
ATOM     16  N   UNL     1       2.218  -7.473  23.666  0.00  0.00    -0.219 NA
ATOM     17  C   UNL     1       2.634  -7.693  24.931  0.00  0.00    +0.147 A 
ATOM     18  N   UNL     1       1.975  -8.650  25.693  0.00  0.00    -0.341 N 
ATOM     19  H   UNL     1       2.530  -8.997  26.468  0.00  0.00    +0.144 HD
ATOM     20  H   UNL     1       1.493  -9.330  25.122  0.00  0.00    +0.144 HD
ATOM     21  C   UNL     1       3.732  -6.959  25.412  0.00  0.00    +0.148 A 
ATOM     22  N   UNL     1       4.397  -6.990  26.615  0.00  0.00    -0.216 NA
ATOM     23  C   UNL     1       5.350  -6.090  26.495  0.00  0.00    +0.182 A 
ATOM     24 BR   UNL     1       6.546  -5.741  27.900  0.00  0.00    -0.008 Br
ENDBRANCH  10  12
BRANCH   8  25
ATOM     25  O   UNL     1       5.707  -3.395  21.652  0.00  0.00    -0.386 OA
ATOM     26  H   UNL     1       4.922  -3.900  21.958  0.00  0.00    +0.210 HD
ENDBRANCH   8  25
BRANCH   9  27
ATOM     27  O   UNL     1       8.148  -4.999  23.503  0.00  0.00    -0.276 OA
BRANCH  27  28
ATOM     28  P   UNL     1       8.883  -4.726  25.045  0.00  0.00    +0.473 P 
ATOM     29  O   UNL     1       9.541  -4.480  26.425  0.00  0.00    -0.228 OA
BRANCH  28  30
ATOM     30  O   UNL     1       9.827  -6.000  24.647  0.00  0.00    -0.303 OA
ATOM     31  H   UNL     1       9.372  -6.652  24.081  0.00  0.00    +0.222 HD
ENDBRANCH  28  30
BRANCH  28  32
ATOM     32  O   UNL     1       9.824  -3.630  24.277  0.00  0.00    -0.303 OA
ATOM     33  H   UNL     1      10.631  -3.558  24.824  0.00  0.00    +0.222 HD
ENDBRANCH  28  32
ENDBRANCH  27  28
ENDBRANCH   9  27
ENDBRANCH   6   7
ENDBRANCH   5   6
ENDBRANCH   1   5
BRANCH   1  34
ATOM     34  O   UNL     1       4.919   0.850  26.789  0.00  0.00    -0.229 OA
BRANCH  34  35
ATOM     35  P   UNL     1       4.412   2.045  27.933  0.00  0.00    +0.222 P 
ATOM     36  O   UNL     1       3.904   3.239  29.077  0.00  0.00    -0.437 OA
ATOM     37  O   UNL     1       5.482   1.424  28.844  0.00  0.00    -0.517 OA
BRANCH  35  38
ATOM     38  O   UNL     1       5.191   3.143  26.977  0.00  0.00    -0.324 OA
BRANCH  38  39
ATOM     39  C   UNL     1       4.532   3.620  25.831  0.00  0.00    +0.202 C 
BRANCH  39  43
ATOM     40  C   UNL     1       7.234   4.087  23.464  0.00  0.00    +0.439 C 
ATOM     41  C   UNL     1       6.061   4.308  22.513  0.00  0.00    +0.244 C 
ATOM     42  C   UNL     1       4.857   3.742  23.263  0.00  0.00    +0.183 C 
ATOM     43  C   UNL     1       5.402   3.302  24.635  0.00  0.00    +0.182 C 
ATOM     44  O   UNL     1       6.731   3.820  24.776  0.00  0.00    -0.309 OA
BRANCH  40  47
ATOM     45  C   UNL     1       9.671   1.240  23.602  0.00  0.00    +0.100 A 
ATOM     46  C   UNL     1       8.947   2.382  23.938  0.00  0.00    +0.324 A 
ATOM     47  N   UNL     1       8.106   2.953  23.039  0.00  0.00    -0.173 N 
ATOM     48  C   UNL     1       8.009   2.431  21.787  0.00  0.00    +0.311 A 
ATOM     49  C   UNL     1       8.699   1.290  21.419  0.00  0.00    +0.071 A 
ATOM     50  C   UNL     1       9.544   0.683  22.332  0.00  0.00    +0.025 A 
BRANCH  45  54
ATOM     51  N   UNL     1      10.036   0.057  25.699  0.00  0.00    -0.325 N 
ATOM     52  H   UNL     1       9.057   0.078  25.944  0.00  0.00    +0.145 HD
ATOM     53  H   UNL     1      10.677  -0.286  26.408  0.00  0.00    +0.145 HD
ATOM     54  C   UNL     1      10.587   0.687  24.622  0.00  0.00    +0.247 C 
ATOM     55  O   UNL     1      11.791   0.823  24.485  0.00  0.00    -0.270 OA
ENDBRANCH  45  54
ENDBRANCH  40  47
BRANCH  42  56
ATOM     56  O   UNL     1       4.382   2.587  22.563  0.00  0.00    -0.386 OA
ATOM     57  H   UNL     1       4.681   1.818  23.100  0.00  0.00    +0.210 HD
ENDBRANCH  42  56
BRANCH  41  58
ATOM     58  O   UNL     1       5.919   5.710  22.223  0.00  0.00    -0.380 OA
ATOM     59  H   UNL     1       5.116   5.845  21.669  0.00  0.00    +0.210 HD
ENDBRANCH  41  58
ENDBRANCH  39  43
ENDBRANCH  38  39
ENDBRANCH  35  38
ENDBRANCH  34  35
ENDBRANCH   1  34
TORSDOF 19
ENDMDL
MODEL 6
REMARK VINA RESULT:      -7.7      3.648      6.137
REMARK  Name = 
REMARK  19 active torsions:
REMARK  status: ('A' for Active; 'I' for Inactive)
REMARK    1  A    between atoms: C_2  and  C_4
REMARK    2  A    between atoms: N_8  and  C_10
REMARK    3  A    between atoms: C_13  and  C_15
REMARK    4  A    between atoms: C_15  and  O_16
REMARK    5  A    between atoms: O_16  and  P_17
REMARK    6  A    between atoms: P_17  and  O_20
REMARK    7  A    between atoms: O_20  and  P_21
REMARK    8  A    between atoms: P_21  and  O_22
REMARK    9  A    between atoms: P_21  and  O_24
REMARK   10  A    between atoms: O_24  and  C_25
REMARK   11  A    between atoms: C_25  and  C_26
REMARK   12  A    between atoms: C_29  and  N_41
REMARK   13  A    between atoms: C_31  and  O_33
REMARK   14  A    between atoms: O_33  and  P_34
REMARK   15  A    between atoms: P_34  and  O_35
REMARK   16  A    between atoms: P_34  and  O_36
REMARK   17  A    between atoms: C_38  and  O_40
REMARK   18  A    between atoms: C_52  and  O_54
REMARK   19  A    between atoms: C_55  and  O_57
REMARK                            x       y       z     vdW  Elec       q    Type
REMARK                         _______ _______ _______ _____ _____    ______ ____
ROOT
ATOM      1  P   UNL     1       1.509  -1.530  27.251  0.00  0.00    +0.480 P 
ATOM      2  O   UNL     1       0.495  -2.001  28.269  0.00  0.00    -0.227 OA
ENDROOT
BRANCH   1   3
ATOM      3  O   UNL     1       2.997  -1.460  27.847  0.00  0.00    -0.302 OA
ATOM      4  H   UNL     1       3.244  -2.294  28.299  0.00  0.00    +0.222 HD
ENDBRANCH   1   3
BRANCH   1   5
ATOM      5  O   UNL     1       1.723  -2.652  26.082  0.00  0.00    -0.284 OA
BRANCH   5   6
ATOM      6  C   UNL     1       1.405  -3.976  26.545  0.00  0.00    +0.206 C 
BRANCH   6   7
ATOM      7  C   UNL     1       2.430  -4.697  27.435  0.00  0.00    +0.178 C 
ATOM      8  C   UNL     1       2.366  -6.219  27.416  0.00  0.00    +0.179 C 
ATOM      9  C   UNL     1       3.574  -6.681  26.618  0.00  0.00    +0.211 C 
ATOM     10  C   UNL     1       4.295  -5.385  26.254  0.00  0.00    +0.255 C 
ATOM     11  O   UNL     1       3.760  -4.324  27.062  0.00  0.00    -0.346 OA
BRANCH  10  12
ATOM     12  N   UNL     1       5.728  -5.414  26.449  0.00  0.00    -0.274 N 
ATOM     13  C   UNL     1       6.684  -5.263  25.473  0.00  0.00    +0.168 A 
ATOM     14  N   UNL     1       6.497  -5.018  24.162  0.00  0.00    -0.216 NA
ATOM     15  C   UNL     1       7.700  -4.918  23.530  0.00  0.00    +0.225 A 
ATOM     16  N   UNL     1       8.941  -5.039  24.050  0.00  0.00    -0.219 NA
ATOM     17  C   UNL     1       9.060  -5.303  25.368  0.00  0.00    +0.147 A 
ATOM     18  N   UNL     1      10.334  -5.433  25.909  0.00  0.00    -0.341 N 
ATOM     19  H   UNL     1      10.359  -5.289  26.913  0.00  0.00    +0.144 HD
ATOM     20  H   UNL     1      11.037  -4.968  25.352  0.00  0.00    +0.144 HD
ATOM     21  C   UNL     1       7.890  -5.413  26.137  0.00  0.00    +0.148 A 
ATOM     22  N   UNL     1       7.695  -5.631  27.480  0.00  0.00    -0.216 NA
ATOM     23  C   UNL     1       6.388  -5.626  27.636  0.00  0.00    +0.182 A 
ATOM     24 BR   UNL     1       5.603  -5.898  29.320  0.00  0.00    -0.008 Br
ENDBRANCH  10  12
BRANCH   8  25
ATOM     25  O   UNL     1       2.487  -6.724  28.754  0.00  0.00    -0.386 OA
ATOM     26  H   UNL     1       3.423  -6.980  28.905  0.00  0.00    +0.210 HD
ENDBRANCH   8  25
BRANCH   9  27
ATOM     27  O   UNL     1       3.191  -7.364  25.429  0.00  0.00    -0.276 OA
BRANCH  27  28
ATOM     28  P   UNL     1       3.273  -6.418  23.984  0.00  0.00    +0.473 P 
ATOM     29  O   UNL     1       3.346  -5.571  22.689  0.00  0.00    -0.228 OA
BRANCH  28  30
ATOM     30  O   UNL     1       4.590  -7.328  23.648  0.00  0.00    -0.303 OA
ATOM     31  H   UNL     1       4.366  -8.226  23.341  0.00  0.00    +0.222 HD
ENDBRANCH  28  30
BRANCH  28  32
ATOM     32  O   UNL     1       2.214  -7.494  23.352  0.00  0.00    -0.303 OA
ATOM     33  H   UNL     1       2.730  -8.313  23.222  0.00  0.00    +0.222 HD
ENDBRANCH  28  32
ENDBRANCH  27  28
ENDBRANCH   9  27
ENDBRANCH   6   7
ENDBRANCH   5   6
ENDBRANCH   1   5
BRANCH   1  34
ATOM     34  O   UNL     1       1.280  -0.093  26.634  0.00  0.00    -0.229 OA
BRANCH  34  35
ATOM     35  P   UNL     1       1.797   1.516  27.000  0.00  0.00    +0.222 P 
ATOM     36  O   UNL     1       2.313   3.126  27.366  0.00  0.00    -0.437 OA
ATOM     37  O   UNL     1       1.876   1.011  28.449  0.00  0.00    -0.517 OA
BRANCH  35  38
ATOM     38  O   UNL     1       3.229   1.109  26.285  0.00  0.00    -0.324 OA
BRANCH  38  39
ATOM     39  C   UNL     1       4.356   1.908  26.542  0.00  0.00    +0.202 C 
BRANCH  39  43
ATOM     40  C   UNL     1       6.237  -0.918  25.279  0.00  0.00    +0.439 C 
ATOM     41  C   UNL     1       6.496  -1.123  26.769  0.00  0.00    +0.244 C 
ATOM     42  C   UNL     1       6.116   0.213  27.404  0.00  0.00    +0.183 C 
ATOM     43  C   UNL     1       5.586   1.078  26.246  0.00  0.00    +0.182 C 
ATOM     44  O   UNL     1       5.408   0.234  25.101  0.00  0.00    -0.309 OA
BRANCH  40  47
ATOM     45  C   UNL     1       8.773   0.519  22.920  0.00  0.00    +0.100 A 
ATOM     46  C   UNL     1       7.568   0.242  23.562  0.00  0.00    +0.324 A 
ATOM     47  N   UNL     1       7.498  -0.735  24.502  0.00  0.00    -0.173 N 
ATOM     48  C   UNL     1       8.602  -1.477  24.780  0.00  0.00    +0.311 A 
ATOM     49  C   UNL     1       9.820  -1.224  24.176  0.00  0.00    +0.071 A 
ATOM     50  C   UNL     1       9.914  -0.216  23.232  0.00  0.00    +0.025 A 
BRANCH  45  54
ATOM     51  N   UNL     1       9.973   2.083  21.491  0.00  0.00    -0.325 N 
ATOM     52  H   UNL     1      10.854   1.914  21.956  0.00  0.00    +0.145 HD
ATOM     53  H   UNL     1       9.954   2.834  20.809  0.00  0.00    +0.145 HD
ATOM     54  C   UNL     1       8.770   1.578  21.889  0.00  0.00    +0.247 C 
ATOM     55  O   UNL     1       7.709   1.980  21.442  0.00  0.00    -0.270 OA
ENDBRANCH  45  54
ENDBRANCH  40  47
BRANCH  42  56
ATOM     56  O   UNL     1       7.299   0.822  27.932  0.00  0.00    -0.386 OA
ATOM     57  H   UNL     1       8.010   0.150  27.815  0.00  0.00    +0.210 HD
ENDBRANCH  42  56
BRANCH  41  58
ATOM     58  O   UNL     1       5.697  -2.213  27.263  0.00  0.00    -0.380 OA
ATOM     59  H   UNL     1       6.002  -3.052  26.847  0.00  0.00    +0.210 HD
ENDBRANCH  41  58
ENDBRANCH  39  43
ENDBRANCH  38  39
ENDBRANCH  35  38
ENDBRANCH  34  35
ENDBRANCH   1  34
TORSDOF 19
ENDMDL
MODEL 7
REMARK VINA RESULT:      -7.5      3.477      8.268
REMARK  Name = 
REMARK  19 active torsions:
REMARK  status: ('A' for Active; 'I' for Inactive)
REMARK    1  A    between atoms: C_2  and  C_4
REMARK    2  A    between atoms: N_8  and  C_10
REMARK    3  A    between atoms: C_13  and  C_15
REMARK    4  A    between atoms: C_15  and  O_16
REMARK    5  A    between atoms: O_16  and  P_17
REMARK    6  A    between atoms: P_17  and  O_20
REMARK    7  A    between atoms: O_20  and  P_21
REMARK    8  A    between atoms: P_21  and  O_22
REMARK    9  A    between atoms: P_21  and  O_24
REMARK   10  A    between atoms: O_24  and  C_25
REMARK   11  A    between atoms: C_25  and  C_26
REMARK   12  A    between atoms: C_29  and  N_41
REMARK   13  A    between atoms: C_31  and  O_33
REMARK   14  A    between atoms: O_33  and  P_34
REMARK   15  A    between atoms: P_34  and  O_35
REMARK   16  A    between atoms: P_34  and  O_36
REMARK   17  A    between atoms: C_38  and  O_40
REMARK   18  A    between atoms: C_52  and  O_54
REMARK   19  A    between atoms: C_55  and  O_57
REMARK                            x       y       z     vdW  Elec       q    Type
REMARK                         _______ _______ _______ _____ _____    ______ ____
ROOT
ATOM      1  P   UNL     1       8.879   2.434  22.687  0.00  0.00    +0.480 P 
ATOM      2  O   UNL     1       7.751   3.249  22.095  0.00  0.00    -0.227 OA
ENDROOT
BRANCH   1   3
ATOM      3  O   UNL     1      10.243   2.568  21.854  0.00  0.00    -0.302 OA
ATOM      4  H   UNL     1      11.029   2.519  22.437  0.00  0.00    +0.222 HD
ENDBRANCH   1   3
BRANCH   1   5
ATOM      5  O   UNL     1       9.358   3.061  24.120  0.00  0.00    -0.284 OA
BRANCH   5   6
ATOM      6  C   UNL     1       8.628   4.255  24.453  0.00  0.00    +0.206 C 
BRANCH   6   7
ATOM      7  C   UNL     1       7.599   4.180  25.593  0.00  0.00    +0.178 C 
ATOM      8  C   UNL     1       6.163   4.507  25.208  0.00  0.00    +0.179 C 
ATOM      9  C   UNL     1       5.416   3.184  25.201  0.00  0.00    +0.211 C 
ATOM     10  C   UNL     1       6.469   2.163  25.627  0.00  0.00    +0.255 C 
ATOM     11  O   UNL     1       7.595   2.870  26.170  0.00  0.00    -0.346 OA
BRANCH  10  12
ATOM     12  N   UNL     1       6.020   1.210  26.619  0.00  0.00    -0.274 N 
ATOM     13  C   UNL     1       5.507  -0.041  26.370  0.00  0.00    +0.168 A 
ATOM     14  N   UNL     1       5.355  -0.651  25.179  0.00  0.00    -0.216 NA
ATOM     15  C   UNL     1       4.826  -1.894  25.357  0.00  0.00    +0.225 A 
ATOM     16  N   UNL     1       4.469  -2.506  26.507  0.00  0.00    -0.219 NA
ATOM     17  C   UNL     1       4.629  -1.833  27.666  0.00  0.00    +0.147 A 
ATOM     18  N   UNL     1       4.261  -2.453  28.854  0.00  0.00    -0.341 N 
ATOM     19  H   UNL     1       4.710  -2.053  29.671  0.00  0.00    +0.144 HD
ATOM     20  H   UNL     1       4.249  -3.460  28.774  0.00  0.00    +0.144 HD
ATOM     21  C   UNL     1       5.184  -0.543  27.620  0.00  0.00    +0.148 A 
ATOM     22  N   UNL     1       5.500   0.354  28.613  0.00  0.00    -0.216 NA
ATOM     23  C   UNL     1       6.001   1.394  27.980  0.00  0.00    +0.182 A 
ATOM     24 BR   UNL     1       6.582   2.918  28.912  0.00  0.00    -0.008 Br
ENDBRANCH  10  12
BRANCH   8  25
ATOM     25  O   UNL     1       5.576   5.352  26.207  0.00  0.00    -0.386 OA
ATOM     26  H   UNL     1       4.797   4.890  26.586  0.00  0.00    +0.210 HD
ENDBRANCH   8  25
BRANCH   9  27
ATOM     27  O   UNL     1       4.934   2.857  23.902  0.00  0.00    -0.276 OA
BRANCH  27  28
ATOM     28  P   UNL     1       3.873   4.029  23.198  0.00  0.00    +0.473 P 
ATOM     29  O   UNL     1       2.923   5.078  22.569  0.00  0.00    -0.228 OA
BRANCH  28  30
ATOM     30  O   UNL     1       4.895   3.961  21.924  0.00  0.00    -0.303 OA
ATOM     31  H   UNL     1       4.445   3.763  21.082  0.00  0.00    +0.222 HD
ENDBRANCH  28  30
BRANCH  28  32
ATOM     32  O   UNL     1       2.974   2.754  22.704  0.00  0.00    -0.303 OA
ATOM     33  H   UNL     1       2.048   3.014  22.876  0.00  0.00    +0.222 HD
ENDBRANCH  28  32
ENDBRANCH  27  28
ENDBRANCH   9  27
ENDBRANCH   6   7
ENDBRANCH   5   6
ENDBRANCH   1   5
BRANCH   1  34
ATOM     34  O   UNL     1       8.649   0.875  22.791  0.00  0.00    -0.229 OA
BRANCH  34  35
ATOM     35  P   UNL     1       9.605  -0.544  22.539  0.00  0.00    +0.222 P 
ATOM     36  O   UNL     1      10.563  -1.963  22.286  0.00  0.00    -0.437 OA
ATOM     37  O   UNL     1      10.557   0.084  23.569  0.00  0.00    -0.517 OA
BRANCH  35  38
ATOM     38  O   UNL     1       8.451  -1.352  23.400  0.00  0.00    -0.324 OA
BRANCH  38  39
ATOM     39  C   UNL     1       8.703  -1.636  24.754  0.00  0.00    +0.202 C 
BRANCH  39  43
ATOM     40  C   UNL     1       8.212  -4.699  26.623  0.00  0.00    +0.439 C 
ATOM     41  C   UNL     1       8.927  -5.288  25.411  0.00  0.00    +0.244 C 
ATOM     42  C   UNL     1       8.834  -4.192  24.351  0.00  0.00    +0.183 C 
ATOM     43  C   UNL     1       8.140  -3.008  25.048  0.00  0.00    +0.182 C 
ATOM     44  O   UNL     1       8.088  -3.284  26.454  0.00  0.00    -0.309 OA
BRANCH  40  47
ATOM     45  C   UNL     1       5.010  -6.538  25.969  0.00  0.00    +0.100 A 
ATOM     46  C   UNL     1       6.216  -5.869  25.777  0.00  0.00    +0.324 A 
ATOM     47  N   UNL     1       6.854  -5.284  26.823  0.00  0.00    -0.173 N 
ATOM     48  C   UNL     1       6.283  -5.314  28.056  0.00  0.00    +0.311 A 
ATOM     49  C   UNL     1       5.094  -5.982  28.291  0.00  0.00    +0.071 A 
ATOM     50  C   UNL     1       4.443  -6.602  27.239  0.00  0.00    +0.025 A 
BRANCH  45  54
ATOM     51  N   UNL     1       4.838  -6.778  23.552  0.00  0.00    -0.325 N 
ATOM     52  H   UNL     1       5.488  -6.025  23.377  0.00  0.00    +0.145 HD
ATOM     53  H   UNL     1       4.358  -7.163  22.744  0.00  0.00    +0.145 HD
ATOM     54  C   UNL     1       4.359  -7.128  24.780  0.00  0.00    +0.247 C 
ATOM     55  O   UNL     1       3.415  -7.886  24.925  0.00  0.00    -0.270 OA
ENDBRANCH  45  54
ENDBRANCH  40  47
BRANCH  42  56
ATOM     56  O   UNL     1       7.999  -4.656  23.285  0.00  0.00    -0.386 OA
ATOM     57  H   UNL     1       8.584  -5.215  22.723  0.00  0.00    +0.210 HD
ENDBRANCH  42  56
BRANCH  41  58
ATOM     58  O   UNL     1      10.288  -5.611  25.749  0.00  0.00    -0.380 OA
ATOM     59  H   UNL     1      10.851  -4.813  25.621  0.00  0.00    +0.210 HD
ENDBRANCH  41  58
ENDBRANCH  39  43
ENDBRANCH  38  39
ENDBRANCH  35  38
ENDBRANCH  34  35
ENDBRANCH   1  34
TORSDOF 19
ENDMDL
MODEL 8
REMARK VINA RESULT:      -7.5      3.064      7.960
REMARK  Name = 
REMARK  19 active torsions:
REMARK  status: ('A' for Active; 'I' for Inactive)
REMARK    1  A    between atoms: C_2  and  C_4
REMARK    2  A    between atoms: N_8  and  C_10
REMARK    3  A    between atoms: C_13  and  C_15
REMARK    4  A    between atoms: C_15  and  O_16
REMARK    5  A    between atoms: O_16  and  P_17
REMARK    6  A    between atoms: P_17  and  O_20
REMARK    7  A    between atoms: O_20  and  P_21
REMARK    8  A    between atoms: P_21  and  O_22
REMARK    9  A    between atoms: P_21  and  O_24
REMARK   10  A    between atoms: O_24  and  C_25
REMARK   11  A    between atoms: C_25  and  C_26
REMARK   12  A    between atoms: C_29  and  N_41
REMARK   13  A    between atoms: C_31  and  O_33
REMARK   14  A    between atoms: O_33  and  P_34
REMARK   15  A    between atoms: P_34  and  O_35
REMARK   16  A    between atoms: P_34  and  O_36
REMARK   17  A    between atoms: C_38  and  O_40
REMARK   18  A    between atoms: C_52  and  O_54
REMARK   19  A    between atoms: C_55  and  O_57
REMARK                            x       y       z     vdW  Elec       q    Type
REMARK                         _______ _______ _______ _____ _____    ______ ____
ROOT
ATOM      1  P   UNL     1       8.677  -4.909  24.861  0.00  0.00    +0.480 P 
ATOM      2  O   UNL     1      10.156  -5.063  25.131  0.00  0.00    -0.227 OA
ENDROOT
BRANCH   1   3
ATOM      3  O   UNL     1       7.770  -5.722  25.904  0.00  0.00    -0.302 OA
ATOM      4  H   UNL     1       8.223  -5.837  26.765  0.00  0.00    +0.222 HD
ENDBRANCH   1   3
BRANCH   1   5
ATOM      5  O   UNL     1       8.183  -3.383  25.184  0.00  0.00    -0.284 OA
BRANCH   5   6
ATOM      6  C   UNL     1       9.289  -2.468  25.262  0.00  0.00    +0.206 C 
BRANCH   6   7
ATOM      7  C   UNL     1       9.408  -1.383  24.179  0.00  0.00    +0.178 C 
ATOM      8  C   UNL     1       8.241  -1.290  23.206  0.00  0.00    +0.179 C 
ATOM      9  C   UNL     1       7.475  -0.033  23.585  0.00  0.00    +0.211 C 
ATOM     10  C   UNL     1       8.279   0.554  24.743  0.00  0.00    +0.255 C 
ATOM     11  O   UNL     1       9.560  -0.095  24.783  0.00  0.00    -0.346 OA
BRANCH  10  12
ATOM     12  N   UNL     1       8.504   1.981  24.661  0.00  0.00    -0.274 N 
ATOM     13  C   UNL     1       8.016   2.931  25.525  0.00  0.00    +0.168 A 
ATOM     14  N   UNL     1       7.274   2.741  26.633  0.00  0.00    -0.216 NA
ATOM     15  C   UNL     1       7.004   3.938  27.225  0.00  0.00    +0.225 A 
ATOM     16  N   UNL     1       7.372   5.177  26.835  0.00  0.00    -0.219 NA
ATOM     17  C   UNL     1       8.099   5.303  25.705  0.00  0.00    +0.147 A 
ATOM     18  N   UNL     1       8.479   6.575  25.293  0.00  0.00    -0.341 N 
ATOM     19  H   UNL     1       9.277   6.573  24.667  0.00  0.00    +0.144 HD
ATOM     20  H   UNL     1       8.485   7.239  26.055  0.00  0.00    +0.144 HD
ATOM     21  C   UNL     1       8.460   4.138  25.007  0.00  0.00    +0.148 A 
ATOM     22  N   UNL     1       9.213   3.945  23.873  0.00  0.00    -0.216 NA
ATOM     23  C   UNL     1       9.222   2.641  23.692  0.00  0.00    +0.182 A 
ATOM     24 BR   UNL     1      10.125   1.862  22.242  0.00  0.00    -0.008 Br
ENDBRANCH  10  12
BRANCH   8  25
ATOM     25  O   UNL     1       8.737  -1.130  21.869  0.00  0.00    -0.386 OA
ATOM     26  H   UNL     1       9.452  -0.459  21.882  0.00  0.00    +0.210 HD
ENDBRANCH   8  25
BRANCH   9  27
ATOM     27  O   UNL     1       6.155  -0.332  24.026  0.00  0.00    -0.276 OA
BRANCH  27  28
ATOM     28  P   UNL     1       6.013  -0.714  25.707  0.00  0.00    +0.473 P 
ATOM     29  O   UNL     1       5.886  -1.055  27.212  0.00  0.00    -0.228 OA
BRANCH  28  30
ATOM     30  O   UNL     1       4.515  -0.072  25.567  0.00  0.00    -0.303 OA
ATOM     31  H   UNL     1       4.524   0.894  25.432  0.00  0.00    +0.222 HD
ENDBRANCH  28  30
BRANCH  28  32
ATOM     32  O   UNL     1       5.554  -2.205  25.216  0.00  0.00    -0.303 OA
ATOM     33  H   UNL     1       5.817  -2.257  24.276  0.00  0.00    +0.222 HD
ENDBRANCH  28  32
ENDBRANCH  27  28
ENDBRANCH   9  27
ENDBRANCH   6   7
ENDBRANCH   5   6
ENDBRANCH   1   5
BRANCH   1  34
ATOM     34  O   UNL     1       8.159  -5.394  23.449  0.00  0.00    -0.229 OA
BRANCH  34  35
ATOM     35  P   UNL     1       6.957  -4.874  22.318  0.00  0.00    +0.222 P 
ATOM     36  O   UNL     1       5.756  -4.355  21.187  0.00  0.00    -0.437 OA
ATOM     37  O   UNL     1       7.039  -6.313  21.785  0.00  0.00    -0.517 OA
BRANCH  35  38
ATOM     38  O   UNL     1       5.899  -4.905  23.585  0.00  0.00    -0.324 OA
BRANCH  38  39
ATOM     39  C   UNL     1       5.029  -6.003  23.704  0.00  0.00    +0.202 C 
BRANCH  39  43
ATOM     40  C   UNL     1       4.618  -5.111  27.191  0.00  0.00    +0.439 C 
ATOM     41  C   UNL     1       4.577  -6.629  27.341  0.00  0.00    +0.244 C 
ATOM     42  C   UNL     1       4.325  -7.140  25.924  0.00  0.00    +0.183 C 
ATOM     43  C   UNL     1       4.316  -5.884  25.033  0.00  0.00    +0.182 C 
ATOM     44  O   UNL     1       4.798  -4.780  25.811  0.00  0.00    -0.309 OA
BRANCH  40  47
ATOM     45  C   UNL     1       1.849  -2.620  27.620  0.00  0.00    +0.100 A 
ATOM     46  C   UNL     1       3.068  -3.200  27.276  0.00  0.00    +0.324 A 
ATOM     47  N   UNL     1       3.374  -4.456  27.689  0.00  0.00    -0.173 N 
ATOM     48  C   UNL     1       2.502  -5.130  28.485  0.00  0.00    +0.311 A 
ATOM     49  C   UNL     1       1.276  -4.596  28.837  0.00  0.00    +0.071 A 
ATOM     50  C   UNL     1       0.939  -3.325  28.404  0.00  0.00    +0.025 A 
BRANCH  45  54
ATOM     51  N   UNL     1       2.331  -0.235  27.712  0.00  0.00    -0.325 N 
ATOM     52  H   UNL     1       2.919  -0.331  28.528  0.00  0.00    +0.145 HD
ATOM     53  H   UNL     1       2.119   0.711  27.411  0.00  0.00    +0.145 HD
ATOM     54  C   UNL     1       1.594  -1.240  27.158  0.00  0.00    +0.247 C 
ATOM     55  O   UNL     1       0.732  -1.036  26.319  0.00  0.00    -0.270 OA
ENDBRANCH  45  54
ENDBRANCH  40  47
BRANCH  42  56
ATOM     56  O   UNL     1       3.029  -7.747  25.879  0.00  0.00    -0.386 OA
ATOM     57  H   UNL     1       2.627  -7.562  26.759  0.00  0.00    +0.210 HD
ENDBRANCH  42  56
BRANCH  41  58
ATOM     58  O   UNL     1       5.822  -7.106  27.883  0.00  0.00    -0.380 OA
ATOM     59  H   UNL     1       6.383  -6.335  28.128  0.00  0.00    +0.210 HD
ENDBRANCH  41  58
ENDBRANCH  39  43
ENDBRANCH  38  39
ENDBRANCH  35  38
ENDBRANCH  34  35
ENDBRANCH   1  34
TORSDOF 19
ENDMDL
MODEL 9
REMARK VINA RESULT:      -7.5      3.732      8.899
REMARK  Name = 
REMARK  19 active torsions:
REMARK  status: ('A' for Active; 'I' for Inactive)
REMARK    1  A    between atoms: C_2  and  C_4
REMARK    2  A    between atoms: N_8  and  C_10
REMARK    3  A    between atoms: C_13  and  C_15
REMARK    4  A    between atoms: C_15  and  O_16
REMARK    5  A    between atoms: O_16  and  P_17
REMARK    6  A    between atoms: P_17  and  O_20
REMARK    7  A    between atoms: O_20  and  P_21
REMARK    8  A    between atoms: P_21  and  O_22
REMARK    9  A    between atoms: P_21  and  O_24
REMARK   10  A    between atoms: O_24  and  C_25
REMARK   11  A    between atoms: C_25  and  C_26
REMARK   12  A    between atoms: C_29  and  N_41
REMARK   13  A    between atoms: C_31  and  O_33
REMARK   14  A    between atoms: O_33  and  P_34
REMARK   15  A    between atoms: P_34  and  O_35
REMARK   16  A    between atoms: P_34  and  O_36
REMARK   17  A    between atoms: C_38  and  O_40
REMARK   18  A    between atoms: C_52  and  O_54
REMARK   19  A    between atoms: C_55  and  O_57
REMARK                            x       y       z     vdW  Elec       q    Type
REMARK                         _______ _______ _______ _____ _____    ______ ____
ROOT
ATOM      1  P   UNL     1       3.793  -0.606  27.005  0.00  0.00    +0.480 P 
ATOM      2  O   UNL     1       3.831   0.807  26.470  0.00  0.00    -0.227 OA
ENDROOT
BRANCH   1   3
ATOM      3  O   UNL     1       4.088  -1.704  25.874  0.00  0.00    -0.302 OA
ATOM      4  H   UNL     1       5.050  -1.815  25.720  0.00  0.00    +0.222 HD
ENDBRANCH   1   3
BRANCH   1   5
ATOM      5  O   UNL     1       5.056  -0.882  28.007  0.00  0.00    -0.284 OA
BRANCH   5   6
ATOM      6  C   UNL     1       5.672   0.342  28.442  0.00  0.00    +0.206 C 
BRANCH   6   7
ATOM      7  C   UNL     1       7.066   0.687  27.891  0.00  0.00    +0.178 C 
ATOM      8  C   UNL     1       7.627  -0.283  26.860  0.00  0.00    +0.179 C 
ATOM      9  C   UNL     1       7.539   0.428  25.520  0.00  0.00    +0.211 C 
ATOM     10  C   UNL     1       6.963   1.800  25.867  0.00  0.00    +0.255 C 
ATOM     11  O   UNL     1       7.052   1.985  27.288  0.00  0.00    -0.346 OA
BRANCH  10  12
ATOM     12  N   UNL     1       7.628   2.914  25.229  0.00  0.00    -0.274 N 
ATOM     13  C   UNL     1       8.870   2.890  24.641  0.00  0.00    +0.168 A 
ATOM     14  N   UNL     1       9.699   1.838  24.498  0.00  0.00    -0.216 NA
ATOM     15  C   UNL     1      10.832   2.221  23.845  0.00  0.00    +0.225 A 
ATOM     16  N   UNL     1      11.167   3.444  23.380  0.00  0.00    -0.219 NA
ATOM     17  C   UNL     1      10.302   4.461  23.571  0.00  0.00    +0.147 A 
ATOM     18  N   UNL     1      10.641   5.723  23.099  0.00  0.00    -0.341 N 
ATOM     19  H   UNL     1       9.840   6.332  22.969  0.00  0.00    +0.144 HD
ATOM     20  H   UNL     1      11.324   5.684  22.355  0.00  0.00    +0.144 HD
ATOM     21  C   UNL     1       9.085   4.192  24.219  0.00  0.00    +0.148 A 
ATOM     22  N   UNL     1       8.008   4.994  24.516  0.00  0.00    -0.216 NA
ATOM     23  C   UNL     1       7.151   4.198  25.120  0.00  0.00    +0.182 A 
ATOM     24 BR   UNL     1       5.497   4.835  25.742  0.00  0.00    -0.008 Br
ENDBRANCH  10  12
BRANCH   8  25
ATOM     25  O   UNL     1       9.009  -0.543  27.144  0.00  0.00    -0.386 OA
ATOM     26  H   UNL     1       9.060  -1.270  27.801  0.00  0.00    +0.210 HD
ENDBRANCH   8  25
BRANCH   9  27
ATOM     27  O   UNL     1       6.662  -0.244  24.623  0.00  0.00    -0.276 OA
BRANCH  27  28
ATOM     28  P   UNL     1       7.438  -1.029  23.291  0.00  0.00    +0.473 P 
ATOM     29  O   UNL     1       8.134  -1.732  22.099  0.00  0.00    -0.228 OA
BRANCH  28  30
ATOM     30  O   UNL     1       7.513   0.473  22.650  0.00  0.00    -0.303 OA
ATOM     31  H   UNL     1       8.418   0.835  22.627  0.00  0.00    +0.222 HD
ENDBRANCH  28  30
BRANCH  28  32
ATOM     32  O   UNL     1       8.823  -0.867  24.147  0.00  0.00    -0.303 OA
ATOM     33  H   UNL     1       8.786  -1.568  24.827  0.00  0.00    +0.222 HD
ENDBRANCH  28  32
ENDBRANCH  27  28
ENDBRANCH   9  27
ENDBRANCH   6   7
ENDBRANCH   5   6
ENDBRANCH   1   5
BRANCH   1  34
ATOM     34  O   UNL     1       2.433  -1.084  27.652  0.00  0.00    -0.229 OA
BRANCH  34  35
ATOM     35  P   UNL     1       1.931  -2.380  28.682  0.00  0.00    +0.222 P 
ATOM     36  O   UNL     1       1.430  -3.675  29.713  0.00  0.00    -0.437 OA
ATOM     37  O   UNL     1       0.619  -1.590  28.803  0.00  0.00    -0.517 OA
BRANCH  35  38
ATOM     38  O   UNL     1       1.806  -3.287  27.308  0.00  0.00    -0.324 OA
BRANCH  38  39
ATOM     39  C   UNL     1       2.083  -4.663  27.387  0.00  0.00    +0.202 C 
BRANCH  39  43
ATOM     40  C   UNL     1       4.932  -6.494  26.100  0.00  0.00    +0.439 C 
ATOM     41  C   UNL     1       5.451  -6.233  27.511  0.00  0.00    +0.244 C 
ATOM     42  C   UNL     1       4.547  -5.124  28.045  0.00  0.00    +0.183 C 
ATOM     43  C   UNL     1       3.512  -4.871  26.934  0.00  0.00    +0.182 C 
ATOM     44  O   UNL     1       3.627  -5.924  25.967  0.00  0.00    -0.309 OA
BRANCH  40  47
ATOM     45  C   UNL     1       7.973  -5.116  24.393  0.00  0.00    +0.100 A 
ATOM     46  C   UNL     1       7.081  -5.530  25.379  0.00  0.00    +0.324 A 
ATOM     47  N   UNL     1       5.822  -5.918  25.050  0.00  0.00    -0.173 N 
ATOM     48  C   UNL     1       5.419  -5.854  23.754  0.00  0.00    +0.311 A 
ATOM     49  C   UNL     1       6.279  -5.463  22.743  0.00  0.00    +0.071 A 
ATOM     50  C   UNL     1       7.572  -5.086  23.059  0.00  0.00    +0.025 A 
BRANCH  45  54
ATOM     51  N   UNL     1      10.004  -5.495  25.681  0.00  0.00    -0.325 N 
ATOM     52  H   UNL     1       9.609  -6.283  26.173  0.00  0.00    +0.145 HD
ATOM     53  H   UNL     1      10.911  -5.168  25.998  0.00  0.00    +0.145 HD
ATOM     54  C   UNL     1       9.318  -4.683  24.826  0.00  0.00    +0.247 C 
ATOM     55  O   UNL     1       9.765  -3.621  24.429  0.00  0.00    -0.270 OA
ENDBRANCH  45  54
ENDBRANCH  40  47
BRANCH  42  56
ATOM     56  O   UNL     1       5.332  -3.939  28.224  0.00  0.00    -0.386 OA
ATOM     57  H   UNL     1       6.172  -4.112  27.741  0.00  0.00    +0.210 HD
ENDBRANCH  42  56
BRANCH  41  58
ATOM     58  O   UNL     1       5.369  -7.435  28.297  0.00  0.00    -0.380 OA
ATOM     59  H   UNL     1       5.332  -8.213  27.695  0.00  0.00    +0.210 HD
ENDBRANCH  41  58
ENDBRANCH  39  43
ENDBRANCH  38  39
ENDBRANCH  35  38
ENDBRANCH  34  35
ENDBRANCH   1  34
TORSDOF 19
ENDMDL
