MODEL 1
REMARK VINA RESULT:      -7.8      0.000      0.000
REMARK  Name = 
REMARK  5 active torsions:
REMARK  status: ('A' for Active; 'I' for Inactive)
REMARK    1  A    between atoms: C_2  and  C_4
REMARK    2  A    between atoms: C_9  and  C_14
REMARK    3  A    between atoms: N_16  and  C_17
REMARK    4  A    between atoms: C_21  and  O_22
REMARK    5  A    between atoms: O_22  and  C_23
REMARK                            x       y       z     vdW  Elec       q    Type
REMARK                         _______ _______ _______ _____ _____    ______ ____
ROOT
ATOM      1  C   UNL     1       3.204  -7.210  24.972  0.00  0.00    +0.065 A 
ATOM      2  C   UNL     1       3.132  -6.654  23.693  0.00  0.00    +0.016 A 
ATOM      3  C   UNL     1       4.128  -5.776  23.265  0.00  0.00    +0.009 A 
ATOM      4  C   UNL     1       5.209  -5.458  24.100  0.00  0.00    -0.017 A 
ATOM      5  C   UNL     1       5.296  -6.028  25.390  0.00  0.00    -0.017 A 
ATOM      6  C   UNL     1       6.397  -5.709  26.207  0.00  0.00    +0.009 A 
ATOM      7  C   UNL     1       7.398  -4.832  25.764  0.00  0.00    +0.013 A 
ATOM      8  C   UNL     1       7.299  -4.258  24.495  0.00  0.00    +0.038 A 
ATOM      9  C   UNL     1       6.204  -4.569  23.676  0.00  0.00    +0.021 A 
ATOM     10  C   UNL     1       4.273  -6.891  25.820  0.00  0.00    +0.024 A 
ENDROOT
BRANCH   1  14
ATOM     11  N   UNL     1       0.989  -7.636  25.992  0.00  0.00    -0.247 N 
ATOM     12  H   UNL     1       0.734  -6.699  25.696  0.00  0.00    +0.288 HD
ATOM     13  H   UNL     1       0.190  -8.259  25.976  0.00  0.00    +0.288 HD
ATOM     14  C   UNL     1       2.135  -8.135  25.443  0.00  0.00    +0.308 C 
ATOM     15  N   UNL     1       2.296  -9.410  25.311  0.00  0.00    -0.099 NA
ATOM     16  H   UNL     1       1.501  -9.901  25.723  0.00  0.00    +0.363 HD
ENDBRANCH   1  14
BRANCH   8  17
ATOM     17  C   UNL     1       8.276  -3.266  23.963  0.00  0.00    +0.248 C 
ATOM     18  N   UNL     1       7.755  -2.066  23.504  0.00  0.00    -0.281 N 
ATOM     19  H   UNL     1       6.755  -1.934  23.566  0.00  0.00    +0.155 HD
ATOM     20  O   UNL     1       9.461  -3.574  24.017  0.00  0.00    -0.270 OA
BRANCH  18  21
ATOM     21  C   UNL     1       8.504  -0.952  23.044  0.00  0.00    +0.037 A 
ATOM     22  C   UNL     1       8.704   0.116  23.933  0.00  0.00    +0.069 A 
ATOM     23  C   UNL     1       9.454   1.235  23.546  0.00  0.00    +0.123 A 
ATOM     24  C   UNL     1       9.981   1.302  22.257  0.00  0.00    +0.046 A 
ATOM     25  C   UNL     1       9.792   0.250  21.369  0.00  0.00    +0.005 A 
ATOM     26  C   UNL     1       9.057  -0.870  21.763  0.00  0.00    +0.023 A 
BRANCH  23  27
ATOM     27  O   UNL     1       9.699   2.337  24.315  0.00  0.00    -0.489 OA
BRANCH  27  28
ATOM     28  C   UNL     1       9.751   3.596  23.658  0.00  0.00    +0.173 C 
ATOM     29  C   UNL     1      11.173   4.160  23.623  0.00  0.00    +0.044 C 
ATOM     30  C   UNL     1      11.038   5.671  23.811  0.00  0.00    +0.004 C 
ATOM     31  C   UNL     1       9.553   5.945  24.012  0.00  0.00    +0.004 C 
ATOM     32  C   UNL     1       8.994   4.622  24.501  0.00  0.00    +0.044 C 
ENDBRANCH  27  28
ENDBRANCH  23  27
ENDBRANCH  18  21
ENDBRANCH   8  17
TORSDOF 5
ENDMDL
MODEL 2
REMARK VINA RESULT:      -7.8      2.754     10.341
REMARK  Name = 
REMARK  5 active torsions:
REMARK  status: ('A' for Active; 'I' for Inactive)
REMARK    1  A    between atoms: C_2  and  C_4
REMARK    2  A    between atoms: C_9  and  C_14
REMARK    3  A    between atoms: N_16  and  C_17
REMARK    4  A    between atoms: C_21  and  O_22
REMARK    5  A    between atoms: O_22  and  C_23
REMARK                            x       y       z     vdW  Elec       q    Type
REMARK                         _______ _______ _______ _____ _____    ______ ____
ROOT
ATOM      1  C   UNL     1       9.846   2.676  23.819  0.00  0.00    +0.065 A 
ATOM      2  C   UNL     1       8.892   2.546  24.830  0.00  0.00    +0.016 A 
ATOM      3  C   UNL     1       8.442   1.278  25.196  0.00  0.00    +0.009 A 
ATOM      4  C   UNL     1       8.951   0.130  24.570  0.00  0.00    -0.017 A 
ATOM      5  C   UNL     1       9.929   0.254  23.557  0.00  0.00    -0.017 A 
ATOM      6  C   UNL     1      10.439  -0.911  22.952  0.00  0.00    +0.009 A 
ATOM      7  C   UNL     1       9.988  -2.183  23.334  0.00  0.00    +0.013 A 
ATOM      8  C   UNL     1       9.010  -2.299  24.324  0.00  0.00    +0.038 A 
ATOM      9  C   UNL     1       8.495  -1.144  24.929  0.00  0.00    +0.021 A 
ATOM     10  C   UNL     1      10.353   1.539  23.179  0.00  0.00    +0.024 A 
ENDROOT
BRANCH   1  14
ATOM     11  N   UNL     1       9.458   5.090  23.430  0.00  0.00    -0.247 N 
ATOM     12  H   UNL     1       8.685   5.015  24.084  0.00  0.00    +0.288 HD
ATOM     13  H   UNL     1       9.893   6.004  23.476  0.00  0.00    +0.288 HD
ATOM     14  C   UNL     1      10.317   4.029  23.411  0.00  0.00    +0.308 C 
ATOM     15  N   UNL     1      11.548   4.192  23.054  0.00  0.00    -0.099 NA
ATOM     16  H   UNL     1      11.696   5.159  22.761  0.00  0.00    +0.363 HD
ENDBRANCH   1  14
BRANCH   8  17
ATOM     17  C   UNL     1       8.421  -3.600  24.748  0.00  0.00    +0.248 C 
ATOM     18  N   UNL     1       7.210  -3.544  25.421  0.00  0.00    -0.281 N 
ATOM     19  H   UNL     1       6.798  -2.634  25.572  0.00  0.00    +0.155 HD
ATOM     20  O   UNL     1       9.032  -4.614  24.430  0.00  0.00    -0.270 OA
BRANCH  18  21
ATOM     21  C   UNL     1       6.430  -4.657  25.833  0.00  0.00    +0.037 A 
ATOM     22  C   UNL     1       5.727  -5.367  24.847  0.00  0.00    +0.069 A 
ATOM     23  C   UNL     1       4.959  -6.487  25.188  0.00  0.00    +0.123 A 
ATOM     24  C   UNL     1       4.868  -6.884  26.521  0.00  0.00    +0.046 A 
ATOM     25  C   UNL     1       5.561  -6.192  27.506  0.00  0.00    +0.005 A 
ATOM     26  C   UNL     1       6.338  -5.084  27.161  0.00  0.00    +0.023 A 
BRANCH  23  27
ATOM     27  O   UNL     1       4.220  -7.243  24.322  0.00  0.00    -0.489 OA
BRANCH  27  28
ATOM     28  C   UNL     1       2.823  -6.987  24.256  0.00  0.00    +0.173 C 
ATOM     29  C   UNL     1       2.031  -8.248  23.906  0.00  0.00    +0.044 C 
ATOM     30  C   UNL     1       0.888  -7.795  22.997  0.00  0.00    +0.004 C 
ATOM     31  C   UNL     1       1.076  -6.298  22.789  0.00  0.00    +0.004 C 
ATOM     32  C   UNL     1       2.549  -6.066  23.068  0.00  0.00    +0.044 C 
ENDBRANCH  27  28
ENDBRANCH  23  27
ENDBRANCH  18  21
ENDBRANCH   8  17
TORSDOF 5
ENDMDL
MODEL 3
REMARK VINA RESULT:      -7.7      1.579      1.888
REMARK  Name = 
REMARK  5 active torsions:
REMARK  status: ('A' for Active; 'I' for Inactive)
REMARK    1  A    between atoms: C_2  and  C_4
REMARK    2  A    between atoms: C_9  and  C_14
REMARK    3  A    between atoms: N_16  and  C_17
REMARK    4  A    between atoms: C_21  and  O_22
REMARK    5  A    between atoms: O_22  and  C_23
REMARK                            x       y       z     vdW  Elec       q    Type
REMARK                         _______ _______ _______ _____ _____    ______ ____
ROOT
ATOM      1  C   UNL     1       3.661  -6.788  24.261  0.00  0.00    +0.065 A 
ATOM      2  C   UNL     1       3.617  -5.754  23.323  0.00  0.00    +0.016 A 
ATOM      3  C   UNL     1       4.505  -4.684  23.432  0.00  0.00    +0.009 A 
ATOM      4  C   UNL     1       5.454  -4.644  24.464  0.00  0.00    -0.017 A 
ATOM      5  C   UNL     1       5.515  -5.695  25.408  0.00  0.00    -0.017 A 
ATOM      6  C   UNL     1       6.484  -5.644  26.427  0.00  0.00    +0.009 A 
ATOM      7  C   UNL     1       7.380  -4.569  26.523  0.00  0.00    +0.013 A 
ATOM      8  C   UNL     1       7.305  -3.526  25.598  0.00  0.00    +0.038 A 
ATOM      9  C   UNL     1       6.340  -3.567  24.582  0.00  0.00    +0.021 A 
ATOM     10  C   UNL     1       4.596  -6.754  25.303  0.00  0.00    +0.024 A 
ENDROOT
BRANCH   1  14
ATOM     11  N   UNL     1       1.959  -8.097  23.030  0.00  0.00    -0.247 N 
ATOM     12  H   UNL     1       2.361  -7.716  22.179  0.00  0.00    +0.288 HD
ATOM     13  H   UNL     1       1.598  -9.032  22.882  0.00  0.00    +0.288 HD
ATOM     14  C   UNL     1       2.704  -7.924  24.161  0.00  0.00    +0.308 C 
ATOM     15  N   UNL     1       2.596  -8.753  25.146  0.00  0.00    -0.099 NA
ATOM     16  H   UNL     1       1.869  -9.440  24.940  0.00  0.00    +0.363 HD
ENDBRANCH   1  14
BRANCH   8  17
ATOM     17  C   UNL     1       8.167  -2.312  25.658  0.00  0.00    +0.248 C 
ATOM     18  N   UNL     1       8.254  -1.554  24.500  0.00  0.00    -0.281 N 
ATOM     19  H   UNL     1       7.725  -1.862  23.696  0.00  0.00    +0.155 HD
ATOM     20  O   UNL     1       8.692  -2.059  26.736  0.00  0.00    -0.270 OA
BRANCH  18  21
ATOM     21  C   UNL     1       8.939  -0.319  24.359  0.00  0.00    +0.037 A 
ATOM     22  C   UNL     1       8.185   0.863  24.436  0.00  0.00    +0.069 A 
ATOM     23  C   UNL     1       8.806   2.113  24.327  0.00  0.00    +0.123 A 
ATOM     24  C   UNL     1      10.182   2.186  24.111  0.00  0.00    +0.046 A 
ATOM     25  C   UNL     1      10.940   1.024  24.036  0.00  0.00    +0.005 A 
ATOM     26  C   UNL     1      10.320  -0.221  24.159  0.00  0.00    +0.023 A 
BRANCH  23  27
ATOM     27  O   UNL     1       8.176   3.325  24.369  0.00  0.00    -0.489 OA
BRANCH  27  28
ATOM     28  C   UNL     1       8.480   4.257  23.340  0.00  0.00    +0.173 C 
ATOM     29  C   UNL     1       8.955   5.596  23.909  0.00  0.00    +0.044 C 
ATOM     30  C   UNL     1       8.377   6.676  22.995  0.00  0.00    +0.004 C 
ATOM     31  C   UNL     1       7.532   5.950  21.956  0.00  0.00    +0.004 C 
ATOM     32  C   UNL     1       7.186   4.629  22.617  0.00  0.00    +0.044 C 
ENDBRANCH  27  28
ENDBRANCH  23  27
ENDBRANCH  18  21
ENDBRANCH   8  17
TORSDOF 5
ENDMDL
MODEL 4
REMARK VINA RESULT:      -7.6      2.921     10.060
REMARK  Name = 
REMARK  5 active torsions:
REMARK  status: ('A' for Active; 'I' for Inactive)
REMARK    1  A    between atoms: C_2  and  C_4
REMARK    2  A    between atoms: C_9  and  C_14
REMARK    3  A    between atoms: N_16  and  C_17
REMARK    4  A    between atoms: C_21  and  O_22
REMARK    5  A    between atoms: O_22  and  C_23
REMARK                            x       y       z     vdW  Elec       q    Type
REMARK                         _______ _______ _______ _____ _____    ______ ____
ROOT
ATOM      1  C   UNL     1       9.790   3.006  23.590  0.00  0.00    +0.065 A 
ATOM      2  C   UNL     1       8.991   2.758  24.707  0.00  0.00    +0.016 A 
ATOM      3  C   UNL     1       8.529   1.465  24.953  0.00  0.00    +0.009 A 
ATOM      4  C   UNL     1       8.872   0.408  24.098  0.00  0.00    -0.017 A 
ATOM      5  C   UNL     1       9.694   0.649  22.973  0.00  0.00    -0.017 A 
ATOM      6  C   UNL     1      10.042  -0.428  22.136  0.00  0.00    +0.009 A 
ATOM      7  C   UNL     1       9.581  -1.727  22.396  0.00  0.00    +0.013 A 
ATOM      8  C   UNL     1       8.755  -1.957  23.499  0.00  0.00    +0.038 A 
ATOM      9  C   UNL     1       8.402  -0.889  24.336  0.00  0.00    +0.021 A 
ATOM     10  C   UNL     1      10.131   1.961  22.722  0.00  0.00    +0.024 A 
ENDROOT
BRANCH   1  14
ATOM     11  N   UNL     1       9.383   5.419  23.220  0.00  0.00    -0.247 N 
ATOM     12  H   UNL     1       8.514   5.295  23.730  0.00  0.00    +0.288 HD
ATOM     13  H   UNL     1       9.769   6.344  23.368  0.00  0.00    +0.288 HD
ATOM     14  C   UNL     1      10.272   4.388  23.312  0.00  0.00    +0.308 C 
ATOM     15  N   UNL     1      11.539   4.603  23.176  0.00  0.00    -0.099 NA
ATOM     16  H   UNL     1      11.698   5.585  22.944  0.00  0.00    +0.363 HD
ENDBRANCH   1  14
BRANCH   8  17
ATOM     17  C   UNL     1       8.163  -3.286  23.819  0.00  0.00    +0.248 C 
ATOM     18  N   UNL     1       6.787  -3.328  23.990  0.00  0.00    -0.281 N 
ATOM     19  H   UNL     1       6.274  -2.465  23.879  0.00  0.00    +0.155 HD
ATOM     20  O   UNL     1       8.932  -4.239  23.860  0.00  0.00    -0.270 OA
BRANCH  18  21
ATOM     21  C   UNL     1       6.007  -4.494  24.208  0.00  0.00    +0.037 A 
ATOM     22  C   UNL     1       6.085  -5.110  25.467  0.00  0.00    +0.069 A 
ATOM     23  C   UNL     1       5.323  -6.251  25.750  0.00  0.00    +0.123 A 
ATOM     24  C   UNL     1       4.502  -6.796  24.765  0.00  0.00    +0.046 A 
ATOM     25  C   UNL     1       4.414  -6.194  23.516  0.00  0.00    +0.005 A 
ATOM     26  C   UNL     1       5.163  -5.049  23.241  0.00  0.00    +0.023 A 
BRANCH  23  27
ATOM     27  O   UNL     1       5.329  -6.943  26.928  0.00  0.00    -0.489 OA
BRANCH  27  28
ATOM     28  C   UNL     1       5.176  -6.197  28.128  0.00  0.00    +0.173 C 
ATOM     29  C   UNL     1       6.375  -6.371  29.062  0.00  0.00    +0.044 C 
ATOM     30  C   UNL     1       5.809  -6.396  30.482  0.00  0.00    +0.004 C 
ATOM     31  C   UNL     1       4.295  -6.299  30.340  0.00  0.00    +0.004 C 
ATOM     32  C   UNL     1       4.022  -6.794  28.933  0.00  0.00    +0.044 C 
ENDBRANCH  27  28
ENDBRANCH  23  27
ENDBRANCH  18  21
ENDBRANCH   8  17
TORSDOF 5
ENDMDL
MODEL 5
REMARK VINA RESULT:      -7.5      3.123     10.560
REMARK  Name = 
REMARK  5 active torsions:
REMARK  status: ('A' for Active; 'I' for Inactive)
REMARK    1  A    between atoms: C_2  and  C_4
REMARK    2  A    between atoms: C_9  and  C_14
REMARK    3  A    between atoms: N_16  and  C_17
REMARK    4  A    between atoms: C_21  and  O_22
REMARK    5  A    between atoms: O_22  and  C_23
REMARK                            x       y       z     vdW  Elec       q    Type
REMARK                         _______ _______ _______ _____ _____    ______ ____
ROOT
ATOM      1  C   UNL     1      10.250   4.158  23.734  0.00  0.00    +0.065 A 
ATOM      2  C   UNL     1       8.857   4.175  23.838  0.00  0.00    +0.016 A 
ATOM      3  C   UNL     1       8.157   2.972  23.937  0.00  0.00    +0.009 A 
ATOM      4  C   UNL     1       8.839   1.746  23.951  0.00  0.00    -0.017 A 
ATOM      5  C   UNL     1      10.250   1.723  23.862  0.00  0.00    -0.017 A 
ATOM      6  C   UNL     1      10.917   0.483  23.894  0.00  0.00    +0.009 A 
ATOM      7  C   UNL     1      10.206  -0.720  24.004  0.00  0.00    +0.013 A 
ATOM      8  C   UNL     1       8.811  -0.692  24.075  0.00  0.00    +0.038 A 
ATOM      9  C   UNL     1       8.139   0.538  24.041  0.00  0.00    +0.021 A 
ATOM     10  C   UNL     1      10.941   2.940  23.735  0.00  0.00    +0.024 A 
ENDROOT
BRANCH   1  14
ATOM     11  N   UNL     1      11.956   5.582  22.644  0.00  0.00    -0.247 N 
ATOM     12  H   UNL     1      11.837   4.999  21.821  0.00  0.00    +0.288 HD
ATOM     13  H   UNL     1      12.180   6.537  22.391  0.00  0.00    +0.288 HD
ATOM     14  C   UNL     1      11.002   5.438  23.609  0.00  0.00    +0.308 C 
ATOM     15  N   UNL     1      10.732   6.413  24.412  0.00  0.00    -0.099 NA
ATOM     16  H   UNL     1      11.363   7.195  24.228  0.00  0.00    +0.363 HD
ENDBRANCH   1  14
BRANCH   8  17
ATOM     17  C   UNL     1       7.967  -1.919  24.126  0.00  0.00    +0.248 C 
ATOM     18  N   UNL     1       7.583  -2.460  22.909  0.00  0.00    -0.281 N 
ATOM     19  H   UNL     1       7.905  -2.001  22.068  0.00  0.00    +0.155 HD
ATOM     20  O   UNL     1       7.718  -2.373  25.237  0.00  0.00    -0.270 OA
BRANCH  18  21
ATOM     21  C   UNL     1       6.860  -3.668  22.722  0.00  0.00    +0.037 A 
ATOM     22  C   UNL     1       5.476  -3.648  22.958  0.00  0.00    +0.069 A 
ATOM     23  C   UNL     1       4.705  -4.801  22.770  0.00  0.00    +0.123 A 
ATOM     24  C   UNL     1       5.319  -5.987  22.372  0.00  0.00    +0.046 A 
ATOM     25  C   UNL     1       6.687  -6.019  22.132  0.00  0.00    +0.005 A 
ATOM     26  C   UNL     1       7.452  -4.864  22.306  0.00  0.00    +0.023 A 
BRANCH  23  27
ATOM     27  O   UNL     1       3.359  -4.907  22.985  0.00  0.00    -0.489 OA
BRANCH  27  28
ATOM     28  C   UNL     1       2.848  -6.188  23.325  0.00  0.00    +0.173 C 
ATOM     29  C   UNL     1       1.526  -6.480  22.612  0.00  0.00    +0.044 C 
ATOM     30  C   UNL     1       0.666  -7.254  23.611  0.00  0.00    +0.004 C 
ATOM     31  C   UNL     1       1.477  -7.342  24.897  0.00  0.00    +0.004 C 
ATOM     32  C   UNL     1       2.451  -6.182  24.801  0.00  0.00    +0.044 C 
ENDBRANCH  27  28
ENDBRANCH  23  27
ENDBRANCH  18  21
ENDBRANCH   8  17
TORSDOF 5
ENDMDL
MODEL 6
REMARK VINA RESULT:      -7.2      1.679      2.273
REMARK  Name = 
REMARK  5 active torsions:
REMARK  status: ('A' for Active; 'I' for Inactive)
REMARK    1  A    between atoms: C_2  and  C_4
REMARK    2  A    between atoms: C_9  and  C_14
REMARK    3  A    between atoms: N_16  and  C_17
REMARK    4  A    between atoms: C_21  and  O_22
REMARK    5  A    between atoms: O_22  and  C_23
REMARK                            x       y       z     vdW  Elec       q    Type
REMARK                         _______ _______ _______ _____ _____    ______ ____
ROOT
ATOM      1  C   UNL     1       3.450  -6.696  24.452  0.00  0.00    +0.065 A 
ATOM      2  C   UNL     1       3.203  -5.462  25.057  0.00  0.00    +0.016 A 
ATOM      3  C   UNL     1       4.058  -4.388  24.810  0.00  0.00    +0.009 A 
ATOM      4  C   UNL     1       5.154  -4.530  23.946  0.00  0.00    -0.017 A 
ATOM      5  C   UNL     1       5.401  -5.771  23.318  0.00  0.00    -0.017 A 
ATOM      6  C   UNL     1       6.497  -5.889  22.441  0.00  0.00    +0.009 A 
ATOM      7  C   UNL     1       7.345  -4.801  22.191  0.00  0.00    +0.013 A 
ATOM      8  C   UNL     1       7.107  -3.581  22.827  0.00  0.00    +0.038 A 
ATOM      9  C   UNL     1       6.019  -3.457  23.704  0.00  0.00    +0.021 A 
ATOM     10  C   UNL     1       4.548  -6.853  23.596  0.00  0.00    +0.024 A 
ENDROOT
BRANCH   1  14
ATOM     11  N   UNL     1       2.224  -8.177  26.010  0.00  0.00    -0.247 N 
ATOM     12  H   UNL     1       2.259  -7.412  26.677  0.00  0.00    +0.288 HD
ATOM     13  H   UNL     1       1.378  -8.724  26.120  0.00  0.00    +0.288 HD
ATOM     14  C   UNL     1       2.552  -7.852  24.726  0.00  0.00    +0.308 C 
ATOM     15  N   UNL     1       2.074  -8.533  23.737  0.00  0.00    -0.099 NA
ATOM     16  H   UNL     1       1.520  -9.314  24.093  0.00  0.00    +0.363 HD
ENDBRANCH   1  14
BRANCH   8  17
ATOM     17  C   UNL     1       7.989  -2.390  22.677  0.00  0.00    +0.248 C 
ATOM     18  N   UNL     1       8.068  -1.534  23.765  0.00  0.00    -0.281 N 
ATOM     19  H   UNL     1       7.535  -1.772  24.590  0.00  0.00    +0.155 HD
ATOM     20  O   UNL     1       8.606  -2.288  21.623  0.00  0.00    -0.270 OA
BRANCH  18  21
ATOM     21  C   UNL     1       8.911  -0.397  23.874  0.00  0.00    +0.037 A 
ATOM     22  C   UNL     1       8.529   0.772  23.196  0.00  0.00    +0.069 A 
ATOM     23  C   UNL     1       9.307   1.933  23.283  0.00  0.00    +0.123 A 
ATOM     24  C   UNL     1      10.486   1.921  24.026  0.00  0.00    +0.046 A 
ATOM     25  C   UNL     1      10.874   0.772  24.704  0.00  0.00    +0.005 A 
ATOM     26  C   UNL     1      10.088  -0.380  24.628  0.00  0.00    +0.023 A 
BRANCH  23  27
ATOM     27  O   UNL     1       9.046   3.118  22.655  0.00  0.00    -0.489 OA
BRANCH  27  28
ATOM     28  C   UNL     1       8.149   4.015  23.295  0.00  0.00    +0.173 C 
ATOM     29  C   UNL     1       7.061   4.508  22.339  0.00  0.00    +0.044 C 
ATOM     30  C   UNL     1       6.807   5.972  22.700  0.00  0.00    +0.004 C 
ATOM     31  C   UNL     1       7.791   6.314  23.811  0.00  0.00    +0.004 C 
ATOM     32  C   UNL     1       8.903   5.296  23.649  0.00  0.00    +0.044 C 
ENDBRANCH  27  28
ENDBRANCH  23  27
ENDBRANCH  18  21
ENDBRANCH   8  17
TORSDOF 5
ENDMDL
MODEL 7
REMARK VINA RESULT:      -7.0      3.011     10.418
REMARK  Name = 
REMARK  5 active torsions:
REMARK  status: ('A' for Active; 'I' for Inactive)
REMARK    1  A    between atoms: C_2  and  C_4
REMARK    2  A    between atoms: C_9  and  C_14
REMARK    3  A    between atoms: N_16  and  C_17
REMARK    4  A    between atoms: C_21  and  O_22
REMARK    5  A    between atoms: O_22  and  C_23
REMARK                            x       y       z     vdW  Elec       q    Type
REMARK                         _______ _______ _______ _____ _____    ______ ____
ROOT
ATOM      1  C   UNL     1      10.367   4.262  23.616  0.00  0.00    +0.065 A 
ATOM      2  C   UNL     1       8.983   4.448  23.627  0.00  0.00    +0.016 A 
ATOM      3  C   UNL     1       8.136   3.340  23.604  0.00  0.00    +0.009 A 
ATOM      4  C   UNL     1       8.660   2.039  23.585  0.00  0.00    -0.017 A 
ATOM      5  C   UNL     1      10.060   1.843  23.589  0.00  0.00    -0.017 A 
ATOM      6  C   UNL     1      10.567   0.529  23.587  0.00  0.00    +0.009 A 
ATOM      7  C   UNL     1       9.708  -0.579  23.572  0.00  0.00    +0.013 A 
ATOM      8  C   UNL     1       8.326  -0.380  23.552  0.00  0.00    +0.038 A 
ATOM      9  C   UNL     1       7.814   0.926  23.551  0.00  0.00    +0.021 A 
ATOM     10  C   UNL     1      10.902   2.968  23.586  0.00  0.00    +0.024 A 
ENDROOT
BRANCH   1  14
ATOM     11  N   UNL     1      12.252   5.561  22.677  0.00  0.00    -0.247 N 
ATOM     12  H   UNL     1      12.070   5.086  21.798  0.00  0.00    +0.288 HD
ATOM     13  H   UNL     1      12.599   6.501  22.524  0.00  0.00    +0.288 HD
ATOM     14  C   UNL     1      11.276   5.441  23.624  0.00  0.00    +0.308 C 
ATOM     15  N   UNL     1      11.123   6.356  24.523  0.00  0.00    -0.099 NA
ATOM     16  H   UNL     1      11.850   7.066  24.420  0.00  0.00    +0.363 HD
ENDBRANCH   1  14
BRANCH   8  17
ATOM     17  C   UNL     1       7.337  -1.491  23.468  0.00  0.00    +0.248 C 
ATOM     18  N   UNL     1       7.820  -2.723  23.055  0.00  0.00    -0.281 N 
ATOM     19  H   UNL     1       8.806  -2.795  22.846  0.00  0.00    +0.155 HD
ATOM     20  O   UNL     1       6.189  -1.236  23.814  0.00  0.00    -0.270 OA
BRANCH  18  21
ATOM     21  C   UNL     1       7.079  -3.932  22.992  0.00  0.00    +0.037 A 
ATOM     22  C   UNL     1       6.552  -4.442  24.189  0.00  0.00    +0.069 A 
ATOM     23  C   UNL     1       5.793  -5.620  24.189  0.00  0.00    +0.123 A 
ATOM     24  C   UNL     1       5.584  -6.308  22.994  0.00  0.00    +0.046 A 
ATOM     25  C   UNL     1       6.098  -5.812  21.803  0.00  0.00    +0.005 A 
ATOM     26  C   UNL     1       6.841  -4.630  21.804  0.00  0.00    +0.023 A 
BRANCH  23  27
ATOM     27  O   UNL     1       5.247  -6.218  25.289  0.00  0.00    -0.489 OA
BRANCH  27  28
ATOM     28  C   UNL     1       3.908  -5.880  25.622  0.00  0.00    +0.173 C 
ATOM     29  C   UNL     1       3.838  -5.008  26.877  0.00  0.00    +0.044 C 
ATOM     30  C   UNL     1       2.591  -5.457  27.640  0.00  0.00    +0.004 C 
ATOM     31  C   UNL     1       2.000  -6.616  26.847  0.00  0.00    +0.004 C 
ATOM     32  C   UNL     1       3.170  -7.150  26.043  0.00  0.00    +0.044 C 
ENDBRANCH  27  28
ENDBRANCH  23  27
ENDBRANCH  18  21
ENDBRANCH   8  17
TORSDOF 5
ENDMDL
MODEL 8
REMARK VINA RESULT:      -6.9      3.746     10.694
REMARK  Name = 
REMARK  5 active torsions:
REMARK  status: ('A' for Active; 'I' for Inactive)
REMARK    1  A    between atoms: C_2  and  C_4
REMARK    2  A    between atoms: C_9  and  C_14
REMARK    3  A    between atoms: N_16  and  C_17
REMARK    4  A    between atoms: C_21  and  O_22
REMARK    5  A    between atoms: O_22  and  C_23
REMARK                            x       y       z     vdW  Elec       q    Type
REMARK                         _______ _______ _______ _____ _____    ______ ____
ROOT
ATOM      1  C   UNL     1      11.312   4.655  23.649  0.00  0.00    +0.065 A 
ATOM      2  C   UNL     1      11.475   3.299  23.359  0.00  0.00    +0.016 A 
ATOM      3  C   UNL     1      10.403   2.422  23.527  0.00  0.00    +0.009 A 
ATOM      4  C   UNL     1       9.158   2.892  23.969  0.00  0.00    -0.017 A 
ATOM      5  C   UNL     1       8.981   4.266  24.250  0.00  0.00    -0.017 A 
ATOM      6  C   UNL     1       7.719   4.721  24.677  0.00  0.00    +0.009 A 
ATOM      7  C   UNL     1       6.644   3.834  24.834  0.00  0.00    +0.013 A 
ATOM      8  C   UNL     1       6.828   2.475  24.571  0.00  0.00    +0.038 A 
ATOM      9  C   UNL     1       8.083   2.014  24.148  0.00  0.00    +0.021 A 
ATOM     10  C   UNL     1      10.076   5.134  24.102  0.00  0.00    +0.024 A 
ENDROOT
BRANCH   1  14
ATOM     11  N   UNL     1      13.151   5.636  22.314  0.00  0.00    -0.247 N 
ATOM     12  H   UNL     1      12.633   5.347  21.490  0.00  0.00    +0.288 HD
ATOM     13  H   UNL     1      13.670   6.488  22.143  0.00  0.00    +0.288 HD
ATOM     14  C   UNL     1      12.458   5.593  23.489  0.00  0.00    +0.308 C 
ATOM     15  N   UNL     1      12.779   6.376  24.465  0.00  0.00    -0.099 NA
ATOM     16  H   UNL     1      13.608   6.917  24.214  0.00  0.00    +0.363 HD
ENDBRANCH   1  14
BRANCH   8  17
ATOM     17  C   UNL     1       5.767   1.448  24.772  0.00  0.00    +0.248 C 
ATOM     18  N   UNL     1       6.191   0.181  25.144  0.00  0.00    -0.281 N 
ATOM     19  H   UNL     1       7.183   0.035  25.265  0.00  0.00    +0.155 HD
ATOM     20  O   UNL     1       4.607   1.818  24.636  0.00  0.00    -0.270 OA
BRANCH  18  21
ATOM     21  C   UNL     1       5.354  -0.916  25.475  0.00  0.00    +0.037 A 
ATOM     22  C   UNL     1       5.380  -2.039  24.633  0.00  0.00    +0.069 A 
ATOM     23  C   UNL     1       4.594  -3.163  24.918  0.00  0.00    +0.123 A 
ATOM     24  C   UNL     1       3.756  -3.156  26.032  0.00  0.00    +0.046 A 
ATOM     25  C   UNL     1       3.723  -2.051  26.875  0.00  0.00    +0.005 A 
ATOM     26  C   UNL     1       4.519  -0.939  26.596  0.00  0.00    +0.023 A 
BRANCH  23  27
ATOM     27  O   UNL     1       4.523  -4.301  24.165  0.00  0.00    -0.489 OA
BRANCH  27  28
ATOM     28  C   UNL     1       5.521  -4.492  23.172  0.00  0.00    +0.173 C 
ATOM     29  C   UNL     1       5.174  -5.651  22.235  0.00  0.00    +0.044 C 
ATOM     30  C   UNL     1       6.496  -6.349  21.913  0.00  0.00    +0.004 C 
ATOM     31  C   UNL     1       7.568  -5.624  22.715  0.00  0.00    +0.004 C 
ATOM     32  C   UNL     1       6.804  -4.971  23.851  0.00  0.00    +0.044 C 
ENDBRANCH  27  28
ENDBRANCH  23  27
ENDBRANCH  18  21
ENDBRANCH   8  17
TORSDOF 5
ENDMDL
MODEL 9
REMARK VINA RESULT:      -6.8      3.205     10.376
REMARK  Name = 
REMARK  5 active torsions:
REMARK  status: ('A' for Active; 'I' for Inactive)
REMARK    1  A    between atoms: C_2  and  C_4
REMARK    2  A    between atoms: C_9  and  C_14
REMARK    3  A    between atoms: N_16  and  C_17
REMARK    4  A    between atoms: C_21  and  O_22
REMARK    5  A    between atoms: O_22  and  C_23
REMARK                            x       y       z     vdW  Elec       q    Type
REMARK                         _______ _______ _______ _____ _____    ______ ____
ROOT
ATOM      1  C   UNL     1      10.354   4.173  23.728  0.00  0.00    +0.065 A 
ATOM      2  C   UNL     1      10.900   2.974  23.266  0.00  0.00    +0.016 A 
ATOM      3  C   UNL     1      10.144   1.802  23.325  0.00  0.00    +0.009 A 
ATOM      4  C   UNL     1       8.835   1.820  23.830  0.00  0.00    -0.017 A 
ATOM      5  C   UNL     1       8.271   3.034  24.285  0.00  0.00    -0.017 A 
ATOM      6  C   UNL     1       6.950   3.034  24.772  0.00  0.00    +0.009 A 
ATOM      7  C   UNL     1       6.194   1.854  24.820  0.00  0.00    +0.013 A 
ATOM      8  C   UNL     1       6.762   0.654  24.384  0.00  0.00    +0.038 A 
ATOM      9  C   UNL     1       8.078   0.645  23.900  0.00  0.00    +0.021 A 
ATOM     10  C   UNL     1       9.052   4.201  24.244  0.00  0.00    +0.024 A 
ENDROOT
BRANCH   1  14
ATOM     11  N   UNL     1      12.123   5.586  22.728  0.00  0.00    -0.247 N 
ATOM     12  H   UNL     1      11.981   5.062  21.870  0.00  0.00    +0.288 HD
ATOM     13  H   UNL     1      12.391   6.544  22.535  0.00  0.00    +0.288 HD
ATOM     14  C   UNL     1      11.162   5.423  23.683  0.00  0.00    +0.308 C 
ATOM     15  N   UNL     1      10.933   6.358  24.546  0.00  0.00    -0.099 NA
ATOM     16  H   UNL     1      11.599   7.121  24.411  0.00  0.00    +0.363 HD
ENDBRANCH   1  14
BRANCH   8  17
ATOM     17  C   UNL     1       6.064  -0.660  24.458  0.00  0.00    +0.248 C 
ATOM     18  N   UNL     1       6.616  -1.699  23.724  0.00  0.00    -0.281 N 
ATOM     19  H   UNL     1       7.457  -1.507  23.198  0.00  0.00    +0.155 HD
ATOM     20  O   UNL     1       5.086  -0.726  25.193  0.00  0.00    -0.270 OA
BRANCH  18  21
ATOM     21  C   UNL     1       6.172  -3.047  23.721  0.00  0.00    +0.037 A 
ATOM     22  C   UNL     1       6.466  -3.839  24.843  0.00  0.00    +0.069 A 
ATOM     23  C   UNL     1       6.035  -5.170  24.908  0.00  0.00    +0.123 A 
ATOM     24  C   UNL     1       5.334  -5.724  23.838  0.00  0.00    +0.046 A 
ATOM     25  C   UNL     1       5.035  -4.950  22.724  0.00  0.00    +0.005 A 
ATOM     26  C   UNL     1       5.453  -3.619  22.667  0.00  0.00    +0.023 A 
BRANCH  23  27
ATOM     27  O   UNL     1       6.276  -6.038  25.936  0.00  0.00    -0.489 OA
BRANCH  27  28
ATOM     28  C   UNL     1       5.681  -5.746  27.193  0.00  0.00    +0.173 C 
ATOM     29  C   UNL     1       6.675  -5.911  28.344  0.00  0.00    +0.044 C 
ATOM     30  C   UNL     1       5.881  -6.494  29.513  0.00  0.00    +0.004 C 
ATOM     31  C   UNL     1       4.463  -6.712  29.000  0.00  0.00    +0.004 C 
ATOM     32  C   UNL     1       4.625  -6.808  27.494  0.00  0.00    +0.044 C 
ENDBRANCH  27  28
ENDBRANCH  23  27
ENDBRANCH  18  21
ENDBRANCH   8  17
TORSDOF 5
ENDMDL
