MODEL 1
REMARK VINA RESULT:      -6.7      0.000      0.000
REMARK  Name = 
REMARK  5 active torsions:
REMARK  status: ('A' for Active; 'I' for Inactive)
REMARK    1  A    between atoms: N_9  and  C1*_10
REMARK    2  A    between atoms: C4*_13  and  C5*_15
REMARK    3  A    between atoms: C5*_15  and  O5*_16
REMARK    4  A    between atoms: C3*_17  and  O3*_19
REMARK    5  A    between atoms: C2*_20  and  O2*_22
REMARK                            x       y       z     vdW  Elec       q    Type
REMARK                         _______ _______ _______ _____ _____    ______ ____
ROOT
ATOM      1  N   UNL     1      10.173   2.292  21.717  0.00  0.00    -0.329 N 
ATOM      2  H   UNL     1      11.044   1.803  21.553  0.00  0.00    +0.145 HD
ATOM      3  H   UNL     1      10.309   3.298  21.640  0.00  0.00    +0.145 HD
ATOM      4  C   UNL     1       9.546   1.983  22.876  0.00  0.00    +0.195 A 
ATOM      5  N   UNL     1       9.499   0.652  23.142  0.00  0.00    -0.313 N 
ATOM      6  H   UNL     1       9.837  -0.038  22.482  0.00  0.00    +0.170 HD
ATOM      7  C   UNL     1       8.883   0.193  24.267  0.00  0.00    +0.138 A 
ATOM      8  N   UNL     1       8.722  -1.119  24.692  0.00  0.00    -0.258 N 
ATOM      9  C   UNL     1       8.241  -1.217  25.998  0.00  0.00    +0.295 A 
ATOM     10  S   UNL     1       7.723   0.382  26.550  0.00  0.00    -0.019 S 
ATOM     11  O   UNL     1       8.195  -2.216  26.698  0.00  0.00    -0.259 OA
ATOM     12  C   UNL     1       8.364   1.081  25.123  0.00  0.00    +0.124 A 
ATOM     13  C   UNL     1       8.414   2.535  24.814  0.00  0.00    +0.290 A 
ATOM     14  O   UNL     1       7.916   3.357  25.582  0.00  0.00    -0.264 OA
ATOM     15  N   UNL     1       9.044   2.904  23.634  0.00  0.00    -0.176 NA
ENDROOT
BRANCH   8  16
ATOM     16  C1* UNL     1       9.307  -2.280  24.047  0.00  0.00    +0.256 C 
ATOM     17  C2* UNL     1       8.986  -3.669  24.644  0.00  0.00    +0.195 C 
ATOM     18  C3* UNL     1       7.870  -4.232  23.771  0.00  0.00    +0.178 C 
ATOM     19  C4* UNL     1       7.828  -3.323  22.546  0.00  0.00    +0.177 C 
ATOM     20  O4* UNL     1       8.891  -2.351  22.662  0.00  0.00    -0.346 OA
BRANCH  17  21
ATOM     21  O2* UNL     1      10.120  -4.562  24.569  0.00  0.00    -0.385 OA
ATOM     22  H2* UNL     1      10.016  -5.145  23.795  0.00  0.00    +0.210 HD
ENDBRANCH  17  21
BRANCH  18  23
ATOM     23  O3* UNL     1       8.150  -5.578  23.362  0.00  0.00    -0.386 OA
ATOM     24  H3* UNL     1       8.059  -6.137  24.160  0.00  0.00    +0.210 HD
ENDBRANCH  18  23
BRANCH  19  25
ATOM     25  C5* UNL     1       6.482  -2.595  22.404  0.00  0.00    +0.190 C 
BRANCH  25  26
ATOM     26  O5* UNL     1       5.546  -3.325  21.631  0.00  0.00    -0.392 OA
ATOM     27  H5* UNL     1       5.355  -2.816  20.823  0.00  0.00    +0.210 HD
ENDBRANCH  25  26
ENDBRANCH  19  25
ENDBRANCH   8  16
TORSDOF 5
ENDMDL
MODEL 2
REMARK VINA RESULT:      -6.7      2.724      3.942
REMARK  Name = 
REMARK  5 active torsions:
REMARK  status: ('A' for Active; 'I' for Inactive)
REMARK    1  A    between atoms: N_9  and  C1*_10
REMARK    2  A    between atoms: C4*_13  and  C5*_15
REMARK    3  A    between atoms: C5*_15  and  O5*_16
REMARK    4  A    between atoms: C3*_17  and  O3*_19
REMARK    5  A    between atoms: C2*_20  and  O2*_22
REMARK                            x       y       z     vdW  Elec       q    Type
REMARK                         _______ _______ _______ _____ _____    ______ ____
ROOT
ATOM      1  N   UNL     1       6.216   0.974  22.639  0.00  0.00    -0.329 N 
ATOM      2  H   UNL     1       5.984   0.812  21.667  0.00  0.00    +0.145 HD
ATOM      3  H   UNL     1       6.604   1.907  22.763  0.00  0.00    +0.145 HD
ATOM      4  C   UNL     1       7.020   0.043  23.204  0.00  0.00    +0.195 A 
ATOM      5  N   UNL     1       6.671  -1.237  22.918  0.00  0.00    -0.313 N 
ATOM      6  H   UNL     1       5.833  -1.460  22.394  0.00  0.00    +0.170 HD
ATOM      7  C   UNL     1       7.381  -2.279  23.434  0.00  0.00    +0.138 A 
ATOM      8  N   UNL     1       7.165  -3.640  23.269  0.00  0.00    -0.258 N 
ATOM      9  C   UNL     1       8.213  -4.424  23.752  0.00  0.00    +0.295 A 
ATOM     10  S   UNL     1       9.323  -3.406  24.679  0.00  0.00    -0.019 S 
ATOM     11  O   UNL     1       8.394  -5.616  23.564  0.00  0.00    -0.259 OA
ATOM     12  C   UNL     1       8.453  -2.014  24.192  0.00  0.00    +0.124 A 
ATOM     13  C   UNL     1       8.817  -0.606  24.504  0.00  0.00    +0.290 A 
ATOM     14  O   UNL     1       9.784  -0.354  25.221  0.00  0.00    -0.264 OA
ATOM     15  N   UNL     1       8.020   0.386  23.950  0.00  0.00    -0.176 NA
ENDROOT
BRANCH   8  16
ATOM     16  C1* UNL     1       6.172  -4.224  22.385  0.00  0.00    +0.256 C 
ATOM     17  C2* UNL     1       5.865  -5.730  22.548  0.00  0.00    +0.195 C 
ATOM     18  C3* UNL     1       4.590  -5.790  23.382  0.00  0.00    +0.178 C 
ATOM     19  C4* UNL     1       4.046  -4.364  23.380  0.00  0.00    +0.177 C 
ATOM     20  O4* UNL     1       4.899  -3.552  22.543  0.00  0.00    -0.346 OA
BRANCH  17  21
ATOM     21  O2* UNL     1       5.611  -6.368  21.276  0.00  0.00    -0.385 OA
ATOM     22  H2* UNL     1       6.330  -6.997  21.086  0.00  0.00    +0.210 HD
ENDBRANCH  17  21
BRANCH  18  23
ATOM     23  O3* UNL     1       3.623  -6.675  22.801  0.00  0.00    -0.386 OA
ATOM     24  H3* UNL     1       4.121  -7.304  22.240  0.00  0.00    +0.210 HD
ENDBRANCH  18  23
BRANCH  19  25
ATOM     25  C5* UNL     1       3.988  -3.759  24.790  0.00  0.00    +0.190 C 
BRANCH  25  26
ATOM     26  O5* UNL     1       4.320  -2.382  24.807  0.00  0.00    -0.392 OA
ATOM     27  H5* UNL     1       5.113  -2.266  25.361  0.00  0.00    +0.210 HD
ENDBRANCH  25  26
ENDBRANCH  19  25
ENDBRANCH   8  16
TORSDOF 5
ENDMDL
MODEL 3
REMARK VINA RESULT:      -6.6      2.560      3.971
REMARK  Name = 
REMARK  5 active torsions:
REMARK  status: ('A' for Active; 'I' for Inactive)
REMARK    1  A    between atoms: N_9  and  C1*_10
REMARK    2  A    between atoms: C4*_13  and  C5*_15
REMARK    3  A    between atoms: C5*_15  and  O5*_16
REMARK    4  A    between atoms: C3*_17  and  O3*_19
REMARK    5  A    between atoms: C2*_20  and  O2*_22
REMARK                            x       y       z     vdW  Elec       q    Type
REMARK                         _______ _______ _______ _____ _____    ______ ____
ROOT
ATOM      1  N   UNL     1      11.045   0.670  25.012  0.00  0.00    -0.329 N 
ATOM      2  H   UNL     1      10.652   0.985  25.890  0.00  0.00    +0.145 HD
ATOM      3  H   UNL     1      11.482   1.446  24.518  0.00  0.00    +0.145 HD
ATOM      4  C   UNL     1      10.188   0.008  24.200  0.00  0.00    +0.195 A 
ATOM      5  N   UNL     1       9.427  -0.919  24.836  0.00  0.00    -0.313 N 
ATOM      6  H   UNL     1       9.559  -1.139  25.816  0.00  0.00    +0.170 HD
ATOM      7  C   UNL     1       8.532  -1.675  24.140  0.00  0.00    +0.138 A 
ATOM      8  N   UNL     1       7.689  -2.672  24.612  0.00  0.00    -0.258 N 
ATOM      9  C   UNL     1       6.746  -3.083  23.670  0.00  0.00    +0.295 A 
ATOM     10  S   UNL     1       7.152  -2.387  22.096  0.00  0.00    -0.019 S 
ATOM     11  O   UNL     1       5.764  -3.782  23.861  0.00  0.00    -0.259 OA
ATOM     12  C   UNL     1       8.389  -1.455  22.827  0.00  0.00    +0.124 A 
ATOM     13  C   UNL     1       9.237  -0.443  22.142  0.00  0.00    +0.290 A 
ATOM     14  O   UNL     1       9.131  -0.253  20.932  0.00  0.00    -0.264 OA
ATOM     15  N   UNL     1      10.135   0.262  22.932  0.00  0.00    -0.176 NA
ENDROOT
BRANCH   8  16
ATOM     16  C1* UNL     1       7.518  -3.024  26.010  0.00  0.00    +0.256 C 
ATOM     17  C2* UNL     1       6.708  -4.300  26.332  0.00  0.00    +0.195 C 
ATOM     18  C3* UNL     1       7.752  -5.382  26.591  0.00  0.00    +0.178 C 
ATOM     19  C4* UNL     1       9.073  -4.632  26.734  0.00  0.00    +0.177 C 
ATOM     20  O4* UNL     1       8.806  -3.215  26.643  0.00  0.00    -0.346 OA
BRANCH  17  21
ATOM     21  O2* UNL     1       5.908  -4.142  27.526  0.00  0.00    -0.385 OA
ATOM     22  H2* UNL     1       6.444  -3.706  28.214  0.00  0.00    +0.210 HD
ENDBRANCH  17  21
BRANCH  18  23
ATOM     23  O3* UNL     1       7.474  -6.103  27.799  0.00  0.00    -0.386 OA
ATOM     24  H3* UNL     1       6.753  -6.731  27.590  0.00  0.00    +0.210 HD
ENDBRANCH  18  23
BRANCH  19  25
ATOM     25  C5* UNL     1      10.091  -5.032  25.655  0.00  0.00    +0.190 C 
BRANCH  25  26
ATOM     26  O5* UNL     1       9.505  -5.776  24.601  0.00  0.00    -0.392 OA
ATOM     27  H5* UNL     1       8.556  -5.563  24.569  0.00  0.00    +0.210 HD
ENDBRANCH  25  26
ENDBRANCH  19  25
ENDBRANCH   8  16
TORSDOF 5
ENDMDL
MODEL 4
REMARK VINA RESULT:      -6.6      2.858      5.589
REMARK  Name = 
REMARK  5 active torsions:
REMARK  status: ('A' for Active; 'I' for Inactive)
REMARK    1  A    between atoms: N_9  and  C1*_10
REMARK    2  A    between atoms: C4*_13  and  C5*_15
REMARK    3  A    between atoms: C5*_15  and  O5*_16
REMARK    4  A    between atoms: C3*_17  and  O3*_19
REMARK    5  A    between atoms: C2*_20  and  O2*_22
REMARK                            x       y       z     vdW  Elec       q    Type
REMARK                         _______ _______ _______ _____ _____    ______ ____
ROOT
ATOM      1  N   UNL     1      10.298  -5.609  25.609  0.00  0.00    -0.329 N 
ATOM      2  H   UNL     1      10.554  -5.870  24.666  0.00  0.00    +0.145 HD
ATOM      3  H   UNL     1      10.151  -6.438  26.182  0.00  0.00    +0.145 HD
ATOM      4  C   UNL     1       9.243  -4.766  25.709  0.00  0.00    +0.195 A 
ATOM      5  N   UNL     1       9.276  -3.731  24.831  0.00  0.00    -0.313 N 
ATOM      6  H   UNL     1      10.068  -3.573  24.219  0.00  0.00    +0.170 HD
ATOM      7  C   UNL     1       8.288  -2.793  24.829  0.00  0.00    +0.138 A 
ATOM      8  N   UNL     1       8.163  -1.667  24.027  0.00  0.00    -0.258 N 
ATOM      9  C   UNL     1       6.917  -1.051  24.137  0.00  0.00    +0.295 A 
ATOM     10  S   UNL     1       6.034  -1.759  25.496  0.00  0.00    -0.019 S 
ATOM     11  O   UNL     1       6.454  -0.181  23.417  0.00  0.00    -0.259 OA
ATOM     12  C   UNL     1       7.264  -2.938  25.680  0.00  0.00    +0.124 A 
ATOM     13  C   UNL     1       7.246  -4.071  26.642  0.00  0.00    +0.290 A 
ATOM     14  O   UNL     1       6.323  -4.197  27.445  0.00  0.00    -0.264 OA
ATOM     15  N   UNL     1       8.308  -4.963  26.582  0.00  0.00    -0.176 NA
ENDROOT
BRANCH   8  16
ATOM     16  C1* UNL     1       9.040  -1.335  22.919  0.00  0.00    +0.256 C 
ATOM     17  C2* UNL     1       8.705  -0.071  22.095  0.00  0.00    +0.195 C 
ATOM     18  C3* UNL     1       9.623   1.017  22.639  0.00  0.00    +0.178 C 
ATOM     19  C4* UNL     1      10.651   0.279  23.492  0.00  0.00    +0.177 C 
ATOM     20  O4* UNL     1      10.396  -1.140  23.389  0.00  0.00    -0.346 OA
BRANCH  17  21
ATOM     21  O2* UNL     1       8.993  -0.253  20.689  0.00  0.00    -0.385 OA
ATOM     22  H2* UNL     1       8.546   0.447  20.179  0.00  0.00    +0.210 HD
ENDBRANCH  17  21
BRANCH  18  23
ATOM     23  O3* UNL     1      10.291   1.719  21.582  0.00  0.00    -0.386 OA
ATOM     24  H3* UNL     1       9.701   2.455  21.319  0.00  0.00    +0.210 HD
ENDBRANCH  18  23
BRANCH  19  25
ATOM     25  C5* UNL     1      10.597   0.702  24.968  0.00  0.00    +0.190 C 
BRANCH  25  26
ATOM     26  O5* UNL     1       9.383   1.350  25.305  0.00  0.00    -0.392 OA
ATOM     27  H5* UNL     1       8.715   0.668  25.495  0.00  0.00    +0.210 HD
ENDBRANCH  25  26
ENDBRANCH  19  25
ENDBRANCH   8  16
TORSDOF 5
ENDMDL
MODEL 5
REMARK VINA RESULT:      -6.5      2.267      2.894
REMARK  Name = 
REMARK  5 active torsions:
REMARK  status: ('A' for Active; 'I' for Inactive)
REMARK    1  A    between atoms: N_9  and  C1*_10
REMARK    2  A    between atoms: C4*_13  and  C5*_15
REMARK    3  A    between atoms: C5*_15  and  O5*_16
REMARK    4  A    between atoms: C3*_17  and  O3*_19
REMARK    5  A    between atoms: C2*_20  and  O2*_22
REMARK                            x       y       z     vdW  Elec       q    Type
REMARK                         _______ _______ _______ _____ _____    ______ ____
ROOT
ATOM      1  N   UNL     1       5.273   2.329  22.621  0.00  0.00    -0.329 N 
ATOM      2  H   UNL     1       4.878   1.929  21.779  0.00  0.00    +0.145 HD
ATOM      3  H   UNL     1       5.228   3.346  22.589  0.00  0.00    +0.145 HD
ATOM      4  C   UNL     1       6.526   1.916  22.924  0.00  0.00    +0.195 A 
ATOM      5  N   UNL     1       6.713   0.577  22.799  0.00  0.00    -0.313 N 
ATOM      6  H   UNL     1       5.950  -0.052  22.576  0.00  0.00    +0.170 HD
ATOM      7  C   UNL     1       7.921   0.017  23.088  0.00  0.00    +0.138 A 
ATOM      8  N   UNL     1       8.290  -1.320  23.037  0.00  0.00    -0.258 N 
ATOM      9  C   UNL     1       9.664  -1.515  23.180  0.00  0.00    +0.295 A 
ATOM     10  S   UNL     1      10.420   0.005  23.676  0.00  0.00    -0.019 S 
ATOM     11  O   UNL     1      10.292  -2.541  22.977  0.00  0.00    -0.259 OA
ATOM     12  C   UNL     1       8.929   0.819  23.456  0.00  0.00    +0.124 A 
ATOM     13  C   UNL     1       8.707   2.282  23.598  0.00  0.00    +0.290 A 
ATOM     14  O   UNL     1       9.619   3.022  23.960  0.00  0.00    -0.264 OA
ATOM     15  N   UNL     1       7.436   2.755  23.301  0.00  0.00    -0.176 NA
ENDROOT
BRANCH   8  16
ATOM     16  C1* UNL     1       7.455  -2.395  22.533  0.00  0.00    +0.256 C 
ATOM     17  C2* UNL     1       7.702  -3.815  23.091  0.00  0.00    +0.195 C 
ATOM     18  C3* UNL     1       6.636  -4.014  24.164  0.00  0.00    +0.178 C 
ATOM     19  C4* UNL     1       5.643  -2.875  23.953  0.00  0.00    +0.177 C 
ATOM     20  O4* UNL     1       6.059  -2.115  22.796  0.00  0.00    -0.346 OA
BRANCH  17  21
ATOM     21  O2* UNL     1       7.526  -4.830  22.077  0.00  0.00    -0.385 OA
ATOM     22  H2* UNL     1       8.401  -5.118  21.760  0.00  0.00    +0.210 HD
ENDBRANCH  17  21
BRANCH  18  23
ATOM     23  O3* UNL     1       5.964  -5.272  24.010  0.00  0.00    -0.386 OA
ATOM     24  H3* UNL     1       6.660  -5.944  23.860  0.00  0.00    +0.210 HD
ENDBRANCH  18  23
BRANCH  19  25
ATOM     25  C5* UNL     1       5.555  -1.944  25.172  0.00  0.00    +0.190 C 
BRANCH  25  26
ATOM     26  O5* UNL     1       5.041  -0.664  24.845  0.00  0.00    -0.392 OA
ATOM     27  H5* UNL     1       5.003  -0.589  23.875  0.00  0.00    +0.210 HD
ENDBRANCH  25  26
ENDBRANCH  19  25
ENDBRANCH   8  16
TORSDOF 5
ENDMDL
MODEL 6
REMARK VINA RESULT:      -6.3      3.101      5.098
REMARK  Name = 
REMARK  5 active torsions:
REMARK  status: ('A' for Active; 'I' for Inactive)
REMARK    1  A    between atoms: N_9  and  C1*_10
REMARK    2  A    between atoms: C4*_13  and  C5*_15
REMARK    3  A    between atoms: C5*_15  and  O5*_16
REMARK    4  A    between atoms: C3*_17  and  O3*_19
REMARK    5  A    between atoms: C2*_20  and  O2*_22
REMARK                            x       y       z     vdW  Elec       q    Type
REMARK                         _______ _______ _______ _____ _____    ______ ____
ROOT
ATOM      1  N   UNL     1       9.950  -5.642  25.610  0.00  0.00    -0.329 N 
ATOM      2  H   UNL     1      10.185  -5.566  24.628  0.00  0.00    +0.145 HD
ATOM      3  H   UNL     1       9.945  -6.617  25.901  0.00  0.00    +0.145 HD
ATOM      4  C   UNL     1       8.803  -5.026  25.979  0.00  0.00    +0.195 A 
ATOM      5  N   UNL     1       8.652  -3.780  25.463  0.00  0.00    -0.313 N 
ATOM      6  H   UNL     1       9.380  -3.334  24.917  0.00  0.00    +0.170 HD
ATOM      7  C   UNL     1       7.551  -3.035  25.764  0.00  0.00    +0.138 A 
ATOM      8  N   UNL     1       7.237  -1.748  25.349  0.00  0.00    -0.258 N 
ATOM      9  C   UNL     1       5.930  -1.375  25.661  0.00  0.00    +0.295 A 
ATOM     10  S   UNL     1       5.225  -2.580  26.749  0.00  0.00    -0.019 S 
ATOM     11  O   UNL     1       5.318  -0.403  25.251  0.00  0.00    -0.259 OA
ATOM     12  C   UNL     1       6.605  -3.573  26.543  0.00  0.00    +0.124 A 
ATOM     13  C   UNL     1       6.789  -4.935  27.110  0.00  0.00    +0.290 A 
ATOM     14  O   UNL     1       5.937  -5.427  27.848  0.00  0.00    -0.264 OA
ATOM     15  N   UNL     1       7.953  -5.608  26.763  0.00  0.00    -0.176 NA
ENDROOT
BRANCH   8  16
ATOM     16  C1* UNL     1       7.999  -0.975  24.384  0.00  0.00    +0.256 C 
ATOM     17  C2* UNL     1       9.449  -1.422  24.094  0.00  0.00    +0.195 C 
ATOM     18  C3* UNL     1       9.369  -2.227  22.802  0.00  0.00    +0.178 C 
ATOM     19  C4* UNL     1       7.981  -1.936  22.238  0.00  0.00    +0.177 C 
ATOM     20  O4* UNL     1       7.332  -0.974  23.099  0.00  0.00    -0.346 OA
BRANCH  17  21
ATOM     21  O2* UNL     1      10.327  -0.294  23.878  0.00  0.00    -0.385 OA
ATOM     22  H2* UNL     1      11.253  -0.594  23.943  0.00  0.00    +0.210 HD
ENDBRANCH  17  21
BRANCH  18  23
ATOM     23  O3* UNL     1      10.368  -1.810  21.860  0.00  0.00    -0.386 OA
ATOM     24  H3* UNL     1      11.236  -2.005  22.269  0.00  0.00    +0.210 HD
ENDBRANCH  18  23
BRANCH  19  25
ATOM     25  C5* UNL     1       7.114  -3.200  22.139  0.00  0.00    +0.190 C 
BRANCH  25  26
ATOM     26  O5* UNL     1       7.782  -4.358  22.612  0.00  0.00    -0.392 OA
ATOM     27  H5* UNL     1       8.717  -4.131  22.760  0.00  0.00    +0.210 HD
ENDBRANCH  25  26
ENDBRANCH  19  25
ENDBRANCH   8  16
TORSDOF 5
ENDMDL
MODEL 7
REMARK VINA RESULT:      -6.3      4.496      6.196
REMARK  Name = 
REMARK  5 active torsions:
REMARK  status: ('A' for Active; 'I' for Inactive)
REMARK    1  A    between atoms: N_9  and  C1*_10
REMARK    2  A    between atoms: C4*_13  and  C5*_15
REMARK    3  A    between atoms: C5*_15  and  O5*_16
REMARK    4  A    between atoms: C3*_17  and  O3*_19
REMARK    5  A    between atoms: C2*_20  and  O2*_22
REMARK                            x       y       z     vdW  Elec       q    Type
REMARK                         _______ _______ _______ _____ _____    ______ ____
ROOT
ATOM      1  N   UNL     1       6.119  -5.390  21.373  0.00  0.00    -0.329 N 
ATOM      2  H   UNL     1       6.704  -4.570  21.284  0.00  0.00    +0.145 HD
ATOM      3  H   UNL     1       5.392  -5.389  20.661  0.00  0.00    +0.145 HD
ATOM      4  C   UNL     1       5.584  -5.588  22.601  0.00  0.00    +0.195 A 
ATOM      5  N   UNL     1       6.461  -5.413  23.622  0.00  0.00    -0.313 N 
ATOM      6  H   UNL     1       7.445  -5.231  23.458  0.00  0.00    +0.170 HD
ATOM      7  C   UNL     1       6.066  -5.596  24.913  0.00  0.00    +0.138 A 
ATOM      8  N   UNL     1       6.819  -5.481  26.074  0.00  0.00    -0.258 N 
ATOM      9  C   UNL     1       6.046  -5.516  27.234  0.00  0.00    +0.295 A 
ATOM     10  S   UNL     1       4.394  -5.995  26.820  0.00  0.00    -0.019 S 
ATOM     11  O   UNL     1       6.399  -5.238  28.369  0.00  0.00    -0.259 OA
ATOM     12  C   UNL     1       4.787  -5.909  25.155  0.00  0.00    +0.124 A 
ATOM     13  C   UNL     1       3.839  -6.107  24.026  0.00  0.00    +0.290 A 
ATOM     14  O   UNL     1       2.669  -6.420  24.237  0.00  0.00    -0.264 OA
ATOM     15  N   UNL     1       4.341  -5.919  22.745  0.00  0.00    -0.176 NA
ENDROOT
BRANCH   8  16
ATOM     16  C1* UNL     1       8.191  -5.012  26.132  0.00  0.00    +0.256 C 
ATOM     17  C2* UNL     1       9.013  -5.039  24.824  0.00  0.00    +0.195 C 
ATOM     18  C3* UNL     1       8.959  -3.612  24.288  0.00  0.00    +0.178 C 
ATOM     19  C4* UNL     1       8.413  -2.776  25.441  0.00  0.00    +0.177 C 
ATOM     20  O4* UNL     1       8.235  -3.638  26.587  0.00  0.00    -0.346 OA
BRANCH  17  21
ATOM     21  O2* UNL     1      10.396  -5.386  25.065  0.00  0.00    -0.385 OA
ATOM     22  H2* UNL     1      10.724  -5.922  24.320  0.00  0.00    +0.210 HD
ENDBRANCH  17  21
BRANCH  18  23
ATOM     23  O3* UNL     1      10.263  -3.138  23.924  0.00  0.00    -0.386 OA
ATOM     24  H3* UNL     1      10.741  -2.964  24.761  0.00  0.00    +0.210 HD
ENDBRANCH  18  23
BRANCH  19  25
ATOM     25  C5* UNL     1       7.076  -2.105  25.094  0.00  0.00    +0.190 C 
BRANCH  25  26
ATOM     26  O5* UNL     1       6.666  -2.363  23.763  0.00  0.00    -0.392 OA
ATOM     27  H5* UNL     1       7.418  -2.183  23.171  0.00  0.00    +0.210 HD
ENDBRANCH  25  26
ENDBRANCH  19  25
ENDBRANCH   8  16
TORSDOF 5
ENDMDL
MODEL 8
REMARK VINA RESULT:      -6.3      2.879      4.483
REMARK  Name = 
REMARK  5 active torsions:
REMARK  status: ('A' for Active; 'I' for Inactive)
REMARK    1  A    between atoms: N_9  and  C1*_10
REMARK    2  A    between atoms: C4*_13  and  C5*_15
REMARK    3  A    between atoms: C5*_15  and  O5*_16
REMARK    4  A    between atoms: C3*_17  and  O3*_19
REMARK    5  A    between atoms: C2*_20  and  O2*_22
REMARK                            x       y       z     vdW  Elec       q    Type
REMARK                         _______ _______ _______ _____ _____    ______ ____
ROOT
ATOM      1  N   UNL     1       8.775  -0.315  27.635  0.00  0.00    -0.329 N 
ATOM      2  H   UNL     1       7.845  -0.073  27.954  0.00  0.00    +0.145 HD
ATOM      3  H   UNL     1       9.438   0.417  27.883  0.00  0.00    +0.145 HD
ATOM      4  C   UNL     1       8.873  -0.623  26.320  0.00  0.00    +0.195 A 
ATOM      5  N   UNL     1       7.896  -1.451  25.872  0.00  0.00    -0.313 N 
ATOM      6  H   UNL     1       7.208  -1.857  26.496  0.00  0.00    +0.170 HD
ATOM      7  C   UNL     1       7.878  -1.861  24.572  0.00  0.00    +0.138 A 
ATOM      8  N   UNL     1       6.978  -2.711  23.944  0.00  0.00    -0.258 N 
ATOM      9  C   UNL     1       7.125  -2.736  22.557  0.00  0.00    +0.295 A 
ATOM     10  S   UNL     1       8.615  -1.893  22.113  0.00  0.00    -0.019 S 
ATOM     11  O   UNL     1       6.360  -3.222  21.740  0.00  0.00    -0.259 OA
ATOM     12  C   UNL     1       8.818  -1.396  23.740  0.00  0.00    +0.124 A 
ATOM     13  C   UNL     1       9.889  -0.498  24.248  0.00  0.00    +0.290 A 
ATOM     14  O   UNL     1      10.771  -0.087  23.496  0.00  0.00    -0.264 OA
ATOM     15  N   UNL     1       9.834  -0.154  25.592  0.00  0.00    -0.176 NA
ENDROOT
BRANCH   8  16
ATOM     16  C1* UNL     1       5.775  -3.247  24.555  0.00  0.00    +0.256 C 
ATOM     17  C2* UNL     1       5.204  -4.562  23.977  0.00  0.00    +0.195 C 
ATOM     18  C3* UNL     1       5.700  -5.659  24.913  0.00  0.00    +0.178 C 
ATOM     19  C4* UNL     1       6.235  -4.923  26.138  0.00  0.00    +0.177 C 
ATOM     20  O4* UNL     1       5.998  -3.509  25.961  0.00  0.00    -0.346 OA
BRANCH  17  21
ATOM     21  O2* UNL     1       3.758  -4.570  23.986  0.00  0.00    -0.385 OA
ATOM     22  H2* UNL     1       3.439  -5.160  23.278  0.00  0.00    +0.210 HD
ENDBRANCH  17  21
BRANCH  18  23
ATOM     23  O3* UNL     1       4.635  -6.536  25.305  0.00  0.00    -0.386 OA
ATOM     24  H3* UNL     1       4.474  -6.372  26.257  0.00  0.00    +0.210 HD
ENDBRANCH  18  23
BRANCH  19  25
ATOM     25  C5* UNL     1       7.736  -5.167  26.356  0.00  0.00    +0.190 C 
BRANCH  25  26
ATOM     26  O5* UNL     1       8.002  -5.917  27.528  0.00  0.00    -0.392 OA
ATOM     27  H5* UNL     1       7.189  -6.391  27.779  0.00  0.00    +0.210 HD
ENDBRANCH  25  26
ENDBRANCH  19  25
ENDBRANCH   8  16
TORSDOF 5
ENDMDL
MODEL 9
REMARK VINA RESULT:      -6.3      2.608      5.378
REMARK  Name = 
REMARK  5 active torsions:
REMARK  status: ('A' for Active; 'I' for Inactive)
REMARK    1  A    between atoms: N_9  and  C1*_10
REMARK    2  A    between atoms: C4*_13  and  C5*_15
REMARK    3  A    between atoms: C5*_15  and  O5*_16
REMARK    4  A    between atoms: C3*_17  and  O3*_19
REMARK    5  A    between atoms: C2*_20  and  O2*_22
REMARK                            x       y       z     vdW  Elec       q    Type
REMARK                         _______ _______ _______ _____ _____    ______ ____
ROOT
ATOM      1  N   UNL     1       7.624  -5.364  23.015  0.00  0.00    -0.329 N 
ATOM      2  H   UNL     1       7.130  -5.192  22.148  0.00  0.00    +0.145 HD
ATOM      3  H   UNL     1       7.439  -6.307  23.351  0.00  0.00    +0.145 HD
ATOM      4  C   UNL     1       7.403  -4.456  23.995  0.00  0.00    +0.195 A 
ATOM      5  N   UNL     1       7.443  -3.166  23.574  0.00  0.00    -0.313 N 
ATOM      6  H   UNL     1       7.697  -2.920  22.624  0.00  0.00    +0.170 HD
ATOM      7  C   UNL     1       7.255  -2.144  24.456  0.00  0.00    +0.138 A 
ATOM      8  N   UNL     1       7.279  -0.777  24.215  0.00  0.00    -0.258 N 
ATOM      9  C   UNL     1       6.825  -0.022  25.297  0.00  0.00    +0.295 A 
ATOM     10  S   UNL     1       6.659  -1.072  26.711  0.00  0.00    -0.019 S 
ATOM     11  O   UNL     1       6.545   1.165  25.307  0.00  0.00    -0.259 OA
ATOM     12  C   UNL     1       6.989  -2.440  25.734  0.00  0.00    +0.124 A 
ATOM     13  C   UNL     1       6.959  -3.857  26.183  0.00  0.00    +0.290 A 
ATOM     14  O   UNL     1       6.741  -4.137  27.360  0.00  0.00    -0.264 OA
ATOM     15  N   UNL     1       7.183  -4.827  25.215  0.00  0.00    -0.176 NA
ENDROOT
BRANCH   8  16
ATOM     16  C1* UNL     1       7.396  -0.165  22.904  0.00  0.00    +0.256 C 
ATOM     17  C2* UNL     1       7.934   1.282  22.835  0.00  0.00    +0.195 C 
ATOM     18  C3* UNL     1       9.408   1.143  22.471  0.00  0.00    +0.178 C 
ATOM     19  C4* UNL     1       9.574  -0.308  22.030  0.00  0.00    +0.177 C 
ATOM     20  O4* UNL     1       8.277  -0.945  22.060  0.00  0.00    -0.346 OA
BRANCH  17  21
ATOM     21  O2* UNL     1       7.278   2.051  21.801  0.00  0.00    -0.385 OA
ATOM     22  H2* UNL     1       6.809   1.443  21.200  0.00  0.00    +0.210 HD
ENDBRANCH  17  21
BRANCH  18  23
ATOM     23  O3* UNL     1       9.769   2.018  21.394  0.00  0.00    -0.386 OA
ATOM     24  H3* UNL     1      10.747   2.069  21.391  0.00  0.00    +0.210 HD
ENDBRANCH  18  23
BRANCH  19  25
ATOM     25  C5* UNL     1      10.546  -1.086  22.929  0.00  0.00    +0.190 C 
BRANCH  25  26
ATOM     26  O5* UNL     1      10.349  -2.487  22.862  0.00  0.00    -0.392 OA
ATOM     27  H5* UNL     1       9.634  -2.665  22.225  0.00  0.00    +0.210 HD
ENDBRANCH  25  26
ENDBRANCH  19  25
ENDBRANCH   8  16
TORSDOF 5
ENDMDL
