MODEL 1
REMARK VINA RESULT:      -7.2      0.000      0.000
REMARK  Name = 
REMARK  7 active torsions:
REMARK  status: ('A' for Active; 'I' for Inactive)
REMARK    1  A    between atoms: N_9  and  C_12
REMARK    2  A    between atoms: C_15  and  O_17
REMARK    3  A    between atoms: C_18  and  C_20
REMARK    4  A    between atoms: C_20  and  O_21
REMARK    5  A    between atoms: O_21  and  P_22
REMARK    6  A    between atoms: P_22  and  O_23
REMARK    7  A    between atoms: P_22  and  O_24
REMARK                            x       y       z     vdW  Elec       q    Type
REMARK                         _______ _______ _______ _____ _____    ______ ____
ROOT
ATOM      1  C   UNL     1       4.963  -4.354  23.448  0.00  0.00    +0.225 C 
ATOM      2  O   UNL     1       4.881  -4.616  24.863  0.00  0.00    -0.348 OA
ATOM      3  C   UNL     1       3.961  -5.733  25.034  0.00  0.00    +0.175 C 
ATOM      4  C   UNL     1       3.701  -6.298  23.628  0.00  0.00    +0.150 C 
ATOM      5  C   UNL     1       4.838  -5.727  22.811  0.00  0.00    +0.088 C 
ENDROOT
BRANCH   1  13
ATOM      6  N   UNL     1       9.542  -5.772  25.609  0.00  0.00    -0.329 N 
ATOM      7  H   UNL     1       9.236  -6.678  25.288  0.00  0.00    +0.145 HD
ATOM      8  H   UNL     1      10.544  -5.754  25.770  0.00  0.00    +0.145 HD
ATOM      9  C   UNL     1       9.162  -4.728  24.818  0.00  0.00    +0.195 A 
ATOM     10  N   UNL     1       7.862  -4.817  24.404  0.00  0.00    -0.312 N 
ATOM     11  H   UNL     1       7.287  -5.588  24.725  0.00  0.00    +0.170 HD
ATOM     12  C   UNL     1       7.400  -3.805  23.654  0.00  0.00    +0.148 A 
ATOM     13  N   UNL     1       6.155  -3.581  23.158  0.00  0.00    -0.289 N 
ATOM     14  C   UNL     1       6.232  -2.366  22.510  0.00  0.00    +0.203 A 
ATOM     15  N   UNL     1       7.444  -1.844  22.560  0.00  0.00    -0.229 NA
ATOM     16  C   UNL     1       8.190  -2.744  23.294  0.00  0.00    +0.172 A 
ATOM     17  C   UNL     1       9.590  -2.695  23.736  0.00  0.00    +0.302 A 
ATOM     18  O   UNL     1      10.341  -1.779  23.437  0.00  0.00    -0.263 OA
ATOM     19  N   UNL     1       9.998  -3.773  24.541  0.00  0.00    -0.176 NA
ENDBRANCH   1  13
BRANCH   4  20
ATOM     20  O   UNL     1       2.473  -5.777  23.119  0.00  0.00    -0.389 OA
ATOM     21  H   UNL     1       2.450  -5.930  22.157  0.00  0.00    +0.210 HD
ENDBRANCH   4  20
BRANCH   3  22
ATOM     22  C   UNL     1       4.564  -6.786  25.977  0.00  0.00    +0.206 C 
BRANCH  22  23
ATOM     23  O   UNL     1       5.846  -6.359  26.423  0.00  0.00    -0.284 OA
BRANCH  23  24
ATOM     24  P   UNL     1       5.958  -5.940  28.098  0.00  0.00    +0.472 P 
ATOM     25  O   UNL     1       6.057  -5.566  29.597  0.00  0.00    -0.228 OA
BRANCH  24  26
ATOM     26  O   UNL     1       7.568  -6.036  27.860  0.00  0.00    -0.303 OA
ATOM     27  H   UNL     1       8.008  -5.712  28.666  0.00  0.00    +0.222 HD
ENDBRANCH  24  26
BRANCH  24  28
ATOM     28  O   UNL     1       5.702  -7.517  28.431  0.00  0.00    -0.303 OA
ATOM     29  H   UNL     1       5.635  -7.971  27.566  0.00  0.00    +0.222 HD
ENDBRANCH  24  28
ENDBRANCH  23  24
ENDBRANCH  22  23
ENDBRANCH   3  22
TORSDOF 7
ENDMDL
MODEL 2
REMARK VINA RESULT:      -6.5      2.384      3.724
REMARK  Name = 
REMARK  7 active torsions:
REMARK  status: ('A' for Active; 'I' for Inactive)
REMARK    1  A    between atoms: N_9  and  C_12
REMARK    2  A    between atoms: C_15  and  O_17
REMARK    3  A    between atoms: C_18  and  C_20
REMARK    4  A    between atoms: C_20  and  O_21
REMARK    5  A    between atoms: O_21  and  P_22
REMARK    6  A    between atoms: P_22  and  O_23
REMARK    7  A    between atoms: P_22  and  O_24
REMARK                            x       y       z     vdW  Elec       q    Type
REMARK                         _______ _______ _______ _____ _____    ______ ____
ROOT
ATOM      1  C   UNL     1       6.904  -3.057  23.097  0.00  0.00    +0.225 C 
ATOM      2  O   UNL     1       6.763  -3.333  24.505  0.00  0.00    -0.348 OA
ATOM      3  C   UNL     1       6.058  -4.602  24.619  0.00  0.00    +0.175 C 
ATOM      4  C   UNL     1       6.018  -5.204  23.204  0.00  0.00    +0.150 C 
ATOM      5  C   UNL     1       7.088  -4.428  22.469  0.00  0.00    +0.088 C 
ENDROOT
BRANCH   1  13
ATOM      6  N   UNL     1       5.619   2.027  22.694  0.00  0.00    -0.329 N 
ATOM      7  H   UNL     1       5.069   1.793  23.507  0.00  0.00    +0.145 HD
ATOM      8  H   UNL     1       5.776   3.027  22.627  0.00  0.00    +0.145 HD
ATOM      9  C   UNL     1       6.795   1.345  22.585  0.00  0.00    +0.195 A 
ATOM     10  N   UNL     1       6.670   0.014  22.869  0.00  0.00    -0.312 N 
ATOM     11  H   UNL     1       5.756  -0.365  23.092  0.00  0.00    +0.170 HD
ATOM     12  C   UNL     1       7.777  -0.733  22.746  0.00  0.00    +0.148 A 
ATOM     13  N   UNL     1       7.949  -2.073  22.891  0.00  0.00    -0.289 N 
ATOM     14  C   UNL     1       9.275  -2.307  22.593  0.00  0.00    +0.203 A 
ATOM     15  N   UNL     1       9.928  -1.198  22.295  0.00  0.00    -0.229 NA
ATOM     16  C   UNL     1       8.983  -0.195  22.377  0.00  0.00    +0.172 A 
ATOM     17  C   UNL     1       9.085   1.245  22.104  0.00  0.00    +0.302 A 
ATOM     18  O   UNL     1      10.136   1.779  21.782  0.00  0.00    -0.263 OA
ATOM     19  N   UNL     1       7.881   1.961  22.226  0.00  0.00    -0.176 NA
ENDBRANCH   1  13
BRANCH   4  20
ATOM     20  O   UNL     1       4.757  -4.920  22.596  0.00  0.00    -0.389 OA
ATOM     21  H   UNL     1       4.638  -5.525  21.841  0.00  0.00    +0.210 HD
ENDBRANCH   4  20
BRANCH   3  22
ATOM     22  C   UNL     1       6.772  -5.527  25.618  0.00  0.00    +0.206 C 
BRANCH  22  23
ATOM     23  O   UNL     1       5.814  -6.180  26.443  0.00  0.00    -0.284 OA
BRANCH  23  24
ATOM     24  P   UNL     1       5.999  -5.934  28.146  0.00  0.00    +0.472 P 
ATOM     25  O   UNL     1       6.163  -5.715  29.670  0.00  0.00    -0.228 OA
BRANCH  24  26
ATOM     26  O   UNL     1       7.587  -6.159  27.855  0.00  0.00    -0.303 OA
ATOM     27  H   UNL     1       7.909  -6.842  28.469  0.00  0.00    +0.222 HD
ENDBRANCH  24  26
BRANCH  24  28
ATOM     28  O   UNL     1       5.598  -7.504  28.339  0.00  0.00    -0.303 OA
ATOM     29  H   UNL     1       5.961  -7.976  27.562  0.00  0.00    +0.222 HD
ENDBRANCH  24  28
ENDBRANCH  23  24
ENDBRANCH  22  23
ENDBRANCH   3  22
TORSDOF 7
ENDMDL
MODEL 3
REMARK VINA RESULT:      -6.4      3.218      6.170
REMARK  Name = 
REMARK  7 active torsions:
REMARK  status: ('A' for Active; 'I' for Inactive)
REMARK    1  A    between atoms: N_9  and  C_12
REMARK    2  A    between atoms: C_15  and  O_17
REMARK    3  A    between atoms: C_18  and  C_20
REMARK    4  A    between atoms: C_20  and  O_21
REMARK    5  A    between atoms: O_21  and  P_22
REMARK    6  A    between atoms: P_22  and  O_23
REMARK    7  A    between atoms: P_22  and  O_24
REMARK                            x       y       z     vdW  Elec       q    Type
REMARK                         _______ _______ _______ _____ _____    ______ ____
ROOT
ATOM      1  C   UNL     1       9.358  -2.901  23.887  0.00  0.00    +0.225 C 
ATOM      2  O   UNL     1       9.575  -1.680  24.623  0.00  0.00    -0.348 OA
ATOM      3  C   UNL     1       9.590  -0.596  23.650  0.00  0.00    +0.175 C 
ATOM      4  C   UNL     1       9.106  -1.200  22.321  0.00  0.00    +0.150 C 
ATOM      5  C   UNL     1       8.438  -2.487  22.751  0.00  0.00    +0.088 C 
ENDROOT
BRANCH   1  13
ATOM      6  N   UNL     1       5.216  -1.978  26.992  0.00  0.00    -0.329 N 
ATOM      7  H   UNL     1       4.841  -1.625  26.125  0.00  0.00    +0.145 HD
ATOM      8  H   UNL     1       4.479  -2.196  27.656  0.00  0.00    +0.145 HD
ATOM      9  C   UNL     1       6.070  -3.032  26.857  0.00  0.00    +0.195 A 
ATOM     10  N   UNL     1       6.960  -2.871  25.832  0.00  0.00    -0.312 N 
ATOM     11  H   UNL     1       6.953  -2.011  25.295  0.00  0.00    +0.170 HD
ATOM     12  C   UNL     1       7.861  -3.850  25.659  0.00  0.00    +0.148 A 
ATOM     13  N   UNL     1       8.897  -3.942  24.785  0.00  0.00    -0.289 N 
ATOM     14  C   UNL     1       9.526  -5.132  25.084  0.00  0.00    +0.203 A 
ATOM     15  N   UNL     1       8.932  -5.781  26.070  0.00  0.00    -0.229 NA
ATOM     16  C   UNL     1       7.882  -4.970  26.449  0.00  0.00    +0.172 A 
ATOM     17  C   UNL     1       6.893  -5.121  27.526  0.00  0.00    +0.302 A 
ATOM     18  O   UNL     1       6.859  -6.102  28.253  0.00  0.00    -0.263 OA
ATOM     19  N   UNL     1       5.998  -4.046  27.667  0.00  0.00    -0.176 NA
ENDBRANCH   1  13
BRANCH   4  20
ATOM     20  O   UNL     1      10.230  -1.527  21.502  0.00  0.00    -0.389 OA
ATOM     21  H   UNL     1      10.232  -2.489  21.353  0.00  0.00    +0.210 HD
ENDBRANCH   4  20
BRANCH   3  22
ATOM     22  C   UNL     1       8.692   0.560  24.118  0.00  0.00    +0.206 C 
BRANCH  22  23
ATOM     23  O   UNL     1       7.418   0.468  23.490  0.00  0.00    -0.284 OA
BRANCH  23  24
ATOM     24  P   UNL     1       6.050   0.604  24.541  0.00  0.00    +0.472 P 
ATOM     25  O   UNL     1       4.826   0.725  25.481  0.00  0.00    -0.228 OA
BRANCH  24  26
ATOM     26  O   UNL     1       7.091   0.140  25.708  0.00  0.00    -0.303 OA
ATOM     27  H   UNL     1       6.626   0.196  26.561  0.00  0.00    +0.222 HD
ENDBRANCH  24  26
BRANCH  24  28
ATOM     28  O   UNL     1       5.616  -0.889  24.044  0.00  0.00    -0.303 OA
ATOM     29  H   UNL     1       6.434  -1.315  23.713  0.00  0.00    +0.222 HD
ENDBRANCH  24  28
ENDBRANCH  23  24
ENDBRANCH  22  23
ENDBRANCH   3  22
TORSDOF 7
ENDMDL
MODEL 4
REMARK VINA RESULT:      -6.4      3.453      7.037
REMARK  Name = 
REMARK  7 active torsions:
REMARK  status: ('A' for Active; 'I' for Inactive)
REMARK    1  A    between atoms: N_9  and  C_12
REMARK    2  A    between atoms: C_15  and  O_17
REMARK    3  A    between atoms: C_18  and  C_20
REMARK    4  A    between atoms: C_20  and  O_21
REMARK    5  A    between atoms: O_21  and  P_22
REMARK    6  A    between atoms: P_22  and  O_23
REMARK    7  A    between atoms: P_22  and  O_24
REMARK                            x       y       z     vdW  Elec       q    Type
REMARK                         _______ _______ _______ _____ _____    ______ ____
ROOT
ATOM      1  C   UNL     1       8.199  -2.753  23.054  0.00  0.00    +0.225 C 
ATOM      2  O   UNL     1       8.430  -1.926  24.212  0.00  0.00    -0.348 OA
ATOM      3  C   UNL     1       9.369  -0.887  23.810  0.00  0.00    +0.175 C 
ATOM      4  C   UNL     1       9.484  -0.975  22.279  0.00  0.00    +0.150 C 
ATOM      5  C   UNL     1       8.264  -1.780  21.888  0.00  0.00    +0.088 C 
ENDROOT
BRANCH   1  13
ATOM      6  N   UNL     1       7.667  -5.826  27.287  0.00  0.00    -0.329 N 
ATOM      7  H   UNL     1       8.008  -4.993  27.743  0.00  0.00    +0.145 HD
ATOM      8  H   UNL     1       7.193  -6.440  27.942  0.00  0.00    +0.145 HD
ATOM      9  C   UNL     1       6.890  -5.598  26.190  0.00  0.00    +0.195 A 
ATOM     10  N   UNL     1       7.390  -4.622  25.374  0.00  0.00    -0.312 N 
ATOM     11  H   UNL     1       8.275  -4.183  25.604  0.00  0.00    +0.170 HD
ATOM     12  C   UNL     1       6.701  -4.367  24.252  0.00  0.00    +0.148 A 
ATOM     13  N   UNL     1       6.979  -3.516  23.229  0.00  0.00    -0.289 N 
ATOM     14  C   UNL     1       5.964  -3.699  22.314  0.00  0.00    +0.203 A 
ATOM     15  N   UNL     1       5.076  -4.590  22.718  0.00  0.00    -0.229 NA
ATOM     16  C   UNL     1       5.542  -5.028  23.941  0.00  0.00    +0.172 A 
ATOM     17  C   UNL     1       5.020  -6.053  24.855  0.00  0.00    +0.302 A 
ATOM     18  O   UNL     1       3.987  -6.666  24.633  0.00  0.00    -0.263 OA
ATOM     19  N   UNL     1       5.806  -6.288  25.997  0.00  0.00    -0.176 NA
ENDBRANCH   1  13
BRANCH   4  20
ATOM     20  O   UNL     1      10.649  -1.722  21.926  0.00  0.00    -0.389 OA
ATOM     21  H   UNL     1      10.374  -2.625  21.686  0.00  0.00    +0.210 HD
ENDBRANCH   4  20
BRANCH   3  22
ATOM     22  C   UNL     1       8.873   0.493  24.271  0.00  0.00    +0.206 C 
BRANCH  22  23
ATOM     23  O   UNL     1       8.921   1.413  23.186  0.00  0.00    -0.284 OA
BRANCH  23  24
ATOM     24  P   UNL     1      10.184   2.594  23.258  0.00  0.00    +0.472 P 
ATOM     25  O   UNL     1      11.313   3.651  23.321  0.00  0.00    -0.228 OA
BRANCH  24  26
ATOM     26  O   UNL     1       8.975   3.676  23.088  0.00  0.00    -0.303 OA
ATOM     27  H   UNL     1       9.224   4.291  22.375  0.00  0.00    +0.222 HD
ENDBRANCH  24  26
BRANCH  24  28
ATOM     28  O   UNL     1      10.434   2.312  21.670  0.00  0.00    -0.303 OA
ATOM     29  H   UNL     1       9.593   2.529  21.218  0.00  0.00    +0.222 HD
ENDBRANCH  24  28
ENDBRANCH  23  24
ENDBRANCH  22  23
ENDBRANCH   3  22
TORSDOF 7
ENDMDL
MODEL 5
REMARK VINA RESULT:      -6.4      3.656      7.259
REMARK  Name = 
REMARK  7 active torsions:
REMARK  status: ('A' for Active; 'I' for Inactive)
REMARK    1  A    between atoms: N_9  and  C_12
REMARK    2  A    between atoms: C_15  and  O_17
REMARK    3  A    between atoms: C_18  and  C_20
REMARK    4  A    between atoms: C_20  and  O_21
REMARK    5  A    between atoms: O_21  and  P_22
REMARK    6  A    between atoms: P_22  and  O_23
REMARK    7  A    between atoms: P_22  and  O_24
REMARK                            x       y       z     vdW  Elec       q    Type
REMARK                         _______ _______ _______ _____ _____    ______ ____
ROOT
ATOM      1  C   UNL     1       9.288  -2.889  23.870  0.00  0.00    +0.225 C 
ATOM      2  O   UNL     1       9.346  -1.631  24.572  0.00  0.00    -0.348 OA
ATOM      3  C   UNL     1       9.348  -0.582  23.562  0.00  0.00    +0.175 C 
ATOM      4  C   UNL     1       9.020  -1.267  22.225  0.00  0.00    +0.150 C 
ATOM      5  C   UNL     1       8.428  -2.592  22.654  0.00  0.00    +0.088 C 
ENDROOT
BRANCH   1  13
ATOM      6  N   UNL     1       5.185  -2.001  27.036  0.00  0.00    -0.329 N 
ATOM      7  H   UNL     1       4.795  -1.647  26.176  0.00  0.00    +0.145 HD
ATOM      8  H   UNL     1       4.458  -2.225  27.709  0.00  0.00    +0.145 HD
ATOM      9  C   UNL     1       6.043  -3.050  26.885  0.00  0.00    +0.195 A 
ATOM     10  N   UNL     1       6.917  -2.880  25.849  0.00  0.00    -0.312 N 
ATOM     11  H   UNL     1       6.898  -2.018  25.315  0.00  0.00    +0.170 HD
ATOM     12  C   UNL     1       7.822  -3.853  25.660  0.00  0.00    +0.148 A 
ATOM     13  N   UNL     1       8.846  -3.935  24.771  0.00  0.00    -0.289 N 
ATOM     14  C   UNL     1       9.486  -5.123  25.058  0.00  0.00    +0.203 A 
ATOM     15  N   UNL     1       8.910  -5.778  26.049  0.00  0.00    -0.229 NA
ATOM     16  C   UNL     1       7.860  -4.975  26.446  0.00  0.00    +0.172 A 
ATOM     17  C   UNL     1       6.887  -5.136  27.536  0.00  0.00    +0.302 A 
ATOM     18  O   UNL     1       6.869  -6.119  28.260  0.00  0.00    -0.263 OA
ATOM     19  N   UNL     1       5.988  -4.066  27.693  0.00  0.00    -0.176 NA
ENDBRANCH   1  13
BRANCH   4  20
ATOM     20  O   UNL     1      10.227  -1.524  21.506  0.00  0.00    -0.389 OA
ATOM     21  H   UNL     1      10.562  -0.678  21.158  0.00  0.00    +0.210 HD
ENDBRANCH   4  20
BRANCH   3  22
ATOM     22  C   UNL     1       8.324   0.508  23.917  0.00  0.00    +0.206 C 
BRANCH  22  23
ATOM     23  O   UNL     1       8.464   1.612  23.028  0.00  0.00    -0.284 OA
BRANCH  23  24
ATOM     24  P   UNL     1       9.916   2.537  23.202  0.00  0.00    +0.472 P 
ATOM     25  O   UNL     1      11.215   3.365  23.357  0.00  0.00    -0.228 OA
BRANCH  24  26
ATOM     26  O   UNL     1       8.946   3.824  22.953  0.00  0.00    -0.303 OA
ATOM     27  H   UNL     1       9.503   4.622  22.959  0.00  0.00    +0.222 HD
ENDBRANCH  24  26
BRANCH  24  28
ATOM     28  O   UNL     1      10.226   2.204  21.635  0.00  0.00    -0.303 OA
ATOM     29  H   UNL     1       9.458   2.540  21.127  0.00  0.00    +0.222 HD
ENDBRANCH  24  28
ENDBRANCH  23  24
ENDBRANCH  22  23
ENDBRANCH   3  22
TORSDOF 7
ENDMDL
MODEL 6
REMARK VINA RESULT:      -6.4      2.404      3.114
REMARK  Name = 
REMARK  7 active torsions:
REMARK  status: ('A' for Active; 'I' for Inactive)
REMARK    1  A    between atoms: N_9  and  C_12
REMARK    2  A    between atoms: C_15  and  O_17
REMARK    3  A    between atoms: C_18  and  C_20
REMARK    4  A    between atoms: C_20  and  O_21
REMARK    5  A    between atoms: O_21  and  P_22
REMARK    6  A    between atoms: P_22  and  O_23
REMARK    7  A    between atoms: P_22  and  O_24
REMARK                            x       y       z     vdW  Elec       q    Type
REMARK                         _______ _______ _______ _____ _____    ______ ____
ROOT
ATOM      1  C   UNL     1       7.270  -2.980  22.451  0.00  0.00    +0.225 C 
ATOM      2  O   UNL     1       6.268  -2.668  23.439  0.00  0.00    -0.348 OA
ATOM      3  C   UNL     1       5.393  -3.829  23.535  0.00  0.00    +0.175 C 
ATOM      4  C   UNL     1       6.080  -4.955  22.746  0.00  0.00    +0.150 C 
ATOM      5  C   UNL     1       7.508  -4.470  22.625  0.00  0.00    +0.088 C 
ENDROOT
BRANCH   1  13
ATOM      6  N   UNL     1       8.334  -0.954  27.185  0.00  0.00    -0.329 N 
ATOM      7  H   UNL     1       8.191  -1.915  27.457  0.00  0.00    +0.145 HD
ATOM      8  H   UNL     1       8.863  -0.444  27.886  0.00  0.00    +0.145 HD
ATOM      9  C   UNL     1       8.884  -0.787  25.949  0.00  0.00    +0.195 A 
ATOM     10  N   UNL     1       8.336  -1.608  25.004  0.00  0.00    -0.312 N 
ATOM     11  H   UNL     1       7.573  -2.226  25.261  0.00  0.00    +0.170 HD
ATOM     12  C   UNL     1       8.797  -1.475  23.752  0.00  0.00    +0.148 A 
ATOM     13  N   UNL     1       8.407  -2.093  22.606  0.00  0.00    -0.289 N 
ATOM     14  C   UNL     1       9.180  -1.536  21.608  0.00  0.00    +0.203 A 
ATOM     15  N   UNL     1      10.028  -0.636  22.072  0.00  0.00    -0.229 NA
ATOM     16  C   UNL     1       9.784  -0.581  23.429  0.00  0.00    +0.172 A 
ATOM     17  C   UNL     1      10.368   0.269  24.476  0.00  0.00    +0.302 A 
ATOM     18  O   UNL     1      11.257   1.075  24.247  0.00  0.00    -0.263 OA
ATOM     19  N   UNL     1       9.819   0.095  25.758  0.00  0.00    -0.176 NA
ENDBRANCH   1  13
BRANCH   4  20
ATOM     20  O   UNL     1       5.518  -5.037  21.435  0.00  0.00    -0.389 OA
ATOM     21  H   UNL     1       4.635  -4.627  21.454  0.00  0.00    +0.210 HD
ENDBRANCH   4  20
BRANCH   3  22
ATOM     22  C   UNL     1       5.167  -4.211  25.007  0.00  0.00    +0.206 C 
BRANCH  22  23
ATOM     23  O   UNL     1       6.288  -3.812  25.788  0.00  0.00    -0.284 OA
BRANCH  23  24
ATOM     24  P   UNL     1       6.772  -4.919  27.027  0.00  0.00    +0.472 P 
ATOM     25  O   UNL     1       7.205  -5.910  28.135  0.00  0.00    -0.228 OA
BRANCH  24  26
ATOM     26  O   UNL     1       8.154  -4.053  27.051  0.00  0.00    -0.303 OA
ATOM     27  H   UNL     1       8.763  -4.482  27.678  0.00  0.00    +0.222 HD
ENDBRANCH  24  26
BRANCH  24  28
ATOM     28  O   UNL     1       7.194  -5.951  25.835  0.00  0.00    -0.303 OA
ATOM     29  H   UNL     1       7.535  -5.397  25.102  0.00  0.00    +0.222 HD
ENDBRANCH  24  28
ENDBRANCH  23  24
ENDBRANCH  22  23
ENDBRANCH   3  22
TORSDOF 7
ENDMDL
MODEL 7
REMARK VINA RESULT:      -6.3      4.049      6.869
REMARK  Name = 
REMARK  7 active torsions:
REMARK  status: ('A' for Active; 'I' for Inactive)
REMARK    1  A    between atoms: N_9  and  C_12
REMARK    2  A    between atoms: C_15  and  O_17
REMARK    3  A    between atoms: C_18  and  C_20
REMARK    4  A    between atoms: C_20  and  O_21
REMARK    5  A    between atoms: O_21  and  P_22
REMARK    6  A    between atoms: P_22  and  O_23
REMARK    7  A    between atoms: P_22  and  O_24
REMARK                            x       y       z     vdW  Elec       q    Type
REMARK                         _______ _______ _______ _____ _____    ______ ____
ROOT
ATOM      1  C   UNL     1       9.404  -0.019  23.115  0.00  0.00    +0.225 C 
ATOM      2  O   UNL     1       8.603   0.839  23.951  0.00  0.00    -0.348 OA
ATOM      3  C   UNL     1       8.420   2.088  23.223  0.00  0.00    +0.175 C 
ATOM      4  C   UNL     1       8.929   1.835  21.795  0.00  0.00    +0.150 C 
ATOM      5  C   UNL     1       8.963   0.326  21.702  0.00  0.00    +0.088 C 
ENDROOT
BRANCH   1  13
ATOM      6  N   UNL     1       4.991  -1.531  25.542  0.00  0.00    -0.329 N 
ATOM      7  H   UNL     1       4.579  -1.025  24.772  0.00  0.00    +0.145 HD
ATOM      8  H   UNL     1       4.329  -2.177  25.959  0.00  0.00    +0.145 HD
ATOM      9  C   UNL     1       6.162  -2.163  25.246  0.00  0.00    +0.195 A 
ATOM     10  N   UNL     1       7.012  -1.394  24.502  0.00  0.00    -0.312 N 
ATOM     11  H   UNL     1       6.748  -0.444  24.264  0.00  0.00    +0.170 HD
ATOM     12  C   UNL     1       8.204  -1.932  24.203  0.00  0.00    +0.148 A 
ATOM     13  N   UNL     1       9.267  -1.396  23.548  0.00  0.00    -0.289 N 
ATOM     14  C   UNL     1      10.244  -2.369  23.575  0.00  0.00    +0.203 A 
ATOM     15  N   UNL     1       9.841  -3.469  24.186  0.00  0.00    -0.229 NA
ATOM     16  C   UNL     1       8.553  -3.197  24.599  0.00  0.00    +0.172 A 
ATOM     17  C   UNL     1       7.603  -4.005  25.377  0.00  0.00    +0.302 A 
ATOM     18  O   UNL     1       7.858  -5.141  25.747  0.00  0.00    -0.263 OA
ATOM     19  N   UNL     1       6.386  -3.368  25.676  0.00  0.00    -0.176 NA
ENDBRANCH   1  13
BRANCH   4  20
ATOM     20  O   UNL     1      10.265   2.325  21.666  0.00  0.00    -0.389 OA
ATOM     21  H   UNL     1      10.636   2.442  22.559  0.00  0.00    +0.210 HD
ENDBRANCH   4  20
BRANCH   3  22
ATOM     22  C   UNL     1       6.941   2.508  23.242  0.00  0.00    +0.206 C 
BRANCH  22  23
ATOM     23  O   UNL     1       6.567   2.904  24.557  0.00  0.00    -0.284 OA
BRANCH  23  24
ATOM     24  P   UNL     1       5.265   2.013  25.268  0.00  0.00    +0.472 P 
ATOM     25  O   UNL     1       4.100   1.216  25.903  0.00  0.00    -0.228 OA
BRANCH  24  26
ATOM     26  O   UNL     1       6.441   1.259  26.109  0.00  0.00    -0.303 OA
ATOM     27  H   UNL     1       7.243   1.251  25.558  0.00  0.00    +0.222 HD
ENDBRANCH  24  26
BRANCH  24  28
ATOM     28  O   UNL     1       5.304   1.052  23.950  0.00  0.00    -0.303 OA
ATOM     29  H   UNL     1       6.210   1.125  23.585  0.00  0.00    +0.222 HD
ENDBRANCH  24  28
ENDBRANCH  23  24
ENDBRANCH  22  23
ENDBRANCH   3  22
TORSDOF 7
ENDMDL
MODEL 8
REMARK VINA RESULT:      -6.3      2.159      4.230
REMARK  Name = 
REMARK  7 active torsions:
REMARK  status: ('A' for Active; 'I' for Inactive)
REMARK    1  A    between atoms: N_9  and  C_12
REMARK    2  A    between atoms: C_15  and  O_17
REMARK    3  A    between atoms: C_18  and  C_20
REMARK    4  A    between atoms: C_20  and  O_21
REMARK    5  A    between atoms: O_21  and  P_22
REMARK    6  A    between atoms: P_22  and  O_23
REMARK    7  A    between atoms: P_22  and  O_24
REMARK                            x       y       z     vdW  Elec       q    Type
REMARK                         _______ _______ _______ _____ _____    ______ ____
ROOT
ATOM      1  C   UNL     1       6.853  -5.440  26.927  0.00  0.00    +0.225 C 
ATOM      2  O   UNL     1       5.928  -6.222  26.146  0.00  0.00    -0.348 OA
ATOM      3  C   UNL     1       5.072  -6.930  27.087  0.00  0.00    +0.175 C 
ATOM      4  C   UNL     1       5.358  -6.327  28.472  0.00  0.00    +0.150 C 
ATOM      5  C   UNL     1       6.045  -5.019  28.143  0.00  0.00    +0.088 C 
ENDROOT
BRANCH   1  13
ATOM      6  N   UNL     1       5.831  -5.352  21.770  0.00  0.00    -0.329 N 
ATOM      7  H   UNL     1       4.893  -5.496  22.111  0.00  0.00    +0.145 HD
ATOM      8  H   UNL     1       5.830  -4.984  20.824  0.00  0.00    +0.145 HD
ATOM      9  C   UNL     1       6.623  -4.595  22.582  0.00  0.00    +0.195 A 
ATOM     10  N   UNL     1       6.502  -4.923  23.903  0.00  0.00    -0.312 N 
ATOM     11  H   UNL     1       5.895  -5.689  24.174  0.00  0.00    +0.170 HD
ATOM     12  C   UNL     1       7.280  -4.248  24.763  0.00  0.00    +0.148 A 
ATOM     13  N   UNL     1       7.430  -4.394  26.106  0.00  0.00    -0.289 N 
ATOM     14  C   UNL     1       8.397  -3.479  26.467  0.00  0.00    +0.203 A 
ATOM     15  N   UNL     1       8.832  -2.773  25.439  0.00  0.00    -0.229 NA
ATOM     16  C   UNL     1       8.138  -3.262  24.351  0.00  0.00    +0.172 A 
ATOM     17  C   UNL     1       8.223  -2.919  22.925  0.00  0.00    +0.302 A 
ATOM     18  O   UNL     1       8.962  -2.043  22.503  0.00  0.00    -0.263 OA
ATOM     19  N   UNL     1       7.401  -3.684  22.079  0.00  0.00    -0.176 NA
ENDBRANCH   1  13
BRANCH   4  20
ATOM     20  O   UNL     1       6.283  -7.156  29.177  0.00  0.00    -0.389 OA
ATOM     21  H   UNL     1       7.025  -7.364  28.581  0.00  0.00    +0.210 HD
ENDBRANCH   4  20
BRANCH   3  22
ATOM     22  C   UNL     1       3.595  -6.781  26.688  0.00  0.00    +0.206 C 
BRANCH  22  23
ATOM     23  O   UNL     1       3.300  -7.641  25.593  0.00  0.00    -0.284 OA
BRANCH  23  24
ATOM     24  P   UNL     1       3.135  -6.868  24.053  0.00  0.00    +0.472 P 
ATOM     25  O   UNL     1       2.987  -6.176  22.676  0.00  0.00    -0.228 OA
BRANCH  24  26
ATOM     26  O   UNL     1       2.423  -8.263  23.598  0.00  0.00    -0.303 OA
ATOM     27  H   UNL     1       1.551  -8.307  24.030  0.00  0.00    +0.222 HD
ENDBRANCH  24  26
BRANCH  24  28
ATOM     28  O   UNL     1       4.675  -7.313  23.749  0.00  0.00    -0.303 OA
ATOM     29  H   UNL     1       5.123  -7.360  24.619  0.00  0.00    +0.222 HD
ENDBRANCH  24  28
ENDBRANCH  23  24
ENDBRANCH  22  23
ENDBRANCH   3  22
TORSDOF 7
ENDMDL
MODEL 9
REMARK VINA RESULT:      -6.3      3.363      5.008
REMARK  Name = 
REMARK  7 active torsions:
REMARK  status: ('A' for Active; 'I' for Inactive)
REMARK    1  A    between atoms: N_9  and  C_12
REMARK    2  A    between atoms: C_15  and  O_17
REMARK    3  A    between atoms: C_18  and  C_20
REMARK    4  A    between atoms: C_20  and  O_21
REMARK    5  A    between atoms: O_21  and  P_22
REMARK    6  A    between atoms: P_22  and  O_23
REMARK    7  A    between atoms: P_22  and  O_24
REMARK                            x       y       z     vdW  Elec       q    Type
REMARK                         _______ _______ _______ _____ _____    ______ ____
ROOT
ATOM      1  C   UNL     1       7.936  -3.263  26.238  0.00  0.00    +0.225 C 
ATOM      2  O   UNL     1       7.783  -3.958  24.985  0.00  0.00    -0.348 OA
ATOM      3  C   UNL     1       7.255  -5.279  25.295  0.00  0.00    +0.175 C 
ATOM      4  C   UNL     1       6.849  -5.246  26.777  0.00  0.00    +0.150 C 
ATOM      5  C   UNL     1       6.778  -3.767  27.083  0.00  0.00    +0.088 C 
ENDROOT
BRANCH   1  13
ATOM      6  N   UNL     1       9.785  -1.526  21.632  0.00  0.00    -0.329 N 
ATOM      7  H   UNL     1       9.142  -2.222  21.288  0.00  0.00    +0.145 HD
ATOM      8  H   UNL     1      10.016  -0.845  20.915  0.00  0.00    +0.145 HD
ATOM      9  C   UNL     1       9.390  -0.903  22.779  0.00  0.00    +0.195 A 
ATOM     10  N   UNL     1       8.878  -1.765  23.707  0.00  0.00    -0.312 N 
ATOM     11  H   UNL     1       8.860  -2.760  23.508  0.00  0.00    +0.170 HD
ATOM     12  C   UNL     1       8.503  -1.233  24.880  0.00  0.00    +0.148 A 
ATOM     13  N   UNL     1       8.029  -1.835  26.002  0.00  0.00    -0.289 N 
ATOM     14  C   UNL     1       7.861  -0.819  26.920  0.00  0.00    +0.203 A 
ATOM     15  N   UNL     1       8.183   0.363  26.427  0.00  0.00    -0.229 NA
ATOM     16  C   UNL     1       8.602   0.109  25.137  0.00  0.00    +0.172 A 
ATOM     17  C   UNL     1       9.135   1.011  24.106  0.00  0.00    +0.302 A 
ATOM     18  O   UNL     1       9.237   2.216  24.277  0.00  0.00    -0.263 OA
ATOM     19  N   UNL     1       9.533   0.382  22.913  0.00  0.00    -0.176 NA
ENDBRANCH   1  13
BRANCH   4  20
ATOM     20  O   UNL     1       7.887  -5.822  27.573  0.00  0.00    -0.389 OA
ATOM     21  H   UNL     1       7.547  -6.642  27.973  0.00  0.00    +0.210 HD
ENDBRANCH   4  20
BRANCH   3  22
ATOM     22  C   UNL     1       6.066  -5.612  24.379  0.00  0.00    +0.206 C 
BRANCH  22  23
ATOM     23  O   UNL     1       6.521  -5.796  23.043  0.00  0.00    -0.284 OA
BRANCH  23  24
ATOM     24  P   UNL     1       6.005  -4.602  21.902  0.00  0.00    +0.472 P 
ATOM     25  O   UNL     1       5.545  -3.533  20.881  0.00  0.00    -0.228 OA
BRANCH  24  26
ATOM     26  O   UNL     1       6.455  -5.697  20.780  0.00  0.00    -0.303 OA
ATOM     27  H   UNL     1       6.083  -5.418  19.925  0.00  0.00    +0.222 HD
ENDBRANCH  24  26
BRANCH  24  28
ATOM     28  O   UNL     1       7.463  -3.895  22.098  0.00  0.00    -0.303 OA
ATOM     29  H   UNL     1       7.411  -3.030  21.641  0.00  0.00    +0.222 HD
ENDBRANCH  24  28
ENDBRANCH  23  24
ENDBRANCH  22  23
ENDBRANCH   3  22
TORSDOF 7
ENDMDL
