MODEL 1
REMARK VINA RESULT:      -7.8      0.000      0.000
REMARK  Name = 
REMARK  14 active torsions:
REMARK  status: ('A' for Active; 'I' for Inactive)
REMARK    1  A    between atoms: C_2  and  C_3
REMARK    2  A    between atoms: C_2  and  N_4
REMARK    3  A    between atoms: C_2  and  P_5
REMARK    4  A    between atoms: P_5  and  O_6
REMARK    5  A    between atoms: P_5  and  C_8
REMARK    6  A    between atoms: C_8  and  C_9
REMARK    7  A    between atoms: C_9  and  C_11
REMARK    8  A    between atoms: C_9  and  C_24
REMARK    9  A    between atoms: C_11  and  C_12
REMARK   10  A    between atoms: C_15  and  C_18
REMARK   11  A    between atoms: N_26  and  CA_27
REMARK   12  A    between atoms: CA_27  and  CB_29
REMARK   13  A    between atoms: CA_27  and  C_30
REMARK   14  A    between atoms: C_30  and  O_31
REMARK                            x       y       z     vdW  Elec       q    Type
REMARK                         _______ _______ _______ _____ _____    ______ ____
ROOT
ATOM      1  C   UNK A   0       8.565  -2.961  22.473  0.00  0.00    +0.088 C 
ENDROOT
BRANCH   1   2
ATOM      2  C   UNK A   0       8.871  -3.130  23.953  0.00  0.00    +0.218 C 
ATOM      3  N   ALA A   1       7.936  -2.612  24.822  0.00  0.00    -0.302 N 
ATOM      4  H   ALA A   1       7.348  -1.863  24.467  0.00  0.00    +0.150 HD
ATOM      5  O   UNK A   0       9.892  -3.694  24.336  0.00  0.00    -0.275 OA
BRANCH   3   6
ATOM      6  CA  ALA A   1       8.203  -2.610  26.280  0.00  0.00    +0.178 C 
ATOM      7  CB  ALA A   1       7.553  -1.407  26.959  0.00  0.00    +0.040 C 
BRANCH   6   8
ATOM      8  C   ALA A   1       7.694  -3.895  26.949  0.00  0.00    +0.325 C 
ATOM      9  OXT ALA A   1       6.559  -4.043  27.382  0.00  0.00    -0.249 OA
BRANCH   8  10
ATOM     10  O   ALA A   1       8.607  -4.898  26.975  0.00  0.00    -0.479 OA
ATOM     11  H   ALA A   1       8.296  -5.646  26.426  0.00  0.00    +0.295 HD
ENDBRANCH   8  10
ENDBRANCH   6   8
ENDBRANCH   3   6
ENDBRANCH   1   2
BRANCH   1  12
ATOM     12  C   UNK A   0       7.028  -2.911  22.248  0.00  0.00    +0.111 C 
BRANCH  12  13
ATOM     13  P   UNK A   0       6.489  -4.616  21.852  0.00  0.00    +0.219 P 
ATOM     14  O   UNK A   0       5.715  -4.138  20.613  0.00  0.00    -0.289 OA
BRANCH  13  15
ATOM     15  C   UNK A   0       5.178  -4.562  23.408  0.00  0.00    +0.135 C 
ATOM     16  C   UNK A   0       5.632  -5.575  24.449  0.00  0.00    +0.034 C 
BRANCH  15  17
ATOM     17  N   UNK A   0       3.886  -4.916  22.801  0.00  0.00    -0.320 NA
ATOM     18  H   UNK A   0       3.577  -5.783  23.259  0.00  0.00    +0.119 HD
ATOM     19  H   UNK A   0       3.185  -4.217  23.036  0.00  0.00    +0.119 HD
ENDBRANCH  15  17
ENDBRANCH  13  15
BRANCH  13  20
ATOM     20  O   UNK A   0       5.980  -6.227  21.479  0.00  0.00    -0.343 OA
ATOM     21  H   UNK A   0       5.335  -6.095  20.746  0.00  0.00    +0.218 HD
ENDBRANCH  13  20
ENDBRANCH  12  13
ENDBRANCH   1  12
BRANCH   1  22
ATOM     22  C   UNK A   0       9.405  -1.872  21.802  0.00  0.00    +0.048 C 
BRANCH  22  23
ATOM     23  C   UNK A   0       9.677  -0.514  22.404  0.00  0.00    -0.047 A 
ATOM     24  C   UNK A   0       9.184   0.583  21.685  0.00  0.00    +0.004 A 
ATOM     25  C   UNK A   0       9.426   1.897  22.093  0.00  0.00    +0.009 A 
ATOM     26  C   UNK A   0      10.196   2.200  23.226  0.00  0.00    -0.018 A 
ATOM     27  C   UNK A   0      10.633   1.090  23.976  0.00  0.00    +0.009 A 
ATOM     28  C   UNK A   0      10.379  -0.243  23.576  0.00  0.00    +0.004 A 
BRANCH  26  29
ATOM     29  C   UNK A   0      10.545   3.616  23.557  0.00  0.00    -0.018 A 
ATOM     30  C   UNK A   0       9.576   4.491  24.100  0.00  0.00    +0.008 A 
ATOM     31  C   UNK A   0       9.861   5.819  24.430  0.00  0.00    +0.001 A 
ATOM     32  C   UNK A   0      11.129   6.331  24.202  0.00  0.00    +0.000 A 
ATOM     33  C   UNK A   0      12.106   5.509  23.651  0.00  0.00    +0.001 A 
ATOM     34  C   UNK A   0      11.820   4.169  23.339  0.00  0.00    +0.008 A 
ENDBRANCH  26  29
ENDBRANCH  22  23
ENDBRANCH   1  22
TORSDOF 12
ENDMDL
MODEL 2
REMARK VINA RESULT:      -7.6      1.805      3.832
REMARK  Name = 
REMARK  14 active torsions:
REMARK  status: ('A' for Active; 'I' for Inactive)
REMARK    1  A    between atoms: C_2  and  C_3
REMARK    2  A    between atoms: C_2  and  N_4
REMARK    3  A    between atoms: C_2  and  P_5
REMARK    4  A    between atoms: P_5  and  O_6
REMARK    5  A    between atoms: P_5  and  C_8
REMARK    6  A    between atoms: C_8  and  C_9
REMARK    7  A    between atoms: C_9  and  C_11
REMARK    8  A    between atoms: C_9  and  C_24
REMARK    9  A    between atoms: C_11  and  C_12
REMARK   10  A    between atoms: C_15  and  C_18
REMARK   11  A    between atoms: N_26  and  CA_27
REMARK   12  A    between atoms: CA_27  and  CB_29
REMARK   13  A    between atoms: CA_27  and  C_30
REMARK   14  A    between atoms: C_30  and  O_31
REMARK                            x       y       z     vdW  Elec       q    Type
REMARK                         _______ _______ _______ _____ _____    ______ ____
ROOT
ATOM      1  C   UNK A   0       8.117  -2.582  23.538  0.00  0.00    +0.088 C 
ENDROOT
BRANCH   1   2
ATOM      2  C   UNK A   0       6.910  -3.069  22.752  0.00  0.00    +0.218 C 
ATOM      3  N   ALA A   1       6.788  -4.435  22.623  0.00  0.00    -0.302 N 
ATOM      4  H   ALA A   1       7.642  -4.980  22.708  0.00  0.00    +0.150 HD
ATOM      5  O   UNK A   0       6.103  -2.282  22.264  0.00  0.00    -0.275 OA
BRANCH   3   6
ATOM      6  CA  ALA A   1       5.721  -5.005  21.768  0.00  0.00    +0.178 C 
ATOM      7  CB  ALA A   1       6.292  -6.005  20.766  0.00  0.00    +0.040 C 
BRANCH   6   8
ATOM      8  C   ALA A   1       4.637  -5.701  22.604  0.00  0.00    +0.325 C 
ATOM      9  OXT ALA A   1       3.520  -5.242  22.801  0.00  0.00    -0.249 OA
BRANCH   8  10
ATOM     10  O   ALA A   1       5.004  -6.919  23.073  0.00  0.00    -0.479 OA
ATOM     11  H   ALA A   1       5.649  -6.816  23.801  0.00  0.00    +0.295 HD
ENDBRANCH   8  10
ENDBRANCH   6   8
ENDBRANCH   3   6
ENDBRANCH   1   2
BRANCH   1  12
ATOM     12  C   UNK A   0       8.553  -3.661  24.569  0.00  0.00    +0.111 C 
BRANCH  12  13
ATOM     13  P   UNK A   0       7.472  -3.468  26.034  0.00  0.00    +0.219 P 
ATOM     14  O   UNK A   0       8.660  -3.061  26.921  0.00  0.00    -0.289 OA
BRANCH  13  15
ATOM     15  C   UNK A   0       7.311  -5.492  26.179  0.00  0.00    +0.135 C 
ATOM     16  C   UNK A   0       5.838  -5.862  26.072  0.00  0.00    +0.034 C 
BRANCH  15  17
ATOM     17  N   UNK A   0       7.876  -5.803  27.501  0.00  0.00    -0.320 NA
ATOM     18  H   UNK A   0       7.327  -6.587  27.876  0.00  0.00    +0.119 HD
ATOM     19  H   UNK A   0       8.826  -6.156  27.401  0.00  0.00    +0.119 HD
ENDBRANCH  15  17
ENDBRANCH  13  15
BRANCH  13  20
ATOM     20  O   UNK A   0       6.450  -3.287  27.418  0.00  0.00    -0.343 OA
ATOM     21  H   UNK A   0       6.411  -2.311  27.544  0.00  0.00    +0.218 HD
ENDBRANCH  13  20
ENDBRANCH  12  13
ENDBRANCH   1  12
BRANCH   1  22
ATOM     22  C   UNK A   0       9.211  -1.977  22.655  0.00  0.00    +0.048 C 
BRANCH  22  23
ATOM     23  C   UNK A   0       9.656  -0.535  22.719  0.00  0.00    -0.047 A 
ATOM     24  C   UNK A   0      10.259  -0.134  23.918  0.00  0.00    +0.004 A 
ATOM     25  C   UNK A   0      10.653   1.190  24.135  0.00  0.00    +0.009 A 
ATOM     26  C   UNK A   0      10.445   2.199  23.182  0.00  0.00    -0.018 A 
ATOM     27  C   UNK A   0       9.896   1.772  21.957  0.00  0.00    +0.009 A 
ATOM     28  C   UNK A   0       9.509   0.431  21.726  0.00  0.00    +0.004 A 
BRANCH  26  29
ATOM     29  C   UNK A   0      10.758   3.626  23.501  0.00  0.00    -0.018 A 
ATOM     30  C   UNK A   0       9.754   4.497  23.983  0.00  0.00    +0.008 A 
ATOM     31  C   UNK A   0      10.005   5.835  24.300  0.00  0.00    +0.001 A 
ATOM     32  C   UNK A   0      11.275   6.361  24.119  0.00  0.00    +0.000 A 
ATOM     33  C   UNK A   0      12.287   5.543  23.627  0.00  0.00    +0.001 A 
ATOM     34  C   UNK A   0      12.034   4.194  23.328  0.00  0.00    +0.008 A 
ENDBRANCH  26  29
ENDBRANCH  22  23
ENDBRANCH   1  22
TORSDOF 12
ENDMDL
MODEL 3
REMARK VINA RESULT:      -7.5      2.046      3.275
REMARK  Name = 
REMARK  14 active torsions:
REMARK  status: ('A' for Active; 'I' for Inactive)
REMARK    1  A    between atoms: C_2  and  C_3
REMARK    2  A    between atoms: C_2  and  N_4
REMARK    3  A    between atoms: C_2  and  P_5
REMARK    4  A    between atoms: P_5  and  O_6
REMARK    5  A    between atoms: P_5  and  C_8
REMARK    6  A    between atoms: C_8  and  C_9
REMARK    7  A    between atoms: C_9  and  C_11
REMARK    8  A    between atoms: C_9  and  C_24
REMARK    9  A    between atoms: C_11  and  C_12
REMARK   10  A    between atoms: C_15  and  C_18
REMARK   11  A    between atoms: N_26  and  CA_27
REMARK   12  A    between atoms: CA_27  and  CB_29
REMARK   13  A    between atoms: CA_27  and  C_30
REMARK   14  A    between atoms: C_30  and  O_31
REMARK                            x       y       z     vdW  Elec       q    Type
REMARK                         _______ _______ _______ _____ _____    ______ ____
ROOT
ATOM      1  C   UNK A   0       7.969  -2.499  22.466  0.00  0.00    +0.088 C 
ENDROOT
BRANCH   1   2
ATOM      2  C   UNK A   0       7.792  -3.702  23.378  0.00  0.00    +0.218 C 
ATOM      3  N   ALA A   1       8.649  -3.771  24.455  0.00  0.00    -0.302 N 
ATOM      4  H   ALA A   1       9.532  -3.276  24.368  0.00  0.00    +0.150 HD
ATOM      5  O   UNK A   0       6.935  -4.554  23.157  0.00  0.00    -0.275 OA
BRANCH   3   6
ATOM      6  CA  ALA A   1       8.644  -4.967  25.328  0.00  0.00    +0.178 C 
ATOM      7  CB  ALA A   1      10.065  -5.416  25.659  0.00  0.00    +0.040 C 
BRANCH   6   8
ATOM      8  C   ALA A   1       7.885  -4.708  26.639  0.00  0.00    +0.325 C 
ATOM      9  OXT ALA A   1       7.282  -3.674  26.891  0.00  0.00    -0.249 OA
BRANCH   8  10
ATOM     10  O   ALA A   1       7.889  -5.761  27.492  0.00  0.00    -0.479 OA
ATOM     11  H   ALA A   1       7.541  -6.557  27.042  0.00  0.00    +0.295 HD
ENDBRANCH   8  10
ENDBRANCH   6   8
ENDBRANCH   3   6
ENDBRANCH   1   2
BRANCH   1  12
ATOM     12  C   UNK A   0       6.821  -1.478  22.700  0.00  0.00    +0.111 C 
BRANCH  12  13
ATOM     13  P   UNK A   0       6.699  -1.216  24.508  0.00  0.00    +0.219 P 
ATOM     14  O   UNK A   0       5.351  -1.953  24.575  0.00  0.00    -0.289 OA
BRANCH  13  15
ATOM     15  C   UNK A   0       6.267   0.748  24.194  0.00  0.00    +0.135 C 
ATOM     16  C   UNK A   0       7.341   1.586  24.873  0.00  0.00    +0.034 C 
BRANCH  15  17
ATOM     17  N   UNK A   0       4.941   0.926  24.805  0.00  0.00    -0.320 NA
ATOM     18  H   UNK A   0       4.907   1.893  25.150  0.00  0.00    +0.119 HD
ATOM     19  H   UNK A   0       4.216   0.863  24.093  0.00  0.00    +0.119 HD
ENDBRANCH  15  17
ENDBRANCH  13  15
BRANCH  13  20
ATOM     20  O   UNK A   0       6.583  -0.968  26.216  0.00  0.00    -0.343 OA
ATOM     21  H   UNK A   0       5.640  -1.173  26.411  0.00  0.00    +0.218 HD
ENDBRANCH  13  20
ENDBRANCH  12  13
ENDBRANCH   1  12
BRANCH   1  22
ATOM     22  C   UNK A   0       9.399  -1.953  22.455  0.00  0.00    +0.048 C 
BRANCH  22  23
ATOM     23  C   UNK A   0       9.753  -0.490  22.573  0.00  0.00    -0.047 A 
ATOM     24  C   UNK A   0      10.428  -0.117  23.743  0.00  0.00    +0.004 A 
ATOM     25  C   UNK A   0      10.751   1.216  24.011  0.00  0.00    +0.009 A 
ATOM     26  C   UNK A   0      10.399   2.261  23.143  0.00  0.00    -0.018 A 
ATOM     27  C   UNK A   0       9.778   1.868  21.941  0.00  0.00    +0.009 A 
ATOM     28  C   UNK A   0       9.460   0.518  21.658  0.00  0.00    +0.004 A 
BRANCH  26  29
ATOM     29  C   UNK A   0      10.644   3.686  23.524  0.00  0.00    -0.018 A 
ATOM     30  C   UNK A   0      11.924   4.267  23.368  0.00  0.00    +0.008 A 
ATOM     31  C   UNK A   0      12.194   5.596  23.706  0.00  0.00    +0.001 A 
ATOM     32  C   UNK A   0      11.192   6.392  24.240  0.00  0.00    +0.000 A 
ATOM     33  C   UNK A   0       9.924   5.853  24.428  0.00  0.00    +0.001 A 
ATOM     34  C   UNK A   0       9.652   4.521  24.070  0.00  0.00    +0.008 A 
ENDBRANCH  26  29
ENDBRANCH  22  23
ENDBRANCH   1  22
TORSDOF 12
ENDMDL
MODEL 4
REMARK VINA RESULT:      -7.5      2.036      3.724
REMARK  Name = 
REMARK  14 active torsions:
REMARK  status: ('A' for Active; 'I' for Inactive)
REMARK    1  A    between atoms: C_2  and  C_3
REMARK    2  A    between atoms: C_2  and  N_4
REMARK    3  A    between atoms: C_2  and  P_5
REMARK    4  A    between atoms: P_5  and  O_6
REMARK    5  A    between atoms: P_5  and  C_8
REMARK    6  A    between atoms: C_8  and  C_9
REMARK    7  A    between atoms: C_9  and  C_11
REMARK    8  A    between atoms: C_9  and  C_24
REMARK    9  A    between atoms: C_11  and  C_12
REMARK   10  A    between atoms: C_15  and  C_18
REMARK   11  A    between atoms: N_26  and  CA_27
REMARK   12  A    between atoms: CA_27  and  CB_29
REMARK   13  A    between atoms: CA_27  and  C_30
REMARK   14  A    between atoms: C_30  and  O_31
REMARK                            x       y       z     vdW  Elec       q    Type
REMARK                         _______ _______ _______ _____ _____    ______ ____
ROOT
ATOM      1  C   UNK A   0       8.009  -2.593  22.568  0.00  0.00    +0.088 C 
ENDROOT
BRANCH   1   2
ATOM      2  C   UNK A   0       7.737  -3.919  23.261  0.00  0.00    +0.218 C 
ATOM      3  N   ALA A   1       6.439  -4.377  23.194  0.00  0.00    -0.302 N 
ATOM      4  H   ALA A   1       5.716  -3.678  23.047  0.00  0.00    +0.150 HD
ATOM      5  O   UNK A   0       8.628  -4.534  23.841  0.00  0.00    -0.275 OA
BRANCH   3   6
ATOM      6  CA  ALA A   1       6.044  -5.591  23.945  0.00  0.00    +0.178 C 
ATOM      7  CB  ALA A   1       5.900  -5.296  25.436  0.00  0.00    +0.040 C 
BRANCH   6   8
ATOM      8  C   ALA A   1       4.722  -6.175  23.423  0.00  0.00    +0.325 C 
ATOM      9  OXT ALA A   1       3.966  -5.590  22.658  0.00  0.00    -0.249 OA
BRANCH   8  10
ATOM     10  O   ALA A   1       4.479  -7.441  23.841  0.00  0.00    -0.479 OA
ATOM     11  H   ALA A   1       5.322  -7.891  24.050  0.00  0.00    +0.295 HD
ENDBRANCH   8  10
ENDBRANCH   6   8
ENDBRANCH   3   6
ENDBRANCH   1   2
BRANCH   1  12
ATOM     12  C   UNK A   0       6.828  -1.612  22.813  0.00  0.00    +0.111 C 
BRANCH  12  13
ATOM     13  P   UNK A   0       6.703  -1.365  24.623  0.00  0.00    +0.219 P 
ATOM     14  O   UNK A   0       5.313  -2.019  24.667  0.00  0.00    -0.289 OA
BRANCH  13  15
ATOM     15  C   UNK A   0       6.395   0.625  24.329  0.00  0.00    +0.135 C 
ATOM     16  C   UNK A   0       7.413   1.392  25.162  0.00  0.00    +0.034 C 
BRANCH  15  17
ATOM     17  N   UNK A   0       5.014   0.845  24.782  0.00  0.00    -0.320 NA
ATOM     18  H   UNK A   0       4.454   0.075  24.395  0.00  0.00    +0.119 HD
ATOM     19  H   UNK A   0       4.957   0.744  25.794  0.00  0.00    +0.119 HD
ENDBRANCH  15  17
ENDBRANCH  13  15
BRANCH  13  20
ATOM     20  O   UNK A   0       6.586  -1.131  26.333  0.00  0.00    -0.343 OA
ATOM     21  H   UNK A   0       5.954  -1.834  26.613  0.00  0.00    +0.218 HD
ENDBRANCH  13  20
ENDBRANCH  12  13
ENDBRANCH   1  12
BRANCH   1  22
ATOM     22  C   UNK A   0       9.423  -2.061  22.814  0.00  0.00    +0.048 C 
BRANCH  22  23
ATOM     23  C   UNK A   0       9.788  -0.597  22.842  0.00  0.00    -0.047 A 
ATOM     24  C   UNK A   0      10.441  -0.151  23.999  0.00  0.00    +0.004 A 
ATOM     25  C   UNK A   0      10.772   1.194  24.184  0.00  0.00    +0.009 A 
ATOM     26  C   UNK A   0      10.449   2.181  23.240  0.00  0.00    -0.018 A 
ATOM     27  C   UNK A   0       9.850   1.714  22.054  0.00  0.00    +0.009 A 
ATOM     28  C   UNK A   0       9.526   0.351  21.855  0.00  0.00    +0.004 A 
BRANCH  26  29
ATOM     29  C   UNK A   0      10.700   3.627  23.531  0.00  0.00    -0.018 A 
ATOM     30  C   UNK A   0      11.984   4.189  23.348  0.00  0.00    +0.008 A 
ATOM     31  C   UNK A   0      12.260   5.536  23.601  0.00  0.00    +0.001 A 
ATOM     32  C   UNK A   0      11.259   6.370  24.075  0.00  0.00    +0.000 A 
ATOM     33  C   UNK A   0       9.986   5.851  24.287  0.00  0.00    +0.001 A 
ATOM     34  C   UNK A   0       9.708   4.501  24.014  0.00  0.00    +0.008 A 
ENDBRANCH  26  29
ENDBRANCH  22  23
ENDBRANCH   1  22
TORSDOF 12
ENDMDL
MODEL 5
REMARK VINA RESULT:      -7.5      1.810      2.476
REMARK  Name = 
REMARK  14 active torsions:
REMARK  status: ('A' for Active; 'I' for Inactive)
REMARK    1  A    between atoms: C_2  and  C_3
REMARK    2  A    between atoms: C_2  and  N_4
REMARK    3  A    between atoms: C_2  and  P_5
REMARK    4  A    between atoms: P_5  and  O_6
REMARK    5  A    between atoms: P_5  and  C_8
REMARK    6  A    between atoms: C_8  and  C_9
REMARK    7  A    between atoms: C_9  and  C_11
REMARK    8  A    between atoms: C_9  and  C_24
REMARK    9  A    between atoms: C_11  and  C_12
REMARK   10  A    between atoms: C_15  and  C_18
REMARK   11  A    between atoms: N_26  and  CA_27
REMARK   12  A    between atoms: CA_27  and  CB_29
REMARK   13  A    between atoms: CA_27  and  C_30
REMARK   14  A    between atoms: C_30  and  O_31
REMARK                            x       y       z     vdW  Elec       q    Type
REMARK                         _______ _______ _______ _____ _____    ______ ____
ROOT
ATOM      1  C   UNK A   0       8.203  -2.747  22.977  0.00  0.00    +0.088 C 
ENDROOT
BRANCH   1   2
ATOM      2  C   UNK A   0       7.820  -2.139  24.317  0.00  0.00    +0.218 C 
ATOM      3  N   ALA A   1       6.946  -1.075  24.267  0.00  0.00    -0.302 N 
ATOM      4  H   ALA A   1       6.920  -0.547  23.399  0.00  0.00    +0.150 HD
ATOM      5  O   UNK A   0       8.270  -2.579  25.372  0.00  0.00    -0.275 OA
BRANCH   3   6
ATOM      6  CA  ALA A   1       6.613  -0.333  25.505  0.00  0.00    +0.178 C 
ATOM      7  CB  ALA A   1       7.601   0.806  25.749  0.00  0.00    +0.040 C 
BRANCH   6   8
ATOM      8  C   ALA A   1       5.190   0.243  25.454  0.00  0.00    +0.325 C 
ATOM      9  OXT ALA A   1       4.292  -0.074  26.222  0.00  0.00    -0.249 OA
BRANCH   8  10
ATOM     10  O   ALA A   1       5.019   1.196  24.504  0.00  0.00    -0.479 OA
ATOM     11  H   ALA A   1       5.767   1.826  24.525  0.00  0.00    +0.295 HD
ENDBRANCH   8  10
ENDBRANCH   6   8
ENDBRANCH   3   6
ENDBRANCH   1   2
BRANCH   1  12
ATOM     12  C   UNK A   0       6.935  -2.951  22.102  0.00  0.00    +0.111 C 
BRANCH  12  13
ATOM     13  P   UNK A   0       6.525  -4.735  22.161  0.00  0.00    +0.219 P 
ATOM     14  O   UNK A   0       5.912  -4.692  20.751  0.00  0.00    -0.289 OA
BRANCH  13  15
ATOM     15  C   UNK A   0       5.009  -4.342  23.461  0.00  0.00    +0.135 C 
ATOM     16  C   UNK A   0       5.355  -4.975  24.801  0.00  0.00    +0.034 C 
BRANCH  15  17
ATOM     17  N   UNK A   0       3.830  -4.959  22.833  0.00  0.00    -0.320 NA
ATOM     18  H   UNK A   0       4.137  -5.309  21.917  0.00  0.00    +0.119 HD
ATOM     19  H   UNK A   0       3.543  -5.781  23.360  0.00  0.00    +0.119 HD
ENDBRANCH  15  17
ENDBRANCH  13  15
BRANCH  13  20
ATOM     20  O   UNK A   0       6.138  -6.420  22.217  0.00  0.00    -0.343 OA
ATOM     21  H   UNK A   0       7.015  -6.856  22.112  0.00  0.00    +0.218 HD
ENDBRANCH  13  20
ENDBRANCH  12  13
ENDBRANCH   1  12
BRANCH   1  22
ATOM     22  C   UNK A   0       9.402  -2.058  22.321  0.00  0.00    +0.048 C 
BRANCH  22  23
ATOM     23  C   UNK A   0       9.717  -0.587  22.455  0.00  0.00    -0.047 A 
ATOM     24  C   UNK A   0      10.464  -0.222  23.583  0.00  0.00    +0.004 A 
ATOM     25  C   UNK A   0      10.764   1.113  23.865  0.00  0.00    +0.009 A 
ATOM     26  C   UNK A   0      10.315   2.168  23.055  0.00  0.00    -0.018 A 
ATOM     27  C   UNK A   0       9.620   1.787  21.891  0.00  0.00    +0.009 A 
ATOM     28  C   UNK A   0       9.326   0.435  21.593  0.00  0.00    +0.004 A 
BRANCH  26  29
ATOM     29  C   UNK A   0      10.542   3.590  23.459  0.00  0.00    -0.018 A 
ATOM     30  C   UNK A   0      11.813   4.191  23.307  0.00  0.00    +0.008 A 
ATOM     31  C   UNK A   0      12.067   5.518  23.665  0.00  0.00    +0.001 A 
ATOM     32  C   UNK A   0      11.057   6.291  24.216  0.00  0.00    +0.000 A 
ATOM     33  C   UNK A   0       9.796   5.732  24.401  0.00  0.00    +0.001 A 
ATOM     34  C   UNK A   0       9.541   4.403  24.022  0.00  0.00    +0.008 A 
ENDBRANCH  26  29
ENDBRANCH  22  23
ENDBRANCH   1  22
TORSDOF 12
ENDMDL
MODEL 6
REMARK VINA RESULT:      -7.3      1.184      1.605
REMARK  Name = 
REMARK  14 active torsions:
REMARK  status: ('A' for Active; 'I' for Inactive)
REMARK    1  A    between atoms: C_2  and  C_3
REMARK    2  A    between atoms: C_2  and  N_4
REMARK    3  A    between atoms: C_2  and  P_5
REMARK    4  A    between atoms: P_5  and  O_6
REMARK    5  A    between atoms: P_5  and  C_8
REMARK    6  A    between atoms: C_8  and  C_9
REMARK    7  A    between atoms: C_9  and  C_11
REMARK    8  A    between atoms: C_9  and  C_24
REMARK    9  A    between atoms: C_11  and  C_12
REMARK   10  A    between atoms: C_15  and  C_18
REMARK   11  A    between atoms: N_26  and  CA_27
REMARK   12  A    between atoms: CA_27  and  CB_29
REMARK   13  A    between atoms: CA_27  and  C_30
REMARK   14  A    between atoms: C_30  and  O_31
REMARK                            x       y       z     vdW  Elec       q    Type
REMARK                         _______ _______ _______ _____ _____    ______ ____
ROOT
ATOM      1  C   UNK A   0       8.279  -3.497  23.699  0.00  0.00    +0.088 C 
ENDROOT
BRANCH   1   2
ATOM      2  C   UNK A   0       8.148  -3.774  25.188  0.00  0.00    +0.218 C 
ATOM      3  N   ALA A   1       6.865  -3.763  25.691  0.00  0.00    -0.302 N 
ATOM      4  H   ALA A   1       6.176  -3.226  25.171  0.00  0.00    +0.150 HD
ATOM      5  O   UNK A   0       9.133  -3.991  25.889  0.00  0.00    -0.275 OA
BRANCH   3   6
ATOM      6  CA  ALA A   1       6.642  -3.893  27.149  0.00  0.00    +0.178 C 
ATOM      7  CB  ALA A   1       5.385  -3.142  27.584  0.00  0.00    +0.040 C 
BRANCH   6   8
ATOM      8  C   ALA A   1       6.516  -5.363  27.574  0.00  0.00    +0.325 C 
ATOM      9  OXT ALA A   1       5.451  -5.947  27.727  0.00  0.00    -0.249 OA
BRANCH   8  10
ATOM     10  O   ALA A   1       7.706  -5.997  27.715  0.00  0.00    -0.479 OA
ATOM     11  H   ALA A   1       7.752  -6.761  27.105  0.00  0.00    +0.295 HD
ENDBRANCH   8  10
ENDBRANCH   6   8
ENDBRANCH   3   6
ENDBRANCH   1   2
BRANCH   1  12
ATOM     12  C   UNK A   0       6.910  -3.046  23.118  0.00  0.00    +0.111 C 
BRANCH  12  13
ATOM     13  P   UNK A   0       6.326  -4.389  22.019  0.00  0.00    +0.219 P 
ATOM     14  O   UNK A   0       5.597  -3.392  21.104  0.00  0.00    -0.289 OA
BRANCH  13  15
ATOM     15  C   UNK A   0       4.980  -4.960  23.437  0.00  0.00    +0.135 C 
ATOM     16  C   UNK A   0       5.367  -6.348  23.928  0.00  0.00    +0.034 C 
BRANCH  15  17
ATOM     17  N   UNK A   0       3.690  -4.949  22.731  0.00  0.00    -0.320 NA
ATOM     18  H   UNK A   0       2.974  -4.731  23.436  0.00  0.00    +0.119 HD
ATOM     19  H   UNK A   0       3.662  -4.181  22.065  0.00  0.00    +0.119 HD
ENDBRANCH  15  17
ENDBRANCH  13  15
BRANCH  13  20
ATOM     20  O   UNK A   0       5.773  -5.659  20.983  0.00  0.00    -0.343 OA
ATOM     21  H   UNK A   0       4.897  -5.896  21.365  0.00  0.00    +0.218 HD
ENDBRANCH  13  20
ENDBRANCH  12  13
ENDBRANCH   1  12
BRANCH   1  22
ATOM     22  C   UNK A   0       9.503  -2.648  23.347  0.00  0.00    +0.048 C 
BRANCH  22  23
ATOM     23  C   UNK A   0       9.588  -1.154  23.547  0.00  0.00    -0.047 A 
ATOM     24  C   UNK A   0       9.617  -0.381  22.378  0.00  0.00    +0.004 A 
ATOM     25  C   UNK A   0       9.766   1.008  22.419  0.00  0.00    +0.009 A 
ATOM     26  C   UNK A   0       9.923   1.709  23.625  0.00  0.00    -0.018 A 
ATOM     27  C   UNK A   0       9.828   0.931  24.796  0.00  0.00    +0.009 A 
ATOM     28  C   UNK A   0       9.663  -0.474  24.760  0.00  0.00    +0.004 A 
BRANCH  26  29
ATOM     29  C   UNK A   0      10.211   3.176  23.623  0.00  0.00    -0.018 A 
ATOM     30  C   UNK A   0      11.524   3.655  23.408  0.00  0.00    +0.008 A 
ATOM     31  C   UNK A   0      11.836   5.018  23.392  0.00  0.00    +0.001 A 
ATOM     32  C   UNK A   0      10.842   5.957  23.617  0.00  0.00    +0.000 A 
ATOM     33  C   UNK A   0       9.540   5.527  23.853  0.00  0.00    +0.001 A 
ATOM     34  C   UNK A   0       9.228   4.157  23.850  0.00  0.00    +0.008 A 
ENDBRANCH  26  29
ENDBRANCH  22  23
ENDBRANCH   1  22
TORSDOF 12
ENDMDL
MODEL 7
REMARK VINA RESULT:      -7.2      1.992      2.900
REMARK  Name = 
REMARK  14 active torsions:
REMARK  status: ('A' for Active; 'I' for Inactive)
REMARK    1  A    between atoms: C_2  and  C_3
REMARK    2  A    between atoms: C_2  and  N_4
REMARK    3  A    between atoms: C_2  and  P_5
REMARK    4  A    between atoms: P_5  and  O_6
REMARK    5  A    between atoms: P_5  and  C_8
REMARK    6  A    between atoms: C_8  and  C_9
REMARK    7  A    between atoms: C_9  and  C_11
REMARK    8  A    between atoms: C_9  and  C_24
REMARK    9  A    between atoms: C_11  and  C_12
REMARK   10  A    between atoms: C_15  and  C_18
REMARK   11  A    between atoms: N_26  and  CA_27
REMARK   12  A    between atoms: CA_27  and  CB_29
REMARK   13  A    between atoms: CA_27  and  C_30
REMARK   14  A    between atoms: C_30  and  O_31
REMARK                            x       y       z     vdW  Elec       q    Type
REMARK                         _______ _______ _______ _____ _____    ______ ____
ROOT
ATOM      1  C   UNK A   0       7.670  -4.697  24.840  0.00  0.00    +0.088 C 
ENDROOT
BRANCH   1   2
ATOM      2  C   UNK A   0       7.470  -4.899  26.334  0.00  0.00    +0.218 C 
ATOM      3  N   ALA A   1       6.163  -5.008  26.756  0.00  0.00    -0.302 N 
ATOM      4  H   ALA A   1       5.455  -4.586  26.162  0.00  0.00    +0.150 HD
ATOM      5  O   UNK A   0       8.424  -4.959  27.106  0.00  0.00    -0.275 OA
BRANCH   3   6
ATOM      6  CA  ALA A   1       5.857  -5.077  28.204  0.00  0.00    +0.178 C 
ATOM      7  CB  ALA A   1       4.612  -4.262  28.545  0.00  0.00    +0.040 C 
BRANCH   6   8
ATOM      8  C   ALA A   1       5.649  -6.525  28.670  0.00  0.00    +0.325 C 
ATOM      9  OXT ALA A   1       5.800  -6.906  29.823  0.00  0.00    -0.249 OA
BRANCH   8  10
ATOM     10  O   ALA A   1       5.219  -7.359  27.692  0.00  0.00    -0.479 OA
ATOM     11  H   ALA A   1       5.573  -8.259  27.841  0.00  0.00    +0.295 HD
ENDBRANCH   8  10
ENDBRANCH   6   8
ENDBRANCH   3   6
ENDBRANCH   1   2
BRANCH   1  12
ATOM     12  C   UNK A   0       6.420  -4.010  24.223  0.00  0.00    +0.111 C 
BRANCH  12  13
ATOM     13  P   UNK A   0       5.822  -5.098  22.877  0.00  0.00    +0.219 P 
ATOM     14  O   UNK A   0       5.496  -3.893  21.979  0.00  0.00    -0.289 OA
BRANCH  13  15
ATOM     15  C   UNK A   0       4.135  -5.492  23.947  0.00  0.00    +0.135 C 
ATOM     16  C   UNK A   0       4.161  -6.960  24.352  0.00  0.00    +0.034 C 
BRANCH  15  17
ATOM     17  N   UNK A   0       3.039  -5.182  23.016  0.00  0.00    -0.320 NA
ATOM     18  H   UNK A   0       3.346  -5.500  22.088  0.00  0.00    +0.119 HD
ATOM     19  H   UNK A   0       2.220  -5.743  23.241  0.00  0.00    +0.119 HD
ENDBRANCH  15  17
ENDBRANCH  13  15
BRANCH  13  20
ATOM     20  O   UNK A   0       5.256  -6.125  21.606  0.00  0.00    -0.343 OA
ATOM     21  H   UNK A   0       5.923  -6.850  21.588  0.00  0.00    +0.218 HD
ENDBRANCH  13  20
ENDBRANCH  12  13
ENDBRANCH   1  12
BRANCH   1  22
ATOM     22  C   UNK A   0       9.038  -4.108  24.487  0.00  0.00    +0.048 C 
BRANCH  22  23
ATOM     23  C   UNK A   0       9.316  -2.631  24.340  0.00  0.00    -0.047 A 
ATOM     24  C   UNK A   0       8.995  -1.835  25.447  0.00  0.00    +0.004 A 
ATOM     25  C   UNK A   0       9.137  -0.445  25.417  0.00  0.00    +0.009 A 
ATOM     26  C   UNK A   0       9.580   0.239  24.275  0.00  0.00    -0.018 A 
ATOM     27  C   UNK A   0       9.960  -0.576  23.190  0.00  0.00    +0.009 A 
ATOM     28  C   UNK A   0       9.832  -1.985  23.219  0.00  0.00    +0.004 A 
BRANCH  26  29
ATOM     29  C   UNK A   0       9.593   1.734  24.236  0.00  0.00    -0.018 A 
ATOM     30  C   UNK A   0       8.580   2.483  24.878  0.00  0.00    +0.008 A 
ATOM     31  C   UNK A   0       8.558   3.881  24.872  0.00  0.00    +0.001 A 
ATOM     32  C   UNK A   0       9.544   4.585  24.198  0.00  0.00    +0.000 A 
ATOM     33  C   UNK A   0      10.548   3.885  23.537  0.00  0.00    +0.001 A 
ATOM     34  C   UNK A   0      10.576   2.480  23.561  0.00  0.00    +0.008 A 
ENDBRANCH  26  29
ENDBRANCH  22  23
ENDBRANCH   1  22
TORSDOF 12
ENDMDL
MODEL 8
REMARK VINA RESULT:      -7.0      2.726      5.042
REMARK  Name = 
REMARK  14 active torsions:
REMARK  status: ('A' for Active; 'I' for Inactive)
REMARK    1  A    between atoms: C_2  and  C_3
REMARK    2  A    between atoms: C_2  and  N_4
REMARK    3  A    between atoms: C_2  and  P_5
REMARK    4  A    between atoms: P_5  and  O_6
REMARK    5  A    between atoms: P_5  and  C_8
REMARK    6  A    between atoms: C_8  and  C_9
REMARK    7  A    between atoms: C_9  and  C_11
REMARK    8  A    between atoms: C_9  and  C_24
REMARK    9  A    between atoms: C_11  and  C_12
REMARK   10  A    between atoms: C_15  and  C_18
REMARK   11  A    between atoms: N_26  and  CA_27
REMARK   12  A    between atoms: CA_27  and  CB_29
REMARK   13  A    between atoms: CA_27  and  C_30
REMARK   14  A    between atoms: C_30  and  O_31
REMARK                            x       y       z     vdW  Elec       q    Type
REMARK                         _______ _______ _______ _____ _____    ______ ____
ROOT
ATOM      1  C   UNK A   0       6.626  -4.583  26.125  0.00  0.00    +0.088 C 
ENDROOT
BRANCH   1   2
ATOM      2  C   UNK A   0       5.802  -4.369  24.864  0.00  0.00    +0.218 C 
ATOM      3  N   ALA A   1       6.368  -4.823  23.693  0.00  0.00    -0.302 N 
ATOM      4  H   ALA A   1       7.381  -4.905  23.677  0.00  0.00    +0.150 HD
ATOM      5  O   UNK A   0       4.702  -3.824  24.902  0.00  0.00    -0.275 OA
BRANCH   3   6
ATOM      6  CA  ALA A   1       5.706  -4.547  22.397  0.00  0.00    +0.178 C 
ATOM      7  CB  ALA A   1       6.159  -3.208  21.818  0.00  0.00    +0.040 C 
BRANCH   6   8
ATOM      8  C   ALA A   1       5.987  -5.654  21.370  0.00  0.00    +0.325 C 
ATOM      9  OXT ALA A   1       5.973  -5.488  20.158  0.00  0.00    -0.249 OA
BRANCH   8  10
ATOM     10  O   ALA A   1       6.315  -6.846  21.926  0.00  0.00    -0.479 OA
ATOM     11  H   ALA A   1       7.113  -7.209  21.492  0.00  0.00    +0.295 HD
ENDBRANCH   8  10
ENDBRANCH   6   8
ENDBRANCH   3   6
ENDBRANCH   1   2
BRANCH   1  12
ATOM     12  C   UNK A   0       6.309  -5.975  26.739  0.00  0.00    +0.111 C 
BRANCH  12  13
ATOM     13  P   UNK A   0       6.030  -5.718  28.531  0.00  0.00    +0.219 P 
ATOM     14  O   UNK A   0       6.835  -6.978  28.888  0.00  0.00    -0.289 OA
BRANCH  13  15
ATOM     15  C   UNK A   0       4.096  -6.313  28.313  0.00  0.00    +0.135 C 
ATOM     16  C   UNK A   0       3.195  -5.121  28.609  0.00  0.00    +0.034 C 
BRANCH  15  17
ATOM     17  N   UNK A   0       3.940  -7.395  29.297  0.00  0.00    -0.320 NA
ATOM     18  H   UNK A   0       4.094  -6.973  30.221  0.00  0.00    +0.119 HD
ATOM     19  H   UNK A   0       2.978  -7.726  29.304  0.00  0.00    +0.119 HD
ENDBRANCH  15  17
ENDBRANCH  13  15
BRANCH  13  20
ATOM     20  O   UNK A   0       5.766  -5.476  30.223  0.00  0.00    -0.343 OA
ATOM     21  H   UNK A   0       6.078  -6.320  30.623  0.00  0.00    +0.218 HD
ENDBRANCH  13  20
ENDBRANCH  12  13
ENDBRANCH   1  12
BRANCH   1  22
ATOM     22  C   UNK A   0       8.101  -4.214  25.953  0.00  0.00    +0.048 C 
BRANCH  22  23
ATOM     23  C   UNK A   0       8.593  -2.857  25.509  0.00  0.00    -0.047 A 
ATOM     24  C   UNK A   0       8.372  -1.803  26.406  0.00  0.00    +0.004 A 
ATOM     25  C   UNK A   0       8.714  -0.486  26.090  0.00  0.00    +0.009 A 
ATOM     26  C   UNK A   0       9.272  -0.134  24.851  0.00  0.00    -0.018 A 
ATOM     27  C   UNK A   0       9.548  -1.208  23.982  0.00  0.00    +0.009 A 
ATOM     28  C   UNK A   0       9.217  -2.546  24.303  0.00  0.00    +0.004 A 
BRANCH  26  29
ATOM     29  C   UNK A   0       9.502   1.301  24.497  0.00  0.00    -0.018 A 
ATOM     30  C   UNK A   0       8.564   2.295  24.860  0.00  0.00    +0.008 A 
ATOM     31  C   UNK A   0       8.744   3.648  24.556  0.00  0.00    +0.001 A 
ATOM     32  C   UNK A   0       9.865   4.054  23.849  0.00  0.00    +0.000 A 
ATOM     33  C   UNK A   0      10.803   3.105  23.456  0.00  0.00    +0.001 A 
ATOM     34  C   UNK A   0      10.627   1.749  23.780  0.00  0.00    +0.008 A 
ENDBRANCH  26  29
ENDBRANCH  22  23
ENDBRANCH   1  22
TORSDOF 12
ENDMDL
MODEL 9
REMARK VINA RESULT:      -7.0      2.981      8.685
REMARK  Name = 
REMARK  14 active torsions:
REMARK  status: ('A' for Active; 'I' for Inactive)
REMARK    1  A    between atoms: C_2  and  C_3
REMARK    2  A    between atoms: C_2  and  N_4
REMARK    3  A    between atoms: C_2  and  P_5
REMARK    4  A    between atoms: P_5  and  O_6
REMARK    5  A    between atoms: P_5  and  C_8
REMARK    6  A    between atoms: C_8  and  C_9
REMARK    7  A    between atoms: C_9  and  C_11
REMARK    8  A    between atoms: C_9  and  C_24
REMARK    9  A    between atoms: C_11  and  C_12
REMARK   10  A    between atoms: C_15  and  C_18
REMARK   11  A    between atoms: N_26  and  CA_27
REMARK   12  A    between atoms: CA_27  and  CB_29
REMARK   13  A    between atoms: CA_27  and  C_30
REMARK   14  A    between atoms: C_30  and  O_31
REMARK                            x       y       z     vdW  Elec       q    Type
REMARK                         _______ _______ _______ _____ _____    ______ ____
ROOT
ATOM      1  C   UNK A   0       8.588  -2.695  23.333  0.00  0.00    +0.088 C 
ENDROOT
BRANCH   1   2
ATOM      2  C   UNK A   0       9.580  -1.622  22.914  0.00  0.00    +0.218 C 
ATOM      3  N   ALA A   1       9.190  -0.321  23.142  0.00  0.00    -0.302 N 
ATOM      4  H   ALA A   1       8.190  -0.148  23.202  0.00  0.00    +0.150 HD
ATOM      5  O   UNK A   0      10.660  -1.911  22.404  0.00  0.00    -0.275 OA
BRANCH   3   6
ATOM      6  CA  ALA A   1      10.027   0.799  22.653  0.00  0.00    +0.178 C 
ATOM      7  CB  ALA A   1       9.250   1.689  21.686  0.00  0.00    +0.040 C 
BRANCH   6   8
ATOM      8  C   ALA A   1      10.553   1.661  23.811  0.00  0.00    +0.325 C 
ATOM      9  OXT ALA A   1      10.954   2.810  23.686  0.00  0.00    -0.249 OA
BRANCH   8  10
ATOM     10  O   ALA A   1      10.484   1.053  25.021  0.00  0.00    -0.479 OA
ATOM     11  H   ALA A   1       9.665   1.323  25.483  0.00  0.00    +0.295 HD
ENDBRANCH   8  10
ENDBRANCH   6   8
ENDBRANCH   3   6
ENDBRANCH   1   2
BRANCH   1  12
ATOM     12  C   UNK A   0       8.151  -2.471  24.808  0.00  0.00    +0.111 C 
BRANCH  12  13
ATOM     13  P   UNK A   0       8.711  -3.931  25.760  0.00  0.00    +0.219 P 
ATOM     14  O   UNK A   0       9.173  -4.651  24.482  0.00  0.00    -0.289 OA
BRANCH  13  15
ATOM     15  C   UNK A   0       6.774  -4.478  26.061  0.00  0.00    +0.135 C 
ATOM     16  C   UNK A   0       6.425  -4.211  27.519  0.00  0.00    +0.034 C 
BRANCH  15  17
ATOM     17  N   UNK A   0       6.748  -5.909  25.727  0.00  0.00    -0.320 NA
ATOM     18  H   UNK A   0       7.573  -6.328  26.175  0.00  0.00    +0.119 HD
ATOM     19  H   UNK A   0       5.944  -6.356  26.161  0.00  0.00    +0.119 HD
ENDBRANCH  15  17
ENDBRANCH  13  15
BRANCH  13  20
ATOM     20  O   UNK A   0       9.240  -5.310  26.660  0.00  0.00    -0.343 OA
ATOM     21  H   UNK A   0       8.396  -5.722  26.959  0.00  0.00    +0.218 HD
ENDBRANCH  13  20
ENDBRANCH  12  13
ENDBRANCH   1  12
BRANCH   1  22
ATOM     22  C   UNK A   0       7.480  -2.930  22.303  0.00  0.00    +0.048 C 
BRANCH  22  23
ATOM     23  C   UNK A   0       6.382  -3.955  22.453  0.00  0.00    -0.047 A 
ATOM     24  C   UNK A   0       5.193  -3.497  23.037  0.00  0.00    +0.004 A 
ATOM     25  C   UNK A   0       4.124  -4.358  23.298  0.00  0.00    +0.009 A 
ATOM     26  C   UNK A   0       4.183  -5.732  23.019  0.00  0.00    -0.018 A 
ATOM     27  C   UNK A   0       5.356  -6.170  22.374  0.00  0.00    +0.009 A 
ATOM     28  C   UNK A   0       6.437  -5.300  22.094  0.00  0.00    +0.004 A 
BRANCH  26  29
ATOM     29  C   UNK A   0       3.072  -6.644  23.432  0.00  0.00    -0.018 A 
ATOM     30  C   UNK A   0       1.865  -6.693  22.698  0.00  0.00    +0.008 A 
ATOM     31  C   UNK A   0       0.805  -7.535  23.045  0.00  0.00    +0.001 A 
ATOM     32  C   UNK A   0       0.905  -8.347  24.165  0.00  0.00    +0.000 A 
ATOM     33  C   UNK A   0       2.069  -8.315  24.926  0.00  0.00    +0.001 A 
ATOM     34  C   UNK A   0       3.139  -7.480  24.562  0.00  0.00    +0.008 A 
ENDBRANCH  26  29
ENDBRANCH  22  23
ENDBRANCH   1  22
TORSDOF 12
ENDMDL
