MODEL 1
REMARK VINA RESULT:      -7.1      0.000      0.000
REMARK  Name = 
REMARK  5 active torsions:
REMARK  status: ('A' for Active; 'I' for Inactive)
REMARK    1  A    between atoms: C_2  and  N_3
REMARK    2  A    between atoms: C_2  and  C_4
REMARK    3  A    between atoms: C_2  and  C_17
REMARK    4  A    between atoms: C_13  and  C_15
REMARK    5  A    between atoms: C_25  and  O_26
REMARK                            x       y       z     vdW  Elec       q    Type
REMARK                         _______ _______ _______ _____ _____    ______ ____
ROOT
ATOM      1  C   UNL     1       8.847  -2.381  24.013  0.00  0.00    +0.144 C 
ENDROOT
BRANCH   1   2
ATOM      2  C   UNL     1       8.883  -0.884  23.639  0.00  0.00    -0.002 C 
ATOM      3  C   UNL     1       9.814  -0.676  22.413  0.00  0.00    +0.012 C 
ATOM      4  C   UNL     1       9.878   0.808  22.030  0.00  0.00    -0.007 C 
ATOM      5  C   UNL     1       8.475   1.296  21.640  0.00  0.00    +0.038 C 
ATOM      6  C   UNL     1       7.508   1.100  22.816  0.00  0.00    +0.067 C 
ATOM      7  C   UNL     1       8.001   1.920  24.019  0.00  0.00    +0.038 C 
ATOM      8  C   UNL     1       9.408   1.465  24.423  0.00  0.00    -0.007 C 
ATOM      9  C   UNL     1      10.380   1.608  23.242  0.00  0.00    +0.007 C 
ATOM     10  C   UNL     1       7.469  -0.389  23.197  0.00  0.00    +0.043 C 
ATOM     11  C   UNL     1       9.349  -0.007  24.828  0.00  0.00    +0.012 C 
BRANCH   6  12
ATOM     12  O   UNL     1       6.200   1.506  22.443  0.00  0.00    -0.389 OA
ATOM     13  H   UNL     1       5.568   1.073  23.045  0.00  0.00    +0.210 HD
ENDBRANCH   6  12
ENDBRANCH   1   2
BRANCH   1  14
ATOM     14  C   UNL     1       7.742  -3.204  23.218  0.00  0.00    +0.234 C 
ATOM     15  N   UNL     1       6.615  -3.668  23.894  0.00  0.00    -0.281 N 
ATOM     16  C   UNL     1       6.488  -4.025  25.325  0.00  0.00    +0.179 C 
ATOM     17  C   UNL     1       5.726  -5.357  25.351  0.00  0.00    +0.043 C 
ATOM     18  C   UNL     1       4.902  -5.324  24.090  0.00  0.00    +0.014 C 
ATOM     19  C   UNL     1       5.500  -5.727  22.769  0.00  0.00    +0.028 C 
ATOM     20  C   UNL     1       5.524  -4.289  23.181  0.00  0.00    +0.081 C 
ATOM     21  O   UNL     1       7.841  -3.410  22.003  0.00  0.00    -0.274 OA
BRANCH  16  22
ATOM     22  C   UNL     1       7.840  -4.089  26.019  0.00  0.00    +0.085 C 
ATOM     23  N   UNL     1       8.960  -4.143  26.595  0.00  0.00    -0.195 NA
ENDBRANCH  16  22
ENDBRANCH   1  14
BRANCH   1  24
ATOM     24  N   UNL     1      10.164  -3.023  23.798  0.00  0.00    -0.319 NA
ATOM     25  H   UNL     1      10.284  -3.814  24.427  0.00  0.00    +0.119 HD
ATOM     26  H   UNL     1      10.186  -3.466  22.872  0.00  0.00    +0.119 HD
ENDBRANCH   1  24
TORSDOF 5
ENDMDL
MODEL 2
REMARK VINA RESULT:      -6.9      0.890      1.499
REMARK  Name = 
REMARK  5 active torsions:
REMARK  status: ('A' for Active; 'I' for Inactive)
REMARK    1  A    between atoms: C_2  and  N_3
REMARK    2  A    between atoms: C_2  and  C_4
REMARK    3  A    between atoms: C_2  and  C_17
REMARK    4  A    between atoms: C_13  and  C_15
REMARK    5  A    between atoms: C_25  and  O_26
REMARK                            x       y       z     vdW  Elec       q    Type
REMARK                         _______ _______ _______ _____ _____    ______ ____
ROOT
ATOM      1  C   UNL     1       8.782  -2.511  24.246  0.00  0.00    +0.144 C 
ENDROOT
BRANCH   1   2
ATOM      2  C   UNL     1       8.689  -0.987  24.018  0.00  0.00    -0.002 C 
ATOM      3  C   UNL     1       9.838  -0.275  24.784  0.00  0.00    +0.012 C 
ATOM      4  C   UNL     1       9.757   1.245  24.584  0.00  0.00    -0.007 C 
ATOM      5  C   UNL     1       9.915   1.573  23.093  0.00  0.00    +0.038 C 
ATOM      6  C   UNL     1       8.808   0.880  22.286  0.00  0.00    +0.067 C 
ATOM      7  C   UNL     1       7.439   1.390  22.762  0.00  0.00    +0.038 C 
ATOM      8  C   UNL     1       7.258   1.088  24.255  0.00  0.00    -0.007 C 
ATOM      9  C   UNL     1       8.386   1.734  25.075  0.00  0.00    +0.007 C 
ATOM     10  C   UNL     1       8.893  -0.638  22.509  0.00  0.00    +0.043 C 
ATOM     11  C   UNL     1       7.314  -0.425  24.459  0.00  0.00    +0.012 C 
BRANCH   6  12
ATOM     12  O   UNL     1       8.978   1.144  20.901  0.00  0.00    -0.389 OA
ATOM     13  H   UNL     1       9.879   1.492  20.770  0.00  0.00    +0.210 HD
ENDBRANCH   6  12
ENDBRANCH   1   2
BRANCH   1  14
ATOM     14  C   UNL     1       7.660  -3.333  23.475  0.00  0.00    +0.234 C 
ATOM     15  N   UNL     1       6.568  -3.831  24.183  0.00  0.00    -0.281 N 
ATOM     16  C   UNL     1       6.502  -4.222  25.610  0.00  0.00    +0.179 C 
ATOM     17  C   UNL     1       5.762  -5.567  25.634  0.00  0.00    +0.043 C 
ATOM     18  C   UNL     1       4.889  -5.519  24.407  0.00  0.00    +0.014 C 
ATOM     19  C   UNL     1       5.440  -5.882  23.056  0.00  0.00    +0.028 C 
ATOM     20  C   UNL     1       5.459  -4.453  23.499  0.00  0.00    +0.081 C 
ATOM     21  O   UNL     1       7.713  -3.510  22.253  0.00  0.00    -0.274 OA
BRANCH  16  22
ATOM     22  C   UNL     1       7.881  -4.280  26.249  0.00  0.00    +0.085 C 
ATOM     23  N   UNL     1       9.025  -4.329  26.778  0.00  0.00    -0.195 NA
ENDBRANCH  16  22
ENDBRANCH   1  14
BRANCH   1  24
ATOM     24  N   UNL     1      10.109  -3.035  23.851  0.00  0.00    -0.319 NA
ATOM     25  H   UNL     1      10.742  -3.043  24.649  0.00  0.00    +0.119 HD
ATOM     26  H   UNL     1      10.033  -4.031  23.614  0.00  0.00    +0.119 HD
ENDBRANCH   1  24
TORSDOF 5
ENDMDL
MODEL 3
REMARK VINA RESULT:      -6.8      2.211      6.057
REMARK  Name = 
REMARK  5 active torsions:
REMARK  status: ('A' for Active; 'I' for Inactive)
REMARK    1  A    between atoms: C_2  and  N_3
REMARK    2  A    between atoms: C_2  and  C_4
REMARK    3  A    between atoms: C_2  and  C_17
REMARK    4  A    between atoms: C_13  and  C_15
REMARK    5  A    between atoms: C_25  and  O_26
REMARK                            x       y       z     vdW  Elec       q    Type
REMARK                         _______ _______ _______ _____ _____    ______ ____
ROOT
ATOM      1  C   UNL     1       8.569  -0.981  25.356  0.00  0.00    +0.144 C 
ENDROOT
BRANCH   1   2
ATOM      2  C   UNL     1       8.144  -2.464  25.346  0.00  0.00    -0.002 C 
ATOM      3  C   UNL     1       7.343  -2.768  24.049  0.00  0.00    +0.012 C 
ATOM      4  C   UNL     1       6.895  -4.235  24.023  0.00  0.00    -0.007 C 
ATOM      5  C   UNL     1       8.131  -5.146  24.034  0.00  0.00    +0.038 C 
ATOM      6  C   UNL     1       8.968  -4.876  25.293  0.00  0.00    +0.067 C 
ATOM      7  C   UNL     1       8.120  -5.178  26.539  0.00  0.00    +0.038 C 
ATOM      8  C   UNL     1       6.869  -4.291  26.549  0.00  0.00    -0.007 C 
ATOM      9  C   UNL     1       6.043  -4.512  25.272  0.00  0.00    +0.007 C 
ATOM     10  C   UNL     1       9.394  -3.399  25.311  0.00  0.00    +0.043 C 
ATOM     11  C   UNL     1       7.306  -2.828  26.597  0.00  0.00    +0.012 C 
BRANCH   6  12
ATOM     12  O   UNL     1      10.135  -5.684  25.282  0.00  0.00    -0.389 OA
ATOM     13  H   UNL     1      10.806  -5.250  25.841  0.00  0.00    +0.210 HD
ENDBRANCH   6  12
ENDBRANCH   1   2
BRANCH   1  14
ATOM     14  C   UNL     1       7.580  -0.036  24.545  0.00  0.00    +0.234 C 
ATOM     15  N   UNL     1       7.941   0.402  23.272  0.00  0.00    -0.281 N 
ATOM     16  C   UNL     1       9.302   0.614  22.728  0.00  0.00    +0.179 C 
ATOM     17  C   UNL     1       9.249   1.967  22.004  0.00  0.00    +0.043 C 
ATOM     18  C   UNL     1       7.806   2.098  21.592  0.00  0.00    +0.014 C 
ATOM     19  C   UNL     1       6.773   2.610  22.558  0.00  0.00    +0.028 C 
ATOM     20  C   UNL     1       7.012   1.138  22.447  0.00  0.00    +0.081 C 
ATOM     21  O   UNL     1       6.479   0.290  25.002  0.00  0.00    -0.274 OA
BRANCH  16  22
ATOM     22  C   UNL     1      10.365   0.551  23.813  0.00  0.00    +0.085 C 
ATOM     23  N   UNL     1      11.248   0.500  24.713  0.00  0.00    -0.195 NA
ENDBRANCH  16  22
ENDBRANCH   1  14
BRANCH   1  24
ATOM     24  N   UNL     1       8.692  -0.464  26.738  0.00  0.00    -0.319 NA
ATOM     25  H   UNL     1       8.588   0.548  26.753  0.00  0.00    +0.119 HD
ATOM     26  H   UNL     1       7.893  -0.781  27.299  0.00  0.00    +0.119 HD
ENDBRANCH   1  24
TORSDOF 5
ENDMDL
MODEL 4
REMARK VINA RESULT:      -6.7      1.919      2.471
REMARK  Name = 
REMARK  5 active torsions:
REMARK  status: ('A' for Active; 'I' for Inactive)
REMARK    1  A    between atoms: C_2  and  N_3
REMARK    2  A    between atoms: C_2  and  C_4
REMARK    3  A    between atoms: C_2  and  C_17
REMARK    4  A    between atoms: C_13  and  C_15
REMARK    5  A    between atoms: C_25  and  O_26
REMARK                            x       y       z     vdW  Elec       q    Type
REMARK                         _______ _______ _______ _____ _____    ______ ____
ROOT
ATOM      1  C   UNL     1       8.394  -0.414  25.253  0.00  0.00    +0.144 C 
ENDROOT
BRANCH   1   2
ATOM      2  C   UNL     1       8.700   0.801  24.352  0.00  0.00    -0.002 C 
ATOM      3  C   UNL     1      10.198   1.188  24.490  0.00  0.00    +0.012 C 
ATOM      4  C   UNL     1      10.523   2.406  23.613  0.00  0.00    -0.007 C 
ATOM      5  C   UNL     1      10.262   2.059  22.141  0.00  0.00    +0.038 C 
ATOM      6  C   UNL     1       8.794   1.654  21.951  0.00  0.00    +0.067 C 
ATOM      7  C   UNL     1       7.889   2.831  22.349  0.00  0.00    +0.038 C 
ATOM      8  C   UNL     1       8.137   3.210  23.814  0.00  0.00    -0.007 C 
ATOM      9  C   UNL     1       9.614   3.571  24.034  0.00  0.00    +0.007 C 
ATOM     10  C   UNL     1       8.481   0.445  22.847  0.00  0.00    +0.043 C 
ATOM     11  C   UNL     1       7.794   2.011  24.696  0.00  0.00    +0.012 C 
BRANCH   6  12
ATOM     12  O   UNL     1       8.561   1.288  20.599  0.00  0.00    -0.389 OA
ATOM     13  H   UNL     1       9.377   1.464  20.096  0.00  0.00    +0.210 HD
ENDBRANCH   6  12
ENDBRANCH   1   2
BRANCH   1  14
ATOM     14  C   UNL     1       8.654  -1.810  24.536  0.00  0.00    +0.234 C 
ATOM     15  N   UNL     1       7.570  -2.557  24.079  0.00  0.00    -0.281 N 
ATOM     16  C   UNL     1       6.186  -2.580  24.605  0.00  0.00    +0.179 C 
ATOM     17  C   UNL     1       5.798  -4.064  24.679  0.00  0.00    +0.043 C 
ATOM     18  C   UNL     1       6.638  -4.709  23.608  0.00  0.00    +0.014 C 
ATOM     19  C   UNL     1       8.065  -5.100  23.880  0.00  0.00    +0.028 C 
ATOM     20  C   UNL     1       7.769  -3.755  23.297  0.00  0.00    +0.081 C 
ATOM     21  O   UNL     1       9.799  -2.233  24.342  0.00  0.00    -0.274 OA
BRANCH  16  22
ATOM     22  C   UNL     1       6.071  -1.859  25.939  0.00  0.00    +0.085 C 
ATOM     23  N   UNL     1       5.977  -1.261  27.045  0.00  0.00    -0.195 NA
ENDBRANCH  16  22
ENDBRANCH   1  14
BRANCH   1  24
ATOM     24  N   UNL     1       9.183  -0.369  26.505  0.00  0.00    -0.319 NA
ATOM     25  H   UNL     1      10.010  -0.959  26.429  0.00  0.00    +0.119 HD
ATOM     26  H   UNL     1       9.585   0.567  26.629  0.00  0.00    +0.119 HD
ENDBRANCH   1  24
TORSDOF 5
ENDMDL
MODEL 5
REMARK VINA RESULT:      -6.7      2.127      6.196
REMARK  Name = 
REMARK  5 active torsions:
REMARK  status: ('A' for Active; 'I' for Inactive)
REMARK    1  A    between atoms: C_2  and  N_3
REMARK    2  A    between atoms: C_2  and  C_4
REMARK    3  A    between atoms: C_2  and  C_17
REMARK    4  A    between atoms: C_13  and  C_15
REMARK    5  A    between atoms: C_25  and  O_26
REMARK                            x       y       z     vdW  Elec       q    Type
REMARK                         _______ _______ _______ _____ _____    ______ ____
ROOT
ATOM      1  C   UNL     1       7.062  -1.237  24.673  0.00  0.00    +0.144 C 
ENDROOT
BRANCH   1   2
ATOM      2  C   UNL     1       7.306  -2.721  25.019  0.00  0.00    -0.002 C 
ATOM      3  C   UNL     1       6.445  -3.621  24.090  0.00  0.00    +0.012 C 
ATOM      4  C   UNL     1       6.658  -5.103  24.426  0.00  0.00    -0.007 C 
ATOM      5  C   UNL     1       8.131  -5.471  24.199  0.00  0.00    +0.038 C 
ATOM      6  C   UNL     1       9.030  -4.598  25.087  0.00  0.00    +0.067 C 
ATOM      7  C   UNL     1       8.679  -4.847  26.562  0.00  0.00    +0.038 C 
ATOM      8  C   UNL     1       7.207  -4.501  26.816  0.00  0.00    -0.007 C 
ATOM      9  C   UNL     1       6.293  -5.331  25.900  0.00  0.00    +0.007 C 
ATOM     10  C   UNL     1       8.792  -3.117  24.749  0.00  0.00    +0.043 C 
ATOM     11  C   UNL     1       6.990  -3.022  26.506  0.00  0.00    +0.012 C 
BRANCH   6  12
ATOM     12  O   UNL     1      10.396  -4.904  24.846  0.00  0.00    -0.389 OA
ATOM     13  H   UNL     1      10.690  -4.379  24.079  0.00  0.00    +0.210 HD
ENDBRANCH   6  12
ENDBRANCH   1   2
BRANCH   1  14
ATOM     14  C   UNL     1       8.014  -0.695  23.519  0.00  0.00    +0.234 C 
ATOM     15  N   UNL     1       9.025   0.210  23.834  0.00  0.00    -0.281 N 
ATOM     16  C   UNL     1       9.059   1.199  24.937  0.00  0.00    +0.179 C 
ATOM     17  C   UNL     1       9.565   2.503  24.305  0.00  0.00    +0.043 C 
ATOM     18  C   UNL     1      10.405   2.037  23.144  0.00  0.00    +0.014 C 
ATOM     19  C   UNL     1       9.769   1.683  21.827  0.00  0.00    +0.028 C 
ATOM     20  C   UNL     1       9.998   0.612  22.846  0.00  0.00    +0.081 C 
ATOM     21  O   UNL     1       7.902  -1.088  22.352  0.00  0.00    -0.274 OA
BRANCH  16  22
ATOM     22  C   UNL     1       7.705   1.342  25.615  0.00  0.00    +0.085 C 
ATOM     23  N   UNL     1       6.582   1.461  26.177  0.00  0.00    -0.195 NA
ENDBRANCH  16  22
ENDBRANCH   1  14
BRANCH   1  24
ATOM     24  N   UNL     1       5.655  -0.999  24.279  0.00  0.00    -0.319 NA
ATOM     25  H   UNL     1       5.576  -0.143  23.732  0.00  0.00    +0.119 HD
ATOM     26  H   UNL     1       5.354  -1.720  23.613  0.00  0.00    +0.119 HD
ENDBRANCH   1  24
TORSDOF 5
ENDMDL
MODEL 6
REMARK VINA RESULT:      -6.6      1.934      2.954
REMARK  Name = 
REMARK  5 active torsions:
REMARK  status: ('A' for Active; 'I' for Inactive)
REMARK    1  A    between atoms: C_2  and  N_3
REMARK    2  A    between atoms: C_2  and  C_4
REMARK    3  A    between atoms: C_2  and  C_17
REMARK    4  A    between atoms: C_13  and  C_15
REMARK    5  A    between atoms: C_25  and  O_26
REMARK                            x       y       z     vdW  Elec       q    Type
REMARK                         _______ _______ _______ _____ _____    ______ ____
ROOT
ATOM      1  C   UNL     1       6.783  -0.920  24.100  0.00  0.00    +0.144 C 
ENDROOT
BRANCH   1   2
ATOM      2  C   UNL     1       7.755   0.215  23.715  0.00  0.00    -0.002 C 
ATOM      3  C   UNL     1       8.782  -0.309  22.674  0.00  0.00    +0.012 C 
ATOM      4  C   UNL     1       9.770   0.799  22.285  0.00  0.00    -0.007 C 
ATOM      5  C   UNL     1       9.004   1.963  21.641  0.00  0.00    +0.038 C 
ATOM      6  C   UNL     1       7.963   2.512  22.627  0.00  0.00    +0.067 C 
ATOM      7  C   UNL     1       8.679   3.027  23.885  0.00  0.00    +0.038 C 
ATOM      8  C   UNL     1       9.465   1.887  24.544  0.00  0.00    -0.007 C 
ATOM      9  C   UNL     1      10.480   1.292  23.555  0.00  0.00    +0.007 C 
ATOM     10  C   UNL     1       6.991   1.386  23.018  0.00  0.00    +0.043 C 
ATOM     11  C   UNL     1       8.486   0.789  24.954  0.00  0.00    +0.012 C 
BRANCH   6  12
ATOM     12  O   UNL     1       7.221   3.558  22.018  0.00  0.00    -0.389 OA
ATOM     13  H   UNL     1       7.617   4.406  22.291  0.00  0.00    +0.210 HD
ENDBRANCH   6  12
ENDBRANCH   1   2
BRANCH   1  14
ATOM     14  C   UNL     1       7.369  -1.903  25.205  0.00  0.00    +0.234 C 
ATOM     15  N   UNL     1       8.124  -3.005  24.809  0.00  0.00    -0.281 N 
ATOM     16  C   UNL     1       8.044  -3.763  23.539  0.00  0.00    +0.179 C 
ATOM     17  C   UNL     1       8.073  -5.244  23.941  0.00  0.00    +0.043 C 
ATOM     18  C   UNL     1       8.830  -5.248  25.244  0.00  0.00    +0.014 C 
ATOM     19  C   UNL     1       8.131  -4.942  26.540  0.00  0.00    +0.028 C 
ATOM     20  C   UNL     1       8.794  -3.836  25.782  0.00  0.00    +0.081 C 
ATOM     21  O   UNL     1       7.201  -1.693  26.411  0.00  0.00    -0.274 OA
BRANCH  16  22
ATOM     22  C   UNL     1       6.817  -3.382  22.725  0.00  0.00    +0.085 C 
ATOM     23  N   UNL     1       5.800  -3.066  22.050  0.00  0.00    -0.195 NA
ENDBRANCH  16  22
ENDBRANCH   1  14
BRANCH   1  24
ATOM     24  N   UNL     1       5.489  -0.383  24.581  0.00  0.00    -0.319 NA
ATOM     25  H   UNL     1       4.748  -0.580  23.912  0.00  0.00    +0.119 HD
ATOM     26  H   UNL     1       5.186  -0.902  25.414  0.00  0.00    +0.119 HD
ENDBRANCH   1  24
TORSDOF 5
ENDMDL
MODEL 7
REMARK VINA RESULT:      -6.6      1.492      2.030
REMARK  Name = 
REMARK  5 active torsions:
REMARK  status: ('A' for Active; 'I' for Inactive)
REMARK    1  A    between atoms: C_2  and  N_3
REMARK    2  A    between atoms: C_2  and  C_4
REMARK    3  A    between atoms: C_2  and  C_17
REMARK    4  A    between atoms: C_13  and  C_15
REMARK    5  A    between atoms: C_25  and  O_26
REMARK                            x       y       z     vdW  Elec       q    Type
REMARK                         _______ _______ _______ _____ _____    ______ ____
ROOT
ATOM      1  C   UNL     1       7.862  -2.339  24.868  0.00  0.00    +0.144 C 
ENDROOT
BRANCH   1   2
ATOM      2  C   UNL     1       8.546  -1.082  24.289  0.00  0.00    -0.002 C 
ATOM      3  C   UNL     1       9.770  -1.505  23.430  0.00  0.00    +0.012 C 
ATOM      4  C   UNL     1      10.476  -0.270  22.855  0.00  0.00    -0.007 C 
ATOM      5  C   UNL     1       9.506   0.494  21.942  0.00  0.00    +0.038 C 
ATOM      6  C   UNL     1       8.268   0.924  22.741  0.00  0.00    +0.067 C 
ATOM      7  C   UNL     1       8.701   1.851  23.888  0.00  0.00    +0.038 C 
ATOM      8  C   UNL     1       9.683   1.118  24.810  0.00  0.00    -0.007 C 
ATOM      9  C   UNL     1      10.909   0.636  24.017  0.00  0.00    +0.007 C 
ATOM     10  C   UNL     1       7.582  -0.322  23.323  0.00  0.00    +0.043 C 
ATOM     11  C   UNL     1       8.981  -0.101  25.405  0.00  0.00    +0.012 C 
BRANCH   6  12
ATOM     12  O   UNL     1       7.348   1.591  21.889  0.00  0.00    -0.389 OA
ATOM     13  H   UNL     1       7.572   1.364  20.968  0.00  0.00    +0.210 HD
ENDBRANCH   6  12
ENDBRANCH   1   2
BRANCH   1  14
ATOM     14  C   UNL     1       8.019  -3.624  23.945  0.00  0.00    +0.234 C 
ATOM     15  N   UNL     1       7.074  -3.875  22.953  0.00  0.00    -0.281 N 
ATOM     16  C   UNL     1       5.646  -3.485  22.928  0.00  0.00    +0.179 C 
ATOM     17  C   UNL     1       4.886  -4.735  22.461  0.00  0.00    +0.043 C 
ATOM     18  C   UNL     1       5.896  -5.478  21.626  0.00  0.00    +0.014 C 
ATOM     19  C   UNL     1       6.915  -6.377  22.271  0.00  0.00    +0.028 C 
ATOM     20  C   UNL     1       7.260  -4.946  22.002  0.00  0.00    +0.081 C 
ATOM     21  O   UNL     1       8.983  -4.389  24.063  0.00  0.00    -0.274 OA
BRANCH  16  22
ATOM     22  C   UNL     1       5.175  -2.960  24.276  0.00  0.00    +0.085 C 
ATOM     23  N   UNL     1       4.785  -2.525  25.393  0.00  0.00    -0.195 NA
ENDBRANCH  16  22
ENDBRANCH   1  14
BRANCH   1  24
ATOM     24  N   UNL     1       8.376  -2.658  26.220  0.00  0.00    -0.319 NA
ATOM     25  H   UNL     1       8.849  -3.560  26.219  0.00  0.00    +0.119 HD
ATOM     26  H   UNL     1       9.131  -2.008  26.466  0.00  0.00    +0.119 HD
ENDBRANCH   1  24
TORSDOF 5
ENDMDL
MODEL 8
REMARK VINA RESULT:      -6.6      2.156      3.590
REMARK  Name = 
REMARK  5 active torsions:
REMARK  status: ('A' for Active; 'I' for Inactive)
REMARK    1  A    between atoms: C_2  and  N_3
REMARK    2  A    between atoms: C_2  and  C_4
REMARK    3  A    between atoms: C_2  and  C_17
REMARK    4  A    between atoms: C_13  and  C_15
REMARK    5  A    between atoms: C_25  and  O_26
REMARK                            x       y       z     vdW  Elec       q    Type
REMARK                         _______ _______ _______ _____ _____    ______ ____
ROOT
ATOM      1  C   UNL     1       6.789  -0.872  23.964  0.00  0.00    +0.144 C 
ENDROOT
BRANCH   1   2
ATOM      2  C   UNL     1       7.650   0.358  23.604  0.00  0.00    -0.002 C 
ATOM      3  C   UNL     1       7.061   1.624  24.285  0.00  0.00    +0.012 C 
ATOM      4  C   UNL     1       7.893   2.863  23.929  0.00  0.00    -0.007 C 
ATOM      5  C   UNL     1       9.327   2.680  24.443  0.00  0.00    +0.038 C 
ATOM      6  C   UNL     1       9.954   1.430  23.808  0.00  0.00    +0.067 C 
ATOM      7  C   UNL     1       9.994   1.603  22.282  0.00  0.00    +0.038 C 
ATOM      8  C   UNL     1       8.573   1.802  21.740  0.00  0.00    -0.007 C 
ATOM      9  C   UNL     1       7.911   3.022  22.401  0.00  0.00    +0.007 C 
ATOM     10  C   UNL     1       9.101   0.201  24.161  0.00  0.00    +0.043 C 
ATOM     11  C   UNL     1       7.744   0.562  22.071  0.00  0.00    +0.012 C 
BRANCH   6  12
ATOM     12  O   UNL     1      11.265   1.232  24.317  0.00  0.00    -0.389 OA
ATOM     13  H   UNL     1      11.866   1.113  23.559  0.00  0.00    +0.210 HD
ENDBRANCH   6  12
ENDBRANCH   1   2
BRANCH   1  14
ATOM     14  C   UNL     1       7.496  -1.856  24.993  0.00  0.00    +0.234 C 
ATOM     15  N   UNL     1       8.164  -2.983  24.516  0.00  0.00    -0.281 N 
ATOM     16  C   UNL     1       7.892  -3.754  23.281  0.00  0.00    +0.179 C 
ATOM     17  C   UNL     1       7.940  -5.230  23.699  0.00  0.00    +0.043 C 
ATOM     18  C   UNL     1       8.867  -5.238  24.887  0.00  0.00    +0.014 C 
ATOM     19  C   UNL     1       8.360  -4.897  26.261  0.00  0.00    +0.028 C 
ATOM     20  C   UNL     1       8.939  -3.819  25.402  0.00  0.00    +0.081 C 
ATOM     21  O   UNL     1       7.500  -1.627  26.208  0.00  0.00    -0.274 OA
BRANCH  16  22
ATOM     22  C   UNL     1       6.575  -3.351  22.636  0.00  0.00    +0.085 C 
ATOM     23  N   UNL     1       5.484  -3.017  22.100  0.00  0.00    -0.195 NA
ENDBRANCH  16  22
ENDBRANCH   1  14
BRANCH   1  24
ATOM     24  N   UNL     1       5.477  -0.468  24.518  0.00  0.00    -0.319 NA
ATOM     25  H   UNL     1       4.718  -0.877  23.976  0.00  0.00    +0.119 HD
ATOM     26  H   UNL     1       5.346  -0.891  25.444  0.00  0.00    +0.119 HD
ENDBRANCH   1  24
TORSDOF 5
ENDMDL
MODEL 9
REMARK VINA RESULT:      -6.6      2.018      3.169
REMARK  Name = 
REMARK  5 active torsions:
REMARK  status: ('A' for Active; 'I' for Inactive)
REMARK    1  A    between atoms: C_2  and  N_3
REMARK    2  A    between atoms: C_2  and  C_4
REMARK    3  A    between atoms: C_2  and  C_17
REMARK    4  A    between atoms: C_13  and  C_15
REMARK    5  A    between atoms: C_25  and  O_26
REMARK                            x       y       z     vdW  Elec       q    Type
REMARK                         _______ _______ _______ _____ _____    ______ ____
ROOT
ATOM      1  C   UNL     1       6.828  -2.356  23.305  0.00  0.00    +0.144 C 
ENDROOT
BRANCH   1   2
ATOM      2  C   UNL     1       7.806  -1.170  23.167  0.00  0.00    -0.002 C 
ATOM      3  C   UNL     1       7.007   0.135  22.897  0.00  0.00    +0.012 C 
ATOM      4  C   UNL     1       7.960   1.328  22.740  0.00  0.00    -0.007 C 
ATOM      5  C   UNL     1       8.751   1.523  24.041  0.00  0.00    +0.038 C 
ATOM      6  C   UNL     1       9.551   0.253  24.363  0.00  0.00    +0.067 C 
ATOM      7  C   UNL     1      10.540  -0.025  23.220  0.00  0.00    +0.038 C 
ATOM      8  C   UNL     1       9.778  -0.212  21.902  0.00  0.00    -0.007 C 
ATOM      9  C   UNL     1       8.932   1.032  21.588  0.00  0.00    +0.007 C 
ATOM     10  C   UNL     1       8.583  -0.934  24.500  0.00  0.00    +0.043 C 
ATOM     11  C   UNL     1       8.843  -1.412  22.041  0.00  0.00    +0.012 C 
BRANCH   6  12
ATOM     12  O   UNL     1      10.247   0.414  25.590  0.00  0.00    -0.389 OA
ATOM     13  H   UNL     1      11.150   0.717  25.385  0.00  0.00    +0.210 HD
ENDBRANCH   6  12
ENDBRANCH   1   2
BRANCH   1  14
ATOM     14  C   UNL     1       6.080  -2.396  24.708  0.00  0.00    +0.234 C 
ATOM     15  N   UNL     1       6.546  -3.246  25.709  0.00  0.00    -0.281 N 
ATOM     16  C   UNL     1       7.271  -4.529  25.557  0.00  0.00    +0.179 C 
ATOM     17  C   UNL     1       6.599  -5.500  26.539  0.00  0.00    +0.043 C 
ATOM     18  C   UNL     1       6.054  -4.600  27.618  0.00  0.00    +0.014 C 
ATOM     19  C   UNL     1       4.731  -3.907  27.446  0.00  0.00    +0.028 C 
ATOM     20  C   UNL     1       5.987  -3.205  27.040  0.00  0.00    +0.081 C 
ATOM     21  O   UNL     1       5.115  -1.661  24.947  0.00  0.00    -0.274 OA
BRANCH  16  22
ATOM     22  C   UNL     1       7.262  -5.022  24.119  0.00  0.00    +0.085 C 
ATOM     23  N   UNL     1       7.254  -5.431  22.926  0.00  0.00    -0.195 NA
ENDBRANCH  16  22
ENDBRANCH   1  14
BRANCH   1  24
ATOM     24  N   UNL     1       5.813  -2.348  22.227  0.00  0.00    -0.319 NA
ATOM     25  H   UNL     1       5.008  -2.913  22.488  0.00  0.00    +0.119 HD
ATOM     26  H   UNL     1       5.410  -1.408  22.137  0.00  0.00    +0.119 HD
ENDBRANCH   1  24
TORSDOF 5
ENDMDL
