MODEL 1
REMARK VINA RESULT:      -7.0      0.000      0.000
REMARK  Name = 
REMARK  12 active torsions:
REMARK  status: ('A' for Active; 'I' for Inactive)
REMARK    1  A    between atoms: C_1  and  C_2
REMARK    2  A    between atoms: C_2  and  C_3
REMARK    3  A    between atoms: C_3  and  C_4
REMARK    4  A    between atoms: C_4  and  C_5
REMARK    5  A    between atoms: N_7  and  C_8
REMARK    6  A    between atoms: C_8  and  C_9
REMARK    7  A    between atoms: C_12  and  C_15
REMARK    8  A    between atoms: C_20  and  C_21
REMARK    9  A    between atoms: C_26  and  C_27
REMARK   10  A    between atoms: C_27  and  C_28
REMARK   11  A    between atoms: C_28  and  C_29
REMARK   12  A    between atoms: C_29  and  C_30
REMARK                            x       y       z     vdW  Elec       q    Type
REMARK                         _______ _______ _______ _____ _____    ______ ____
ROOT
ATOM      1  C   UNL     1      10.296   0.179  22.953  0.00  0.00    -0.008 A 
ATOM      2  C   UNL     1       9.894   1.065  21.953  0.00  0.00    +0.009 A 
ATOM      3  C   UNL     1       9.742   2.429  22.214  0.00  0.00    +0.029 A 
ATOM      4  C   UNL     1       9.858   2.920  23.510  0.00  0.00    +0.072 A 
ATOM      5  N   UNL     1      10.246   2.076  24.507  0.00  0.00    -0.255 NA
ATOM      6  C   UNL     1      10.466   0.748  24.211  0.00  0.00    +0.116 A 
ENDROOT
BRANCH   4   7
ATOM      7  C   UNL     1       9.608   4.363  23.857  0.00  0.00    +0.011 A 
ATOM      8  C   UNL     1      10.590   5.396  23.834  0.00  0.00    +0.032 A 
ATOM      9  C   UNL     1      10.281   6.697  24.313  0.00  0.00    +0.012 A 
ATOM     10  C   UNL     1       9.008   7.032  24.744  0.00  0.00    +0.001 A 
ATOM     11  C   UNL     1       8.021   6.063  24.702  0.00  0.00    +0.001 A 
ATOM     12  C   UNL     1       8.311   4.756  24.284  0.00  0.00    +0.011 A 
BRANCH   8  13
ATOM     13  C   UNL     1      11.933   5.255  23.276  0.00  0.00    +0.205 A 
ATOM     14  N   UNL     1      12.268   5.617  21.993  0.00  0.00    -0.108 NA
ATOM     15  N   UNL     1      13.574   5.419  21.867  0.00  0.00    -0.049 NA
ATOM     16  N   UNL     1      13.969   5.004  23.073  0.00  0.00    -0.176 N 
ATOM     17  H   UNL     1      14.947   4.831  23.287  0.00  0.00    +0.214 HD
ATOM     18  N   UNL     1      13.003   4.848  23.986  0.00  0.00    -0.133 NA
ENDBRANCH   8  13
ENDBRANCH   4   7
BRANCH   1  19
ATOM     19  C   UNL     1      10.393  -1.294  22.605  0.00  0.00    +0.182 C 
BRANCH  19  23
ATOM     20  C   UNL     1       9.041  -4.004  24.373  0.00  0.00    +0.151 A 
ATOM     21  N   UNL     1       7.858  -3.489  23.938  0.00  0.00    -0.216 NA
ATOM     22  C   UNL     1       8.200  -2.391  23.299  0.00  0.00    +0.128 A 
ATOM     23  N   UNL     1       9.579  -2.269  23.333  0.00  0.00    -0.245 N 
ATOM     24  N   UNL     1      10.126  -3.313  23.998  0.00  0.00    -0.154 NA
BRANCH  20  25
ATOM     25  C   UNL     1       9.047  -5.208  25.240  0.00  0.00    +0.078 C 
BRANCH  25  26
ATOM     26  C   UNL     1       8.687  -4.937  26.701  0.00  0.00    +0.007 C 
BRANCH  26  28
ATOM     27  C   UNL     1       6.381  -4.050  27.172  0.00  0.00    +0.004 C 
ATOM     28  C   UNL     1       7.242  -5.300  27.064  0.00  0.00    -0.003 C 
ENDBRANCH  26  28
ENDBRANCH  25  26
ENDBRANCH  20  25
BRANCH  22  29
ATOM     29  C   UNL     1       7.193  -1.413  22.800  0.00  0.00    +0.076 C 
BRANCH  29  30
ATOM     30  C   UNL     1       6.368  -0.675  23.853  0.00  0.00    +0.007 C 
BRANCH  30  31
ATOM     31  C   UNL     1       6.712   0.820  23.780  0.00  0.00    -0.003 C 
ATOM     32  C   UNL     1       6.688   1.519  25.127  0.00  0.00    +0.004 C 
ENDBRANCH  30  31
ENDBRANCH  29  30
ENDBRANCH  22  29
ENDBRANCH  19  23
ENDBRANCH   1  19
TORSDOF 10
ENDMDL
MODEL 2
REMARK VINA RESULT:      -6.8      2.013      3.018
REMARK  Name = 
REMARK  12 active torsions:
REMARK  status: ('A' for Active; 'I' for Inactive)
REMARK    1  A    between atoms: C_1  and  C_2
REMARK    2  A    between atoms: C_2  and  C_3
REMARK    3  A    between atoms: C_3  and  C_4
REMARK    4  A    between atoms: C_4  and  C_5
REMARK    5  A    between atoms: N_7  and  C_8
REMARK    6  A    between atoms: C_8  and  C_9
REMARK    7  A    between atoms: C_12  and  C_15
REMARK    8  A    between atoms: C_20  and  C_21
REMARK    9  A    between atoms: C_26  and  C_27
REMARK   10  A    between atoms: C_27  and  C_28
REMARK   11  A    between atoms: C_28  and  C_29
REMARK   12  A    between atoms: C_29  and  C_30
REMARK                            x       y       z     vdW  Elec       q    Type
REMARK                         _______ _______ _______ _____ _____    ______ ____
ROOT
ATOM      1  C   UNL     1      10.034  -0.588  22.799  0.00  0.00    -0.008 A 
ATOM      2  C   UNL     1       9.655   0.374  21.864  0.00  0.00    +0.009 A 
ATOM      3  C   UNL     1       9.930   1.729  22.068  0.00  0.00    +0.029 A 
ATOM      4  C   UNL     1      10.471   2.169  23.271  0.00  0.00    +0.072 A 
ATOM      5  N   UNL     1      10.847   1.250  24.205  0.00  0.00    -0.255 NA
ATOM      6  C   UNL     1      10.636  -0.088  23.949  0.00  0.00    +0.116 A 
ENDROOT
BRANCH   4   7
ATOM      7  C   UNL     1      10.695   3.626  23.577  0.00  0.00    +0.011 A 
ATOM      8  C   UNL     1       9.690   4.540  24.006  0.00  0.00    +0.032 A 
ATOM      9  C   UNL     1       9.980   5.925  24.134  0.00  0.00    +0.012 A 
ATOM     10  C   UNL     1      11.254   6.425  23.924  0.00  0.00    +0.001 A 
ATOM     11  C   UNL     1      12.263   5.540  23.581  0.00  0.00    +0.001 A 
ATOM     12  C   UNL     1      11.992   4.177  23.395  0.00  0.00    +0.011 A 
BRANCH   8  13
ATOM     13  C   UNL     1       8.338   4.161  24.410  0.00  0.00    +0.205 A 
ATOM     14  N   UNL     1       7.961   3.957  25.717  0.00  0.00    -0.108 NA
ATOM     15  N   UNL     1       6.659   3.705  25.706  0.00  0.00    -0.049 NA
ATOM     16  N   UNL     1       6.306   3.817  24.423  0.00  0.00    -0.176 N 
ATOM     17  H   UNL     1       5.338   3.732  24.124  0.00  0.00    +0.214 HD
ATOM     18  N   UNL     1       7.298   4.066  23.560  0.00  0.00    -0.133 NA
ENDBRANCH   8  13
ENDBRANCH   4   7
BRANCH   1  19
ATOM     19  C   UNL     1       9.658  -2.032  22.529  0.00  0.00    +0.182 C 
BRANCH  19  23
ATOM     20  C   UNL     1       8.214  -4.260  24.821  0.00  0.00    +0.151 A 
ATOM     21  N   UNL     1       7.075  -3.578  24.520  0.00  0.00    -0.216 NA
ATOM     22  C   UNL     1       7.474  -2.629  23.700  0.00  0.00    +0.128 A 
ATOM     23  N   UNL     1       8.837  -2.764  23.496  0.00  0.00    -0.245 N 
ATOM     24  N   UNL     1       9.314  -3.823  24.191  0.00  0.00    -0.154 NA
BRANCH  20  25
ATOM     25  C   UNL     1       8.176  -5.355  25.821  0.00  0.00    +0.078 C 
BRANCH  25  26
ATOM     26  C   UNL     1       7.476  -4.992  27.131  0.00  0.00    +0.007 C 
BRANCH  26  28
ATOM     27  C   UNL     1       5.419  -6.189  26.316  0.00  0.00    +0.004 C 
ATOM     28  C   UNL     1       6.332  -5.940  27.509  0.00  0.00    -0.003 C 
ENDBRANCH  26  28
ENDBRANCH  25  26
ENDBRANCH  20  25
BRANCH  22  29
ATOM     29  C   UNL     1       6.572  -1.534  23.250  0.00  0.00    +0.076 C 
BRANCH  29  30
ATOM     30  C   UNL     1       6.025  -0.604  24.332  0.00  0.00    +0.007 C 
BRANCH  30  31
ATOM     31  C   UNL     1       7.128   0.391  24.723  0.00  0.00    -0.003 C 
ATOM     32  C   UNL     1       7.648   0.203  26.136  0.00  0.00    +0.004 C 
ENDBRANCH  30  31
ENDBRANCH  29  30
ENDBRANCH  22  29
ENDBRANCH  19  23
ENDBRANCH   1  19
TORSDOF 10
ENDMDL
MODEL 3
REMARK VINA RESULT:      -6.8      2.291      3.485
REMARK  Name = 
REMARK  12 active torsions:
REMARK  status: ('A' for Active; 'I' for Inactive)
REMARK    1  A    between atoms: C_1  and  C_2
REMARK    2  A    between atoms: C_2  and  C_3
REMARK    3  A    between atoms: C_3  and  C_4
REMARK    4  A    between atoms: C_4  and  C_5
REMARK    5  A    between atoms: N_7  and  C_8
REMARK    6  A    between atoms: C_8  and  C_9
REMARK    7  A    between atoms: C_12  and  C_15
REMARK    8  A    between atoms: C_20  and  C_21
REMARK    9  A    between atoms: C_26  and  C_27
REMARK   10  A    between atoms: C_27  and  C_28
REMARK   11  A    between atoms: C_28  and  C_29
REMARK   12  A    between atoms: C_29  and  C_30
REMARK                            x       y       z     vdW  Elec       q    Type
REMARK                         _______ _______ _______ _____ _____    ______ ____
ROOT
ATOM      1  C   UNL     1      10.135  -0.789  23.493  0.00  0.00    -0.008 A 
ATOM      2  C   UNL     1      10.058  -0.073  22.298  0.00  0.00    +0.009 A 
ATOM      3  C   UNL     1       9.916   1.317  22.296  0.00  0.00    +0.029 A 
ATOM      4  C   UNL     1       9.713   2.011  23.484  0.00  0.00    +0.072 A 
ATOM      5  N   UNL     1       9.779   1.335  24.666  0.00  0.00    -0.255 NA
ATOM      6  C   UNL     1       9.997  -0.026  24.647  0.00  0.00    +0.116 A 
ENDROOT
BRANCH   4   7
ATOM      7  C   UNL     1       9.459   3.494  23.526  0.00  0.00    +0.011 A 
ATOM      8  C   UNL     1       8.189   4.115  23.345  0.00  0.00    +0.032 A 
ATOM      9  C   UNL     1       8.082   5.530  23.266  0.00  0.00    +0.012 A 
ATOM     10  C   UNL     1       9.181   6.354  23.436  0.00  0.00    +0.001 A 
ATOM     11  C   UNL     1      10.411   5.772  23.688  0.00  0.00    +0.001 A 
ATOM     12  C   UNL     1      10.555   4.377  23.718  0.00  0.00    +0.011 A 
BRANCH   8  13
ATOM     13  C   UNL     1       6.914   3.404  23.297  0.00  0.00    +0.205 A 
ATOM     14  N   UNL     1       6.057   3.299  24.367  0.00  0.00    -0.108 NA
ATOM     15  N   UNL     1       4.979   2.658  23.934  0.00  0.00    -0.049 NA
ATOM     16  N   UNL     1       5.208   2.453  22.635  0.00  0.00    -0.176 N 
ATOM     17  H   UNL     1       4.513   2.028  22.028  0.00  0.00    +0.214 HD
ATOM     18  N   UNL     1       6.399   2.860  22.177  0.00  0.00    -0.133 NA
ENDBRANCH   8  13
ENDBRANCH   4   7
BRANCH   1  19
ATOM     19  C   UNL     1      10.240  -2.300  23.414  0.00  0.00    +0.182 C 
BRANCH  19  23
ATOM     20  C   UNL     1       8.393  -4.499  25.426  0.00  0.00    +0.151 A 
ATOM     21  N   UNL     1       7.508  -4.443  24.394  0.00  0.00    -0.216 NA
ATOM     22  C   UNL     1       8.038  -3.574  23.561  0.00  0.00    +0.128 A 
ATOM     23  N   UNL     1       9.242  -3.135  24.084  0.00  0.00    -0.245 N 
ATOM     24  N   UNL     1       9.489  -3.744  25.268  0.00  0.00    -0.154 NA
BRANCH  20  25
ATOM     25  C   UNL     1       8.076  -5.310  26.628  0.00  0.00    +0.078 C 
BRANCH  25  26
ATOM     26  C   UNL     1       6.721  -4.997  27.263  0.00  0.00    +0.007 C 
BRANCH  26  28
ATOM     27  C   UNL     1       4.392  -5.312  26.368  0.00  0.00    +0.004 C 
ATOM     28  C   UNL     1       5.624  -6.013  26.921  0.00  0.00    -0.003 C 
ENDBRANCH  26  28
ENDBRANCH  25  26
ENDBRANCH  20  25
BRANCH  22  29
ATOM     29  C   UNL     1       7.311  -3.076  22.360  0.00  0.00    +0.076 C 
BRANCH  29  30
ATOM     30  C   UNL     1       6.101  -2.177  22.611  0.00  0.00    +0.007 C 
BRANCH  30  31
ATOM     31  C   UNL     1       6.598  -0.839  23.180  0.00  0.00    -0.003 C 
ATOM     32  C   UNL     1       6.228  -0.618  24.634  0.00  0.00    +0.004 C 
ENDBRANCH  30  31
ENDBRANCH  29  30
ENDBRANCH  22  29
ENDBRANCH  19  23
ENDBRANCH   1  19
TORSDOF 10
ENDMDL
MODEL 4
REMARK VINA RESULT:      -6.8      2.451      8.984
REMARK  Name = 
REMARK  12 active torsions:
REMARK  status: ('A' for Active; 'I' for Inactive)
REMARK    1  A    between atoms: C_1  and  C_2
REMARK    2  A    between atoms: C_2  and  C_3
REMARK    3  A    between atoms: C_3  and  C_4
REMARK    4  A    between atoms: C_4  and  C_5
REMARK    5  A    between atoms: N_7  and  C_8
REMARK    6  A    between atoms: C_8  and  C_9
REMARK    7  A    between atoms: C_12  and  C_15
REMARK    8  A    between atoms: C_20  and  C_21
REMARK    9  A    between atoms: C_26  and  C_27
REMARK   10  A    between atoms: C_27  and  C_28
REMARK   11  A    between atoms: C_28  and  C_29
REMARK   12  A    between atoms: C_29  and  C_30
REMARK                            x       y       z     vdW  Elec       q    Type
REMARK                         _______ _______ _______ _____ _____    ______ ____
ROOT
ATOM      1  C   UNL     1       7.636   0.281  25.054  0.00  0.00    -0.008 A 
ATOM      2  C   UNL     1       8.595  -0.729  25.129  0.00  0.00    +0.009 A 
ATOM      3  C   UNL     1       8.450  -1.919  24.409  0.00  0.00    +0.029 A 
ATOM      4  C   UNL     1       7.281  -2.182  23.703  0.00  0.00    +0.072 A 
ATOM      5  N   UNL     1       6.327  -1.213  23.616  0.00  0.00    -0.255 NA
ATOM      6  C   UNL     1       6.526  -0.017  24.272  0.00  0.00    +0.116 A 
ENDROOT
BRANCH   4   7
ATOM      7  C   UNL     1       7.038  -3.487  22.993  0.00  0.00    +0.011 A 
ATOM      8  C   UNL     1       7.589  -4.745  23.374  0.00  0.00    +0.032 A 
ATOM      9  C   UNL     1       7.406  -5.891  22.554  0.00  0.00    +0.012 A 
ATOM     10  C   UNL     1       6.632  -5.850  21.406  0.00  0.00    +0.001 A 
ATOM     11  C   UNL     1       6.025  -4.654  21.061  0.00  0.00    +0.001 A 
ATOM     12  C   UNL     1       6.232  -3.496  21.823  0.00  0.00    +0.011 A 
BRANCH   8  13
ATOM     13  C   UNL     1       8.304  -4.997  24.622  0.00  0.00    +0.205 A 
ATOM     14  N   UNL     1       9.674  -5.000  24.730  0.00  0.00    -0.108 NA
ATOM     15  N   UNL     1       9.958  -5.186  26.013  0.00  0.00    -0.049 NA
ATOM     16  N   UNL     1       8.768  -5.234  26.617  0.00  0.00    -0.176 N 
ATOM     17  H   UNL     1       8.682  -5.311  27.627  0.00  0.00    +0.214 HD
ATOM     18  N   UNL     1       7.699  -5.156  25.816  0.00  0.00    -0.133 NA
ENDBRANCH   8  13
ENDBRANCH   4   7
BRANCH   1  19
ATOM     19  C   UNL     1       7.840   1.522  25.901  0.00  0.00    +0.182 C 
BRANCH  19  23
ATOM     20  C   UNL     1       7.955   4.771  24.586  0.00  0.00    +0.151 A 
ATOM     21  N   UNL     1       8.948   4.251  23.815  0.00  0.00    -0.216 NA
ATOM     22  C   UNL     1       9.082   3.017  24.251  0.00  0.00    +0.128 A 
ATOM     23  N   UNL     1       8.156   2.799  25.258  0.00  0.00    -0.245 N 
ATOM     24  N   UNL     1       7.412   3.912  25.460  0.00  0.00    -0.154 NA
BRANCH  20  25
ATOM     25  C   UNL     1       7.592   6.204  24.455  0.00  0.00    +0.078 C 
BRANCH  25  26
ATOM     26  C   UNL     1       8.013   6.844  23.131  0.00  0.00    +0.007 C 
BRANCH  26  28
ATOM     27  C   UNL     1       5.625   6.795  22.343  0.00  0.00    +0.004 C 
ATOM     28  C   UNL     1       7.074   6.529  21.961  0.00  0.00    -0.003 C 
ENDBRANCH  26  28
ENDBRANCH  25  26
ENDBRANCH  20  25
BRANCH  22  29
ATOM     29  C   UNL     1      10.185   2.126  23.797  0.00  0.00    +0.076 C 
BRANCH  29  30
ATOM     30  C   UNL     1      10.358   1.959  22.288  0.00  0.00    +0.007 C 
BRANCH  30  31
ATOM     31  C   UNL     1       9.150   1.182  21.742  0.00  0.00    -0.003 C 
ATOM     32  C   UNL     1       9.473  -0.245  21.339  0.00  0.00    +0.004 C 
ENDBRANCH  30  31
ENDBRANCH  29  30
ENDBRANCH  22  29
ENDBRANCH  19  23
ENDBRANCH   1  19
TORSDOF 10
ENDMDL
MODEL 5
REMARK VINA RESULT:      -6.7      2.943      9.550
REMARK  Name = 
REMARK  12 active torsions:
REMARK  status: ('A' for Active; 'I' for Inactive)
REMARK    1  A    between atoms: C_1  and  C_2
REMARK    2  A    between atoms: C_2  and  C_3
REMARK    3  A    between atoms: C_3  and  C_4
REMARK    4  A    between atoms: C_4  and  C_5
REMARK    5  A    between atoms: N_7  and  C_8
REMARK    6  A    between atoms: C_8  and  C_9
REMARK    7  A    between atoms: C_12  and  C_15
REMARK    8  A    between atoms: C_20  and  C_21
REMARK    9  A    between atoms: C_26  and  C_27
REMARK   10  A    between atoms: C_27  and  C_28
REMARK   11  A    between atoms: C_28  and  C_29
REMARK   12  A    between atoms: C_29  and  C_30
REMARK                            x       y       z     vdW  Elec       q    Type
REMARK                         _______ _______ _______ _____ _____    ______ ____
ROOT
ATOM      1  C   UNL     1       7.688  -2.133  22.696  0.00  0.00    -0.008 A 
ATOM      2  C   UNL     1       6.431  -1.783  23.191  0.00  0.00    +0.009 A 
ATOM      3  C   UNL     1       5.549  -2.754  23.675  0.00  0.00    +0.029 A 
ATOM      4  C   UNL     1       5.847  -4.106  23.552  0.00  0.00    +0.072 A 
ATOM      5  N   UNL     1       7.066  -4.476  23.068  0.00  0.00    -0.255 NA
ATOM      6  C   UNL     1       7.952  -3.498  22.668  0.00  0.00    +0.116 A 
ENDROOT
BRANCH   4   7
ATOM      7  C   UNL     1       4.889  -5.190  23.968  0.00  0.00    +0.011 A 
ATOM      8  C   UNL     1       5.056  -6.046  25.096  0.00  0.00    +0.032 A 
ATOM      9  C   UNL     1       4.163  -7.127  25.320  0.00  0.00    +0.012 A 
ATOM     10  C   UNL     1       3.063  -7.345  24.507  0.00  0.00    +0.001 A 
ATOM     11  C   UNL     1       2.840  -6.478  23.452  0.00  0.00    +0.001 A 
ATOM     12  C   UNL     1       3.736  -5.435  23.175  0.00  0.00    +0.011 A 
BRANCH   8  13
ATOM     13  C   UNL     1       6.071  -5.869  26.131  0.00  0.00    +0.205 A 
ATOM     14  N   UNL     1       5.786  -5.781  27.473  0.00  0.00    -0.108 NA
ATOM     15  N   UNL     1       6.947  -5.704  28.109  0.00  0.00    -0.049 NA
ATOM     16  N   UNL     1       7.865  -5.797  27.144  0.00  0.00    -0.176 N 
ATOM     17  H   UNL     1       8.860  -5.827  27.352  0.00  0.00    +0.214 HD
ATOM     18  N   UNL     1       7.397  -5.870  25.892  0.00  0.00    -0.133 NA
ENDBRANCH   8  13
ENDBRANCH   4   7
BRANCH   1  19
ATOM     19  C   UNL     1       8.569  -1.029  22.145  0.00  0.00    +0.182 C 
BRANCH  19  23
ATOM     20  C   UNL     1       8.583   2.334  23.141  0.00  0.00    +0.151 A 
ATOM     21  N   UNL     1       9.245   1.843  24.224  0.00  0.00    -0.216 NA
ATOM     22  C   UNL     1       9.257   0.541  24.031  0.00  0.00    +0.128 A 
ATOM     23  N   UNL     1       8.629   0.264  22.829  0.00  0.00    -0.245 N 
ATOM     24  N   UNL     1       8.217   1.412  22.240  0.00  0.00    -0.154 NA
BRANCH  20  25
ATOM     25  C   UNL     1       8.275   3.783  23.058  0.00  0.00    +0.078 C 
BRANCH  25  26
ATOM     26  C   UNL     1       8.887   4.624  24.179  0.00  0.00    +0.007 C 
BRANCH  26  28
ATOM     27  C   UNL     1      10.753   6.301  24.366  0.00  0.00    +0.004 C 
ATOM     28  C   UNL     1       9.413   5.989  23.716  0.00  0.00    -0.003 C 
ENDBRANCH  26  28
ENDBRANCH  25  26
ENDBRANCH  20  25
BRANCH  22  29
ATOM     29  C   UNL     1       9.738  -0.413  25.069  0.00  0.00    +0.076 C 
BRANCH  29  30
ATOM     30  C   UNL     1       8.837  -0.620  26.285  0.00  0.00    +0.007 C 
BRANCH  30  31
ATOM     31  C   UNL     1       8.411  -2.095  26.331  0.00  0.00    -0.003 C 
ATOM     32  C   UNL     1       6.984  -2.305  26.804  0.00  0.00    +0.004 C 
ENDBRANCH  30  31
ENDBRANCH  29  30
ENDBRANCH  22  29
ENDBRANCH  19  23
ENDBRANCH   1  19
TORSDOF 10
ENDMDL
MODEL 6
REMARK VINA RESULT:      -6.6      2.351      8.788
REMARK  Name = 
REMARK  12 active torsions:
REMARK  status: ('A' for Active; 'I' for Inactive)
REMARK    1  A    between atoms: C_1  and  C_2
REMARK    2  A    between atoms: C_2  and  C_3
REMARK    3  A    between atoms: C_3  and  C_4
REMARK    4  A    between atoms: C_4  and  C_5
REMARK    5  A    between atoms: N_7  and  C_8
REMARK    6  A    between atoms: C_8  and  C_9
REMARK    7  A    between atoms: C_12  and  C_15
REMARK    8  A    between atoms: C_20  and  C_21
REMARK    9  A    between atoms: C_26  and  C_27
REMARK   10  A    between atoms: C_27  and  C_28
REMARK   11  A    between atoms: C_28  and  C_29
REMARK   12  A    between atoms: C_29  and  C_30
REMARK                            x       y       z     vdW  Elec       q    Type
REMARK                         _______ _______ _______ _____ _____    ______ ____
ROOT
ATOM      1  C   UNL     1       7.588   0.395  25.022  0.00  0.00    -0.008 A 
ATOM      2  C   UNL     1       6.303  -0.034  24.687  0.00  0.00    +0.009 A 
ATOM      3  C   UNL     1       6.084  -1.297  24.129  0.00  0.00    +0.029 A 
ATOM      4  C   UNL     1       7.154  -2.108  23.770  0.00  0.00    +0.072 A 
ATOM      5  N   UNL     1       8.420  -1.712  24.082  0.00  0.00    -0.255 NA
ATOM      6  C   UNL     1       8.607  -0.495  24.702  0.00  0.00    +0.116 A 
ENDROOT
BRANCH   4   7
ATOM      7  C   UNL     1       6.973  -3.433  23.079  0.00  0.00    +0.011 A 
ATOM      8  C   UNL     1       7.607  -4.651  23.459  0.00  0.00    +0.032 A 
ATOM      9  C   UNL     1       7.475  -5.816  22.656  0.00  0.00    +0.012 A 
ATOM     10  C   UNL     1       6.673  -5.835  21.527  0.00  0.00    +0.001 A 
ATOM     11  C   UNL     1       5.988  -4.682  21.184  0.00  0.00    +0.001 A 
ATOM     12  C   UNL     1       6.143  -3.504  21.928  0.00  0.00    +0.011 A 
BRANCH   8  13
ATOM     13  C   UNL     1       8.364  -4.845  24.693  0.00  0.00    +0.205 A 
ATOM     14  N   UNL     1       9.738  -4.834  24.756  0.00  0.00    -0.108 NA
ATOM     15  N   UNL     1      10.065  -4.963  26.035  0.00  0.00    -0.049 NA
ATOM     16  N   UNL     1       8.896  -4.995  26.680  0.00  0.00    -0.176 N 
ATOM     17  H   UNL     1       8.844  -5.030  27.694  0.00  0.00    +0.214 HD
ATOM     18  N   UNL     1       7.800  -4.959  25.911  0.00  0.00    -0.133 NA
ENDBRANCH   8  13
ENDBRANCH   4   7
BRANCH   1  19
ATOM     19  C   UNL     1       7.750   1.796  25.578  0.00  0.00    +0.182 C 
BRANCH  19  23
ATOM     20  C   UNL     1       8.958   4.726  24.076  0.00  0.00    +0.151 A 
ATOM     21  N   UNL     1       8.257   4.271  23.001  0.00  0.00    -0.216 NA
ATOM     22  C   UNL     1       7.789   3.105  23.391  0.00  0.00    +0.128 A 
ATOM     23  N   UNL     1       8.187   2.882  24.699  0.00  0.00    -0.245 N 
ATOM     24  N   UNL     1       8.916   3.929  25.153  0.00  0.00    -0.154 NA
BRANCH  20  25
ATOM     25  C   UNL     1       9.731   5.988  23.973  0.00  0.00    +0.078 C 
BRANCH  25  26
ATOM     26  C   UNL     1      11.226   5.839  24.261  0.00  0.00    +0.007 C 
BRANCH  26  28
ATOM     27  C   UNL     1      12.912   5.501  22.425  0.00  0.00    +0.004 C 
ATOM     28  C   UNL     1      11.933   4.814  23.367  0.00  0.00    -0.003 C 
ENDBRANCH  26  28
ENDBRANCH  25  26
ENDBRANCH  20  25
BRANCH  22  29
ATOM     29  C   UNL     1       7.097   2.172  22.459  0.00  0.00    +0.076 C 
BRANCH  29  30
ATOM     30  C   UNL     1       7.885   1.715  21.232  0.00  0.00    +0.007 C 
BRANCH  30  31
ATOM     31  C   UNL     1       9.250   1.187  21.699  0.00  0.00    -0.003 C 
ATOM     32  C   UNL     1       9.516  -0.254  21.304  0.00  0.00    +0.004 C 
ENDBRANCH  30  31
ENDBRANCH  29  30
ENDBRANCH  22  29
ENDBRANCH  19  23
ENDBRANCH   1  19
TORSDOF 10
ENDMDL
MODEL 7
REMARK VINA RESULT:      -6.6      2.889      5.233
REMARK  Name = 
REMARK  12 active torsions:
REMARK  status: ('A' for Active; 'I' for Inactive)
REMARK    1  A    between atoms: C_1  and  C_2
REMARK    2  A    between atoms: C_2  and  C_3
REMARK    3  A    between atoms: C_3  and  C_4
REMARK    4  A    between atoms: C_4  and  C_5
REMARK    5  A    between atoms: N_7  and  C_8
REMARK    6  A    between atoms: C_8  and  C_9
REMARK    7  A    between atoms: C_12  and  C_15
REMARK    8  A    between atoms: C_20  and  C_21
REMARK    9  A    between atoms: C_26  and  C_27
REMARK   10  A    between atoms: C_27  and  C_28
REMARK   11  A    between atoms: C_28  and  C_29
REMARK   12  A    between atoms: C_29  and  C_30
REMARK                            x       y       z     vdW  Elec       q    Type
REMARK                         _______ _______ _______ _____ _____    ______ ____
ROOT
ATOM      1  C   UNL     1       6.483  -1.477  26.419  0.00  0.00    -0.008 A 
ATOM      2  C   UNL     1       7.824  -1.253  26.735  0.00  0.00    +0.009 A 
ATOM      3  C   UNL     1       8.523  -0.172  26.191  0.00  0.00    +0.029 A 
ATOM      4  C   UNL     1       7.942   0.631  25.217  0.00  0.00    +0.072 A 
ATOM      5  N   UNL     1       6.634   0.432  24.887  0.00  0.00    -0.255 NA
ATOM      6  C   UNL     1       5.940  -0.594  25.493  0.00  0.00    +0.116 A 
ENDROOT
BRANCH   4   7
ATOM      7  C   UNL     1       8.686   1.746  24.532  0.00  0.00    +0.011 A 
ATOM      8  C   UNL     1       9.620   1.578  23.469  0.00  0.00    +0.032 A 
ATOM      9  C   UNL     1      10.371   2.684  22.986  0.00  0.00    +0.012 A 
ATOM     10  C   UNL     1      10.172   3.966  23.469  0.00  0.00    +0.001 A 
ATOM     11  C   UNL     1       9.214   4.162  24.449  0.00  0.00    +0.001 A 
ATOM     12  C   UNL     1       8.498   3.080  24.981  0.00  0.00    +0.011 A 
BRANCH   8  13
ATOM     13  C   UNL     1       9.844   0.328  22.747  0.00  0.00    +0.205 A 
ATOM     14  N   UNL     1      10.607  -0.708  23.232  0.00  0.00    -0.108 NA
ATOM     15  N   UNL     1      10.521  -1.694  22.349  0.00  0.00    -0.049 NA
ATOM     16  N   UNL     1       9.684  -1.237  21.414  0.00  0.00    -0.176 N 
ATOM     17  H   UNL     1       9.384  -1.815  20.634  0.00  0.00    +0.214 HD
ATOM     18  N   UNL     1       9.250   0.019  21.578  0.00  0.00    -0.133 NA
ENDBRANCH   8  13
ENDBRANCH   4   7
BRANCH   1  19
ATOM     19  C   UNL     1       5.806  -2.698  27.011  0.00  0.00    +0.182 C 
BRANCH  19  23
ATOM     20  C   UNL     1       4.853  -5.361  24.938  0.00  0.00    +0.151 A 
ATOM     21  N   UNL     1       5.857  -6.013  25.586  0.00  0.00    -0.216 NA
ATOM     22  C   UNL     1       6.381  -5.097  26.373  0.00  0.00    +0.128 A 
ATOM     23  N   UNL     1       5.675  -3.917  26.211  0.00  0.00    -0.245 N 
ATOM     24  N   UNL     1       4.677  -4.087  25.312  0.00  0.00    -0.154 NA
BRANCH  20  25
ATOM     25  C   UNL     1       4.090  -6.056  23.872  0.00  0.00    +0.078 C 
BRANCH  25  26
ATOM     26  C   UNL     1       4.577  -5.762  22.452  0.00  0.00    +0.007 C 
BRANCH  26  28
ATOM     27  C   UNL     1       6.985  -6.070  21.795  0.00  0.00    +0.004 C 
ATOM     28  C   UNL     1       5.965  -5.112  22.393  0.00  0.00    -0.003 C 
ENDBRANCH  26  28
ENDBRANCH  25  26
ENDBRANCH  20  25
BRANCH  22  29
ATOM     29  C   UNL     1       7.631  -5.333  27.148  0.00  0.00    +0.076 C 
BRANCH  29  30
ATOM     30  C   UNL     1       8.906  -4.685  26.611  0.00  0.00    +0.007 C 
BRANCH  30  31
ATOM     31  C   UNL     1       9.017  -4.997  25.110  0.00  0.00    -0.003 C 
ATOM     32  C   UNL     1       8.790  -3.791  24.217  0.00  0.00    +0.004 C 
ENDBRANCH  30  31
ENDBRANCH  29  30
ENDBRANCH  22  29
ENDBRANCH  19  23
ENDBRANCH   1  19
TORSDOF 10
ENDMDL
MODEL 8
REMARK VINA RESULT:      -6.6      2.383      4.188
REMARK  Name = 
REMARK  12 active torsions:
REMARK  status: ('A' for Active; 'I' for Inactive)
REMARK    1  A    between atoms: C_1  and  C_2
REMARK    2  A    between atoms: C_2  and  C_3
REMARK    3  A    between atoms: C_3  and  C_4
REMARK    4  A    between atoms: C_4  and  C_5
REMARK    5  A    between atoms: N_7  and  C_8
REMARK    6  A    between atoms: C_8  and  C_9
REMARK    7  A    between atoms: C_12  and  C_15
REMARK    8  A    between atoms: C_20  and  C_21
REMARK    9  A    between atoms: C_26  and  C_27
REMARK   10  A    between atoms: C_27  and  C_28
REMARK   11  A    between atoms: C_28  and  C_29
REMARK   12  A    between atoms: C_29  and  C_30
REMARK                            x       y       z     vdW  Elec       q    Type
REMARK                         _______ _______ _______ _____ _____    ______ ____
ROOT
ATOM      1  C   UNL     1      10.111  -0.450  23.054  0.00  0.00    -0.008 A 
ATOM      2  C   UNL     1       9.806   0.376  21.972  0.00  0.00    +0.009 A 
ATOM      3  C   UNL     1       9.758   1.766  22.114  0.00  0.00    +0.029 A 
ATOM      4  C   UNL     1       9.882   2.355  23.367  0.00  0.00    +0.072 A 
ATOM      5  N   UNL     1      10.177   1.571  24.442  0.00  0.00    -0.255 NA
ATOM      6  C   UNL     1      10.296   0.209  24.264  0.00  0.00    +0.116 A 
ENDROOT
BRANCH   4   7
ATOM      7  C   UNL     1       9.742   3.838  23.585  0.00  0.00    +0.011 A 
ATOM      8  C   UNL     1       8.515   4.561  23.546  0.00  0.00    +0.032 A 
ATOM      9  C   UNL     1       8.510   5.980  23.628  0.00  0.00    +0.012 A 
ATOM     10  C   UNL     1       9.675   6.702  23.823  0.00  0.00    +0.001 A 
ATOM     11  C   UNL     1      10.869   6.011  23.940  0.00  0.00    +0.001 A 
ATOM     12  C   UNL     1      10.909   4.616  23.809  0.00  0.00    +0.011 A 
BRANCH   8  13
ATOM     13  C   UNL     1       7.189   3.949  23.493  0.00  0.00    +0.205 A 
ATOM     14  N   UNL     1       6.482   3.758  22.330  0.00  0.00    -0.108 NA
ATOM     15  N   UNL     1       5.370   3.115  22.658  0.00  0.00    -0.049 NA
ATOM     16  N   UNL     1       5.478   2.905  23.972  0.00  0.00    -0.176 N 
ATOM     17  H   UNL     1       4.784   2.371  24.489  0.00  0.00    +0.214 HD
ATOM     18  N   UNL     1       6.562   3.421  24.562  0.00  0.00    -0.133 NA
ENDBRANCH   8  13
ENDBRANCH   4   7
BRANCH   1  19
ATOM     19  C   UNL     1      10.097  -1.950  22.833  0.00  0.00    +0.182 C 
BRANCH  19  23
ATOM     20  C   UNL     1       6.847  -3.264  22.721  0.00  0.00    +0.151 A 
ATOM     21  N   UNL     1       7.218  -3.851  23.891  0.00  0.00    -0.216 NA
ATOM     22  C   UNL     1       8.478  -3.504  24.041  0.00  0.00    +0.128 A 
ATOM     23  N   UNL     1       8.845  -2.695  22.979  0.00  0.00    -0.245 N 
ATOM     24  N   UNL     1       7.796  -2.516  22.142  0.00  0.00    -0.154 NA
BRANCH  20  25
ATOM     25  C   UNL     1       5.498  -3.523  22.160  0.00  0.00    +0.078 C 
BRANCH  25  26
ATOM     26  C   UNL     1       4.587  -4.357  23.062  0.00  0.00    +0.007 C 
BRANCH  26  28
ATOM     27  C   UNL     1       4.654  -6.649  24.095  0.00  0.00    +0.004 C 
ATOM     28  C   UNL     1       4.654  -5.864  22.791  0.00  0.00    -0.003 C 
ENDBRANCH  26  28
ENDBRANCH  25  26
ENDBRANCH  20  25
BRANCH  22  29
ATOM     29  C   UNL     1       9.339  -4.072  25.116  0.00  0.00    +0.076 C 
BRANCH  29  30
ATOM     30  C   UNL     1       8.785  -4.022  26.540  0.00  0.00    +0.007 C 
BRANCH  30  31
ATOM     31  C   UNL     1       7.978  -5.304  26.793  0.00  0.00    -0.003 C 
ATOM     32  C   UNL     1       6.612  -5.056  27.406  0.00  0.00    +0.004 C 
ENDBRANCH  30  31
ENDBRANCH  29  30
ENDBRANCH  22  29
ENDBRANCH  19  23
ENDBRANCH   1  19
TORSDOF 10
ENDMDL
MODEL 9
REMARK VINA RESULT:      -6.4      2.349      8.823
REMARK  Name = 
REMARK  12 active torsions:
REMARK  status: ('A' for Active; 'I' for Inactive)
REMARK    1  A    between atoms: C_1  and  C_2
REMARK    2  A    between atoms: C_2  and  C_3
REMARK    3  A    between atoms: C_3  and  C_4
REMARK    4  A    between atoms: C_4  and  C_5
REMARK    5  A    between atoms: N_7  and  C_8
REMARK    6  A    between atoms: C_8  and  C_9
REMARK    7  A    between atoms: C_12  and  C_15
REMARK    8  A    between atoms: C_20  and  C_21
REMARK    9  A    between atoms: C_26  and  C_27
REMARK   10  A    between atoms: C_27  and  C_28
REMARK   11  A    between atoms: C_28  and  C_29
REMARK   12  A    between atoms: C_29  and  C_30
REMARK                            x       y       z     vdW  Elec       q    Type
REMARK                         _______ _______ _______ _____ _____    ______ ____
ROOT
ATOM      1  C   UNL     1       9.245   0.108  24.121  0.00  0.00    -0.008 A 
ATOM      2  C   UNL     1       9.644  -0.478  22.920  0.00  0.00    +0.009 A 
ATOM      3  C   UNL     1       9.013  -1.625  22.430  0.00  0.00    +0.029 A 
ATOM      4  C   UNL     1       8.058  -2.289  23.193  0.00  0.00    +0.072 A 
ATOM      5  N   UNL     1       7.652  -1.739  24.372  0.00  0.00    -0.255 NA
ATOM      6  C   UNL     1       8.235  -0.565  24.799  0.00  0.00    +0.116 A 
ENDROOT
BRANCH   4   7
ATOM      7  C   UNL     1       7.420  -3.579  22.752  0.00  0.00    +0.011 A 
ATOM      8  C   UNL     1       7.664  -4.857  23.333  0.00  0.00    +0.032 A 
ATOM      9  C   UNL     1       7.115  -6.032  22.753  0.00  0.00    +0.012 A 
ATOM     10  C   UNL     1       6.269  -5.976  21.658  0.00  0.00    +0.001 A 
ATOM     11  C   UNL     1       5.959  -4.736  21.125  0.00  0.00    +0.001 A 
ATOM     12  C   UNL     1       6.529  -3.566  21.646  0.00  0.00    +0.011 A 
BRANCH   8  13
ATOM     13  C   UNL     1       8.409  -5.080  24.570  0.00  0.00    +0.205 A 
ATOM     14  N   UNL     1       9.774  -4.951  24.674  0.00  0.00    -0.108 NA
ATOM     15  N   UNL     1      10.083  -5.152  25.948  0.00  0.00    -0.049 NA
ATOM     16  N   UNL     1       8.908  -5.339  26.554  0.00  0.00    -0.176 N 
ATOM     17  H   UNL     1       8.837  -5.458  27.561  0.00  0.00    +0.214 HD
ATOM     18  N   UNL     1       7.831  -5.340  25.759  0.00  0.00    -0.133 NA
ENDBRANCH   8  13
ENDBRANCH   4   7
BRANCH   1  19
ATOM     19  C   UNL     1      10.010   1.322  24.611  0.00  0.00    +0.182 C 
BRANCH  19  23
ATOM     20  C   UNL     1       7.958   4.166  24.548  0.00  0.00    +0.151 A 
ATOM     21  N   UNL     1       8.990   4.696  23.836  0.00  0.00    -0.216 NA
ATOM     22  C   UNL     1       9.902   3.747  23.834  0.00  0.00    +0.128 A 
ATOM     23  N   UNL     1       9.403   2.651  24.518  0.00  0.00    -0.245 N 
ATOM     24  N   UNL     1       8.147   2.903  24.957  0.00  0.00    -0.154 NA
BRANCH  20  25
ATOM     25  C   UNL     1       6.770   4.999  24.858  0.00  0.00    +0.078 C 
BRANCH  25  26
ATOM     26  C   UNL     1       5.431   4.289  24.661  0.00  0.00    +0.007 C 
BRANCH  26  28
ATOM     27  C   UNL     1       5.103   3.104  22.466  0.00  0.00    +0.004 C 
ATOM     28  C   UNL     1       4.873   4.396  23.236  0.00  0.00    -0.003 C 
ENDBRANCH  26  28
ENDBRANCH  25  26
ENDBRANCH  20  25
BRANCH  22  29
ATOM     29  C   UNL     1      11.277   3.965  23.306  0.00  0.00    +0.076 C 
BRANCH  29  30
ATOM     30  C   UNL     1      11.935   5.305  23.630  0.00  0.00    +0.007 C 
BRANCH  30  31
ATOM     31  C   UNL     1      13.377   5.281  23.099  0.00  0.00    -0.003 C 
ATOM     32  C   UNL     1      13.509   5.763  21.667  0.00  0.00    +0.004 C 
ENDBRANCH  30  31
ENDBRANCH  29  30
ENDBRANCH  22  29
ENDBRANCH  19  23
ENDBRANCH   1  19
TORSDOF 10
ENDMDL
