MODEL 1
REMARK VINA RESULT:      -6.4      0.000      0.000
REMARK  Name = 
REMARK  2 active torsions:
REMARK  status: ('A' for Active; 'I' for Inactive)
REMARK    1  A    between atoms: C_1  and  C_2
REMARK    2  A    between atoms: C_3  and  C_10
REMARK                            x       y       z     vdW  Elec       q    Type
REMARK                         _______ _______ _______ _____ _____    ______ ____
ROOT
ATOM      1  C   UNL     1       5.014  -2.742  25.065  0.00  0.00    +0.066 C 
ATOM      2  C   UNL     1       5.859  -3.838  25.648  0.00  0.00    +0.053 A 
ATOM      3  N   UNL     1       5.124  -4.942  25.946  0.00  0.00    -0.219 NA
ATOM      4  C   UNL     1       5.749  -5.979  26.488  0.00  0.00    +0.214 A 
ATOM      5  N   UNL     1       5.001  -7.105  26.761  0.00  0.00    -0.327 N 
ATOM      6  H   UNL     1       4.026  -6.859  26.844  0.00  0.00    +0.145 HD
ATOM      7  H   UNL     1       5.420  -7.619  27.523  0.00  0.00    +0.145 HD
ATOM      8  N   UNL     1       7.033  -5.999  26.801  0.00  0.00    -0.199 NA
ATOM      9  C   UNL     1       7.757  -4.915  26.462  0.00  0.00    +0.129 A 
ATOM     10  N   UNL     1       9.108  -5.069  26.803  0.00  0.00    -0.343 N 
ATOM     11  H   UNL     1       9.197  -5.997  27.211  0.00  0.00    +0.144 HD
ATOM     12  H   UNL     1       9.700  -4.962  25.990  0.00  0.00    +0.144 HD
ATOM     13  C   UNL     1       7.245  -3.763  25.843  0.00  0.00    +0.043 A 
ENDROOT
BRANCH  13  14
ATOM     14  C   UNL     1       8.108  -2.601  25.441  0.00  0.00    -0.011 A 
ATOM     15  C   UNL     1       8.321  -1.498  26.294  0.00  0.00    +0.010 A 
ATOM     16  C   UNL     1       9.210  -0.461  25.974  0.00  0.00    +0.022 A 
ATOM     17  C   UNL     1       9.868  -0.452  24.749  0.00  0.00    +0.059 A 
ATOM     18 CL   UNL     1      10.948   0.850  24.412  0.00  0.00    -0.082 Cl
ATOM     19  C   UNL     1       9.637  -1.496  23.853  0.00  0.00    +0.060 A 
ATOM     20 CL   UNL     1      10.350  -1.530  22.277  0.00  0.00    -0.082 Cl
ATOM     21  C   UNL     1       8.800  -2.566  24.213  0.00  0.00    +0.030 A 
ENDBRANCH  13  14
TORSDOF 1
ENDMDL
MODEL 2
REMARK VINA RESULT:      -6.3      1.321      2.058
REMARK  Name = 
REMARK  2 active torsions:
REMARK  status: ('A' for Active; 'I' for Inactive)
REMARK    1  A    between atoms: C_1  and  C_2
REMARK    2  A    between atoms: C_3  and  C_10
REMARK                            x       y       z     vdW  Elec       q    Type
REMARK                         _______ _______ _______ _____ _____    ______ ____
ROOT
ATOM      1  C   UNL     1       5.743  -2.371  26.382  0.00  0.00    +0.066 C 
ATOM      2  C   UNL     1       6.647  -3.557  26.558  0.00  0.00    +0.053 A 
ATOM      3  N   UNL     1       6.138  -4.456  27.441  0.00  0.00    -0.219 NA
ATOM      4  C   UNL     1       6.850  -5.544  27.703  0.00  0.00    +0.214 A 
ATOM      5  N   UNL     1       6.314  -6.464  28.579  0.00  0.00    -0.327 N 
ATOM      6  H   UNL     1       5.627  -6.018  29.169  0.00  0.00    +0.145 HD
ATOM      7  H   UNL     1       7.055  -6.980  29.032  0.00  0.00    +0.145 HD
ATOM      8  N   UNL     1       8.046  -5.796  27.198  0.00  0.00    -0.199 NA
ATOM      9  C   UNL     1       8.518  -4.918  26.293  0.00  0.00    +0.129 A 
ATOM     10  N   UNL     1       9.769  -5.311  25.795  0.00  0.00    -0.343 N 
ATOM     11  H   UNL     1       9.991  -6.196  26.247  0.00  0.00    +0.144 HD
ATOM     12  H   UNL     1       9.745  -5.403  24.789  0.00  0.00    +0.144 HD
ATOM     13  C   UNL     1       7.860  -3.748  25.881  0.00  0.00    +0.043 A 
ENDROOT
BRANCH  13  14
ATOM     14  C   UNL     1       8.411  -2.829  24.829  0.00  0.00    -0.011 A 
ATOM     15  C   UNL     1       8.128  -3.007  23.458  0.00  0.00    +0.010 A 
ATOM     16  C   UNL     1       8.548  -2.094  22.479  0.00  0.00    +0.022 A 
ATOM     17  C   UNL     1       9.334  -1.001  22.828  0.00  0.00    +0.059 A 
ATOM     18 CL   UNL     1       9.820   0.086  21.581  0.00  0.00    -0.082 Cl
ATOM     19  C   UNL     1       9.685  -0.824  24.166  0.00  0.00    +0.060 A 
ATOM     20 CL   UNL     1      10.722   0.460  24.683  0.00  0.00    -0.082 Cl
ATOM     21  C   UNL     1       9.200  -1.705  25.148  0.00  0.00    +0.030 A 
ENDBRANCH  13  14
TORSDOF 1
ENDMDL
MODEL 3
REMARK VINA RESULT:      -6.2      4.813      6.652
REMARK  Name = 
REMARK  2 active torsions:
REMARK  status: ('A' for Active; 'I' for Inactive)
REMARK    1  A    between atoms: C_1  and  C_2
REMARK    2  A    between atoms: C_3  and  C_10
REMARK                            x       y       z     vdW  Elec       q    Type
REMARK                         _______ _______ _______ _____ _____    ______ ____
ROOT
ATOM      1  C   UNL     1       7.978   0.784  25.614  0.00  0.00    +0.066 C 
ATOM      2  C   UNL     1       8.712   0.855  24.306  0.00  0.00    +0.053 A 
ATOM      3  N   UNL     1       9.426   2.006  24.187  0.00  0.00    -0.219 NA
ATOM      4  C   UNL     1      10.106   2.204  23.065  0.00  0.00    +0.214 A 
ATOM      5  N   UNL     1      10.850   3.361  22.964  0.00  0.00    -0.327 N 
ATOM      6  H   UNL     1      10.491   4.057  23.600  0.00  0.00    +0.145 HD
ATOM      7  H   UNL     1      10.949   3.622  21.993  0.00  0.00    +0.145 HD
ATOM      8  N   UNL     1      10.105   1.378  22.033  0.00  0.00    -0.199 NA
ATOM      9  C   UNL     1       9.428   0.223  22.182  0.00  0.00    +0.129 A 
ATOM     10  N   UNL     1       9.535  -0.589  21.044  0.00  0.00    -0.343 N 
ATOM     11  H   UNL     1      10.131  -0.087  20.389  0.00  0.00    +0.144 HD
ATOM     12  H   UNL     1       9.919  -1.493  21.279  0.00  0.00    +0.144 HD
ATOM     13  C   UNL     1       8.700  -0.146  23.325  0.00  0.00    +0.043 A 
ENDROOT
BRANCH  13  14
ATOM     14  C   UNL     1       8.005  -1.471  23.456  0.00  0.00    -0.011 A 
ATOM     15  C   UNL     1       6.666  -1.656  23.048  0.00  0.00    +0.010 A 
ATOM     16  C   UNL     1       6.042  -2.912  23.065  0.00  0.00    +0.022 A 
ATOM     17  C   UNL     1       6.714  -4.023  23.563  0.00  0.00    +0.059 A 
ATOM     18 CL   UNL     1       5.895  -5.541  23.559  0.00  0.00    -0.082 Cl
ATOM     19  C   UNL     1       8.018  -3.869  24.032  0.00  0.00    +0.060 A 
ATOM     20 CL   UNL     1       8.903  -5.176  24.740  0.00  0.00    -0.082 Cl
ATOM     21  C   UNL     1       8.658  -2.620  23.944  0.00  0.00    +0.030 A 
ENDBRANCH  13  14
TORSDOF 1
ENDMDL
MODEL 4
REMARK VINA RESULT:      -6.1      4.482      6.545
REMARK  Name = 
REMARK  2 active torsions:
REMARK  status: ('A' for Active; 'I' for Inactive)
REMARK    1  A    between atoms: C_1  and  C_2
REMARK    2  A    between atoms: C_3  and  C_10
REMARK                            x       y       z     vdW  Elec       q    Type
REMARK                         _______ _______ _______ _____ _____    ______ ____
ROOT
ATOM      1  C   UNL     1       9.430  -0.651  21.136  0.00  0.00    +0.066 C 
ATOM      2  C   UNL     1       9.542   0.165  22.392  0.00  0.00    +0.053 A 
ATOM      3  N   UNL     1      10.107   1.380  22.160  0.00  0.00    -0.219 NA
ATOM      4  C   UNL     1      10.282   2.193  23.193  0.00  0.00    +0.214 A 
ATOM      5  N   UNL     1      10.831   3.433  22.944  0.00  0.00    -0.327 N 
ATOM      6  H   UNL     1      11.350   3.413  22.079  0.00  0.00    +0.145 HD
ATOM      7  H   UNL     1      11.310   3.769  23.768  0.00  0.00    +0.145 HD
ATOM      8  N   UNL     1       9.985   1.889  24.444  0.00  0.00    -0.199 NA
ATOM      9  C   UNL     1       9.386   0.701  24.653  0.00  0.00    +0.129 A 
ATOM     10  N   UNL     1       9.078   0.508  26.007  0.00  0.00    -0.343 N 
ATOM     11  H   UNL     1       9.378   1.352  26.492  0.00  0.00    +0.144 HD
ATOM     12  H   UNL     1       8.090   0.338  26.133  0.00  0.00    +0.144 HD
ATOM     13  C   UNL     1       9.094  -0.244  23.656  0.00  0.00    +0.043 A 
ENDROOT
BRANCH  13  14
ATOM     14  C   UNL     1       8.379  -1.534  23.939  0.00  0.00    -0.011 A 
ATOM     15  C   UNL     1       6.983  -1.665  23.777  0.00  0.00    +0.010 A 
ATOM     16  C   UNL     1       6.321  -2.892  23.933  0.00  0.00    +0.022 A 
ATOM     17  C   UNL     1       7.023  -4.024  24.332  0.00  0.00    +0.059 A 
ATOM     18 CL   UNL     1       6.154  -5.504  24.508  0.00  0.00    -0.082 Cl
ATOM     19  C   UNL     1       8.395  -3.921  24.560  0.00  0.00    +0.060 A 
ATOM     20 CL   UNL     1       9.336  -5.255  25.131  0.00  0.00    -0.082 Cl
ATOM     21  C   UNL     1       9.061  -2.704  24.331  0.00  0.00    +0.030 A 
ENDBRANCH  13  14
TORSDOF 1
ENDMDL
MODEL 5
REMARK VINA RESULT:      -6.0      1.491      2.823
REMARK  Name = 
REMARK  2 active torsions:
REMARK  status: ('A' for Active; 'I' for Inactive)
REMARK    1  A    between atoms: C_1  and  C_2
REMARK    2  A    between atoms: C_3  and  C_10
REMARK                            x       y       z     vdW  Elec       q    Type
REMARK                         _______ _______ _______ _____ _____    ______ ____
ROOT
ATOM      1  C   UNL     1       9.802  -5.257  25.430  0.00  0.00    +0.066 C 
ATOM      2  C   UNL     1       8.476  -4.799  25.967  0.00  0.00    +0.053 A 
ATOM      3  N   UNL     1       7.986  -5.653  26.904  0.00  0.00    -0.219 NA
ATOM      4  C   UNL     1       6.807  -5.374  27.445  0.00  0.00    +0.214 A 
ATOM      5  N   UNL     1       6.329  -6.230  28.414  0.00  0.00    -0.327 N 
ATOM      6  H   UNL     1       6.768  -7.134  28.322  0.00  0.00    +0.145 HD
ATOM      7  H   UNL     1       5.319  -6.201  28.432  0.00  0.00    +0.145 HD
ATOM      8  N   UNL     1       6.052  -4.344  27.103  0.00  0.00    -0.199 NA
ATOM      9  C   UNL     1       6.569  -3.484  26.205  0.00  0.00    +0.129 A 
ATOM     10  N   UNL     1       5.700  -2.412  25.956  0.00  0.00    -0.343 N 
ATOM     11  H   UNL     1       4.888  -2.556  26.553  0.00  0.00    +0.144 HD
ATOM     12  H   UNL     1       6.152  -1.528  26.150  0.00  0.00    +0.144 HD
ATOM     13  C   UNL     1       7.820  -3.621  25.582  0.00  0.00    +0.043 A 
ENDROOT
BRANCH  13  14
ATOM     14  C   UNL     1       8.370  -2.604  24.624  0.00  0.00    -0.011 A 
ATOM     15  C   UNL     1       8.090  -2.653  23.241  0.00  0.00    +0.010 A 
ATOM     16  C   UNL     1       8.507  -1.648  22.355  0.00  0.00    +0.022 A 
ATOM     17  C   UNL     1       9.288  -0.591  22.808  0.00  0.00    +0.059 A 
ATOM     18 CL   UNL     1       9.772   0.612  21.671  0.00  0.00    -0.082 Cl
ATOM     19  C   UNL     1       9.637  -0.540  24.157  0.00  0.00    +0.060 A 
ATOM     20 CL   UNL     1      10.667   0.693  24.796  0.00  0.00    -0.082 Cl
ATOM     21  C   UNL     1       9.153  -1.513  25.050  0.00  0.00    +0.030 A 
ENDBRANCH  13  14
TORSDOF 1
ENDMDL
MODEL 6
REMARK VINA RESULT:      -5.9      4.857      6.625
REMARK  Name = 
REMARK  2 active torsions:
REMARK  status: ('A' for Active; 'I' for Inactive)
REMARK    1  A    between atoms: C_1  and  C_2
REMARK    2  A    between atoms: C_3  and  C_10
REMARK                            x       y       z     vdW  Elec       q    Type
REMARK                         _______ _______ _______ _____ _____    ______ ____
ROOT
ATOM      1  C   UNL     1       8.234   0.828  25.702  0.00  0.00    +0.066 C 
ATOM      2  C   UNL     1       8.892   0.851  24.352  0.00  0.00    +0.053 A 
ATOM      3  N   UNL     1       9.507   2.039  24.108  0.00  0.00    -0.219 NA
ATOM      4  C   UNL     1      10.111   2.199  22.938  0.00  0.00    +0.214 A 
ATOM      5  N   UNL     1      10.756   3.396  22.709  0.00  0.00    -0.327 N 
ATOM      6  H   UNL     1      10.377   4.111  23.311  0.00  0.00    +0.145 HD
ATOM      7  H   UNL     1      10.785   3.587  21.717  0.00  0.00    +0.145 HD
ATOM      8  N   UNL     1      10.121   1.297  21.971  0.00  0.00    -0.199 NA
ATOM      9  C   UNL     1       9.546   0.110  22.243  0.00  0.00    +0.129 A 
ATOM     10  N   UNL     1       9.657  -0.777  21.163  0.00  0.00    -0.343 N 
ATOM     11  H   UNL     1      10.178  -0.285  20.440  0.00  0.00    +0.144 HD
ATOM     12  H   UNL     1      10.123  -1.630  21.442  0.00  0.00    +0.144 HD
ATOM     13  C   UNL     1       8.909  -0.222  23.450  0.00  0.00    +0.043 A 
ENDROOT
BRANCH  13  14
ATOM     14  C   UNL     1       8.326  -1.580  23.718  0.00  0.00    -0.011 A 
ATOM     15  C   UNL     1       9.022  -2.557  24.461  0.00  0.00    +0.010 A 
ATOM     16  C   UNL     1       8.444  -3.788  24.810  0.00  0.00    +0.022 A 
ATOM     17  C   UNL     1       7.170  -4.118  24.362  0.00  0.00    +0.059 A 
ATOM     18 CL   UNL     1       6.514  -5.645  24.821  0.00  0.00    -0.082 Cl
ATOM     19  C   UNL     1       6.474  -3.202  23.573  0.00  0.00    +0.060 A 
ATOM     20 CL   UNL     1       4.918  -3.556  22.907  0.00  0.00    -0.082 Cl
ATOM     21  C   UNL     1       7.034  -1.943  23.290  0.00  0.00    +0.030 A 
ENDBRANCH  13  14
TORSDOF 1
ENDMDL
MODEL 7
REMARK VINA RESULT:      -5.9      4.220      5.859
REMARK  Name = 
REMARK  2 active torsions:
REMARK  status: ('A' for Active; 'I' for Inactive)
REMARK    1  A    between atoms: C_1  and  C_2
REMARK    2  A    between atoms: C_3  and  C_10
REMARK                            x       y       z     vdW  Elec       q    Type
REMARK                         _______ _______ _______ _____ _____    ______ ____
ROOT
ATOM      1  C   UNL     1       6.050  -2.373  24.306  0.00  0.00    +0.066 C 
ATOM      2  C   UNL     1       7.438  -2.940  24.371  0.00  0.00    +0.053 A 
ATOM      3  N   UNL     1       8.326  -2.192  23.663  0.00  0.00    -0.219 NA
ATOM      4  C   UNL     1       9.589  -2.597  23.622  0.00  0.00    +0.214 A 
ATOM      5  N   UNL     1      10.488  -1.818  22.925  0.00  0.00    -0.327 N 
ATOM      6  H   UNL     1      10.000  -1.250  22.250  0.00  0.00    +0.145 HD
ATOM      7  H   UNL     1      11.251  -2.390  22.590  0.00  0.00    +0.145 HD
ATOM      8  N   UNL     1      10.039  -3.704  24.187  0.00  0.00    -0.199 NA
ATOM      9  C   UNL     1       9.158  -4.412  24.921  0.00  0.00    +0.129 A 
ATOM     10  N   UNL     1       9.758  -5.536  25.506  0.00  0.00    -0.343 N 
ATOM     11  H   UNL     1      10.738  -5.513  25.232  0.00  0.00    +0.144 HD
ATOM     12  H   UNL     1       9.652  -5.521  26.511  0.00  0.00    +0.144 HD
ATOM     13  C   UNL     1       7.803  -4.085  25.094  0.00  0.00    +0.043 A 
ENDROOT
BRANCH  13  14
ATOM     14  C   UNL     1       6.876  -4.884  25.965  0.00  0.00    -0.011 A 
ATOM     15  C   UNL     1       6.931  -4.816  27.373  0.00  0.00    +0.010 A 
ATOM     16  C   UNL     1       6.001  -5.473  28.194  0.00  0.00    +0.022 A 
ATOM     17  C   UNL     1       5.022  -6.286  27.634  0.00  0.00    +0.059 A 
ATOM     18 CL   UNL     1       3.907  -7.068  28.693  0.00  0.00    -0.082 Cl
ATOM     19  C   UNL     1       4.973  -6.426  26.247  0.00  0.00    +0.060 A 
ATOM     20 CL   UNL     1       3.840  -7.475  25.468  0.00  0.00    -0.082 Cl
ATOM     21  C   UNL     1       5.864  -5.707  25.432  0.00  0.00    +0.030 A 
ENDBRANCH  13  14
TORSDOF 1
ENDMDL
MODEL 8
REMARK VINA RESULT:      -5.8      2.981      4.254
REMARK  Name = 
REMARK  2 active torsions:
REMARK  status: ('A' for Active; 'I' for Inactive)
REMARK    1  A    between atoms: C_1  and  C_2
REMARK    2  A    between atoms: C_3  and  C_10
REMARK                            x       y       z     vdW  Elec       q    Type
REMARK                         _______ _______ _______ _____ _____    ______ ____
ROOT
ATOM      1  C   UNL     1       7.268  -1.112  26.494  0.00  0.00    +0.066 C 
ATOM      2  C   UNL     1       8.214  -1.858  25.598  0.00  0.00    +0.053 A 
ATOM      3  N   UNL     1       8.471  -3.110  26.061  0.00  0.00    -0.219 NA
ATOM      4  C   UNL     1       9.310  -3.870  25.370  0.00  0.00    +0.214 A 
ATOM      5  N   UNL     1       9.544  -5.148  25.832  0.00  0.00    -0.327 N 
ATOM      6  H   UNL     1       9.328  -5.203  26.816  0.00  0.00    +0.145 HD
ATOM      7  H   UNL     1      10.459  -5.459  25.537  0.00  0.00    +0.145 HD
ATOM      8  N   UNL     1       9.951  -3.479  24.282  0.00  0.00    -0.199 NA
ATOM      9  C   UNL     1       9.654  -2.253  23.811  0.00  0.00    +0.129 A 
ATOM     10  N   UNL     1      10.359  -1.967  22.633  0.00  0.00    -0.343 N 
ATOM     11  H   UNL     1      10.914  -2.795  22.423  0.00  0.00    +0.144 HD
ATOM     12  H   UNL     1       9.726  -1.743  21.878  0.00  0.00    +0.144 HD
ATOM     13  C   UNL     1       8.754  -1.354  24.406  0.00  0.00    +0.043 A 
ENDROOT
BRANCH  13  14
ATOM     14  C   UNL     1       8.423  -0.017  23.809  0.00  0.00    -0.011 A 
ATOM     15  C   UNL     1       7.298   0.172  22.978  0.00  0.00    +0.010 A 
ATOM     16  C   UNL     1       6.918   1.437  22.505  0.00  0.00    +0.022 A 
ATOM     17  C   UNL     1       7.696   2.555  22.785  0.00  0.00    +0.059 A 
ATOM     18 CL   UNL     1       7.179   4.083  22.174  0.00  0.00    -0.082 Cl
ATOM     19  C   UNL     1       8.849   2.399  23.554  0.00  0.00    +0.060 A 
ATOM     20 CL   UNL     1       9.918   3.717  23.888  0.00  0.00    -0.082 Cl
ATOM     21  C   UNL     1       9.181   1.139  24.083  0.00  0.00    +0.030 A 
ENDBRANCH  13  14
TORSDOF 1
ENDMDL
MODEL 9
REMARK VINA RESULT:      -5.8      2.702      3.266
REMARK  Name = 
REMARK  2 active torsions:
REMARK  status: ('A' for Active; 'I' for Inactive)
REMARK    1  A    between atoms: C_1  and  C_2
REMARK    2  A    between atoms: C_3  and  C_10
REMARK                            x       y       z     vdW  Elec       q    Type
REMARK                         _______ _______ _______ _____ _____    ______ ____
ROOT
ATOM      1  C   UNL     1       7.016  -3.520  22.643  0.00  0.00    +0.066 C 
ATOM      2  C   UNL     1       7.578  -3.360  24.026  0.00  0.00    +0.053 A 
ATOM      3  N   UNL     1       7.788  -4.560  24.630  0.00  0.00    -0.219 NA
ATOM      4  C   UNL     1       8.265  -4.558  25.868  0.00  0.00    +0.214 A 
ATOM      5  N   UNL     1       8.501  -5.779  26.464  0.00  0.00    -0.327 N 
ATOM      6  H   UNL     1       7.946  -6.493  26.016  0.00  0.00    +0.145 HD
ATOM      7  H   UNL     1       8.428  -5.692  27.468  0.00  0.00    +0.145 HD
ATOM      8  N   UNL     1       8.510  -3.469  26.575  0.00  0.00    -0.199 NA
ATOM      9  C   UNL     1       8.339  -2.288  25.949  0.00  0.00    +0.129 A 
ATOM     10  N   UNL     1       8.671  -1.209  26.780  0.00  0.00    -0.343 N 
ATOM     11  H   UNL     1       8.986  -1.612  27.660  0.00  0.00    +0.144 HD
ATOM     12  H   UNL     1       9.388  -0.635  26.357  0.00  0.00    +0.144 HD
ATOM     13  C   UNL     1       7.885  -2.132  24.629  0.00  0.00    +0.043 A 
ENDROOT
BRANCH  13  14
ATOM     14  C   UNL     1       7.759  -0.792  23.963  0.00  0.00    -0.011 A 
ATOM     15  C   UNL     1       6.558  -0.052  23.994  0.00  0.00    +0.010 A 
ATOM     16  C   UNL     1       6.461   1.247  23.471  0.00  0.00    +0.022 A 
ATOM     17  C   UNL     1       7.548   1.827  22.827  0.00  0.00    +0.059 A 
ATOM     18 CL   UNL     1       7.369   3.425  22.203  0.00  0.00    -0.082 Cl
ATOM     19  C   UNL     1       8.736   1.103  22.723  0.00  0.00    +0.060 A 
ATOM     20 CL   UNL     1      10.113   1.712  21.873  0.00  0.00    -0.082 Cl
ATOM     21  C   UNL     1       8.844  -0.168  23.314  0.00  0.00    +0.030 A 
ENDBRANCH  13  14
TORSDOF 1
ENDMDL
