MODEL 1
REMARK VINA RESULT:      -7.1      0.000      0.000
REMARK  Name = 
REMARK  7 active torsions:
REMARK  status: ('A' for Active; 'I' for Inactive)
REMARK    1  A    between atoms: C_1  and  C_2
REMARK    2  A    between atoms: C_2  and  O_3
REMARK    3  A    between atoms: O_3  and  C_4
REMARK    4  A    between atoms: N_6  and  C_7
REMARK    5  A    between atoms: C_8  and  N_9
REMARK    6  A    between atoms: N_12  and  C_13
REMARK    7  A    between atoms: C_13  and  C_14
REMARK                            x       y       z     vdW  Elec       q    Type
REMARK                         _______ _______ _______ _____ _____    ______ ____
ROOT
ATOM      1  C   UNL     1      10.525   1.620  23.593  0.00  0.00    +0.076 A 
ATOM      2  C   UNL     1      10.652   0.799  24.700  0.00  0.00    +0.030 A 
ATOM      3  C   UNL     1      10.013  -0.431  24.696  0.00  0.00    +0.045 A 
ATOM      4  C   UNL     1       9.286  -0.840  23.571  0.00  0.00    +0.121 A 
ATOM      5  N   UNL     1       8.592  -2.056  23.688  0.00  0.00    -0.325 N 
ATOM      6  H   UNL     1       9.140  -2.721  24.223  0.00  0.00    +0.148 HD
ATOM      7  N   UNL     1       9.165  -0.053  22.479  0.00  0.00    -0.216 NA
ATOM      8  C   UNL     1       9.768   1.159  22.506  0.00  0.00    +0.140 A 
ENDROOT
BRANCH   1  10
ATOM      9  C   UNL     1      10.376   4.039  23.739  0.00  0.00    +0.405 C 
ATOM     10  N   UNL     1      11.111   2.897  23.557  0.00  0.00    -0.248 N 
ATOM     11  H   UNL     1      11.918   3.017  22.956  0.00  0.00    +0.158 HD
ATOM     12  O   UNL     1       9.195   4.108  24.046  0.00  0.00    -0.226 OA
BRANCH   9  13
ATOM     13  O   UNL     1      11.141   5.098  23.370  0.00  0.00    -0.450 OA
BRANCH  13  15
ATOM     14  C   UNL     1      13.113   5.619  22.162  0.00  0.00    +0.048 C 
ATOM     15  C   UNL     1      12.557   4.869  23.358  0.00  0.00    +0.230 C 
ENDBRANCH  13  15
ENDBRANCH   9  13
ENDBRANCH   1  10
BRANCH   8  16
ATOM     16  N   UNL     1       9.547   2.007  21.402  0.00  0.00    -0.342 N 
ATOM     17  H   UNL     1      10.104   2.842  21.577  0.00  0.00    +0.144 HD
ATOM     18  H   UNL     1       9.866   1.544  20.556  0.00  0.00    +0.144 HD
ENDBRANCH   8  16
BRANCH   5  19
ATOM     19  C   UNL     1       8.108  -2.660  22.458  0.00  0.00    +0.138 C 
BRANCH  19  20
ATOM     20  C   UNL     1       7.251  -3.858  22.831  0.00  0.00    -0.030 A 
ATOM     21  C   UNL     1       6.718  -3.993  24.126  0.00  0.00    +0.008 A 
ATOM     22  C   UNL     1       5.899  -5.079  24.448  0.00  0.00    +0.038 A 
ATOM     23  C   UNL     1       5.606  -6.032  23.479  0.00  0.00    +0.123 A 
ATOM     24  F   UNL     1       4.816  -7.068  23.790  0.00  0.00    -0.205 F 
ATOM     25  C   UNL     1       6.120  -5.917  22.194  0.00  0.00    +0.038 A 
ATOM     26  C   UNL     1       6.940  -4.836  21.869  0.00  0.00    +0.008 A 
ENDBRANCH  19  20
ENDBRANCH   5  19
TORSDOF 6
ENDMDL
MODEL 2
REMARK VINA RESULT:      -7.1      4.908      8.941
REMARK  Name = 
REMARK  7 active torsions:
REMARK  status: ('A' for Active; 'I' for Inactive)
REMARK    1  A    between atoms: C_1  and  C_2
REMARK    2  A    between atoms: C_2  and  O_3
REMARK    3  A    between atoms: O_3  and  C_4
REMARK    4  A    between atoms: N_6  and  C_7
REMARK    5  A    between atoms: C_8  and  N_9
REMARK    6  A    between atoms: N_12  and  C_13
REMARK    7  A    between atoms: C_13  and  C_14
REMARK                            x       y       z     vdW  Elec       q    Type
REMARK                         _______ _______ _______ _____ _____    ______ ____
ROOT
ATOM      1  C   UNL     1       7.553  -5.065  25.672  0.00  0.00    +0.076 A 
ATOM      2  C   UNL     1       6.642  -4.730  24.687  0.00  0.00    +0.030 A 
ATOM      3  C   UNL     1       7.016  -3.811  23.717  0.00  0.00    +0.045 A 
ATOM      4  C   UNL     1       8.307  -3.269  23.724  0.00  0.00    +0.121 A 
ATOM      5  N   UNL     1       8.569  -2.278  22.766  0.00  0.00    -0.325 N 
ATOM      6  H   UNL     1       8.106  -2.503  21.892  0.00  0.00    +0.148 HD
ATOM      7  N   UNL     1       9.210  -3.599  24.675  0.00  0.00    -0.216 NA
ATOM      8  C   UNL     1       8.825  -4.474  25.633  0.00  0.00    +0.140 A 
ENDROOT
BRANCH   1  10
ATOM      9  C   UNL     1       6.655  -5.525  27.881  0.00  0.00    +0.405 C 
ATOM     10  N   UNL     1       7.217  -5.955  26.708  0.00  0.00    -0.248 N 
ATOM     11  H   UNL     1       7.788  -6.786  26.805  0.00  0.00    +0.158 HD
ATOM     12  O   UNL     1       6.287  -4.389  28.142  0.00  0.00    -0.226 OA
BRANCH   9  13
ATOM     13  O   UNL     1       6.712  -6.544  28.777  0.00  0.00    -0.450 OA
BRANCH  13  15
ATOM     14  C   UNL     1       4.452  -6.770  29.456  0.00  0.00    +0.048 C 
ATOM     15  C   UNL     1       5.853  -6.416  29.919  0.00  0.00    +0.230 C 
ENDBRANCH  13  15
ENDBRANCH   9  13
ENDBRANCH   1  10
BRANCH   8  16
ATOM     16  N   UNL     1       9.742  -4.728  26.673  0.00  0.00    -0.342 N 
ATOM     17  H   UNL     1      10.119  -3.821  26.939  0.00  0.00    +0.144 HD
ATOM     18  H   UNL     1       9.251  -5.148  27.457  0.00  0.00    +0.144 HD
ENDBRANCH   8  16
BRANCH   5  19
ATOM     19  C   UNL     1       9.963  -1.937  22.534  0.00  0.00    +0.138 C 
BRANCH  19  20
ATOM     20  C   UNL     1      10.130  -0.449  22.796  0.00  0.00    -0.030 A 
ATOM     21  C   UNL     1       9.843   0.499  21.797  0.00  0.00    +0.008 A 
ATOM     22  C   UNL     1       9.963   1.867  22.060  0.00  0.00    +0.038 A 
ATOM     23  C   UNL     1      10.366   2.294  23.320  0.00  0.00    +0.123 A 
ATOM     24  F   UNL     1      10.474   3.605  23.570  0.00  0.00    -0.205 F 
ATOM     25  C   UNL     1      10.652   1.375  24.322  0.00  0.00    +0.038 A 
ATOM     26  C   UNL     1      10.537   0.009  24.063  0.00  0.00    +0.008 A 
ENDBRANCH  19  20
ENDBRANCH   5  19
TORSDOF 6
ENDMDL
MODEL 3
REMARK VINA RESULT:      -6.8      5.106      9.530
REMARK  Name = 
REMARK  7 active torsions:
REMARK  status: ('A' for Active; 'I' for Inactive)
REMARK    1  A    between atoms: C_1  and  C_2
REMARK    2  A    between atoms: C_2  and  O_3
REMARK    3  A    between atoms: O_3  and  C_4
REMARK    4  A    between atoms: N_6  and  C_7
REMARK    5  A    between atoms: C_8  and  N_9
REMARK    6  A    between atoms: N_12  and  C_13
REMARK    7  A    between atoms: C_13  and  C_14
REMARK                            x       y       z     vdW  Elec       q    Type
REMARK                         _______ _______ _______ _____ _____    ______ ____
ROOT
ATOM      1  C   UNL     1       6.068  -5.693  23.529  0.00  0.00    +0.076 A 
ATOM      2  C   UNL     1       6.592  -5.181  24.704  0.00  0.00    +0.030 A 
ATOM      3  C   UNL     1       7.527  -4.160  24.628  0.00  0.00    +0.045 A 
ATOM      4  C   UNL     1       7.897  -3.638  23.383  0.00  0.00    +0.121 A 
ATOM      5  N   UNL     1       8.918  -2.674  23.392  0.00  0.00    -0.325 N 
ATOM      6  H   UNL     1       8.821  -2.069  24.200  0.00  0.00    +0.148 HD
ATOM      7  N   UNL     1       7.383  -4.121  22.229  0.00  0.00    -0.216 NA
ATOM      8  C   UNL     1       6.494  -5.138  22.313  0.00  0.00    +0.140 A 
ENDROOT
BRANCH   1  10
ATOM      9  C   UNL     1       3.909  -6.645  24.103  0.00  0.00    +0.405 C 
ATOM     10  N   UNL     1       5.152  -6.760  23.539  0.00  0.00    -0.248 N 
ATOM     11  H   UNL     1       5.536  -7.696  23.575  0.00  0.00    +0.158 HD
ATOM     12  O   UNL     1       3.404  -5.628  24.557  0.00  0.00    -0.226 OA
BRANCH   9  13
ATOM     13  O   UNL     1       3.378  -7.889  24.216  0.00  0.00    -0.450 OA
BRANCH  13  15
ATOM     14  C   UNL     1       1.380  -8.246  22.992  0.00  0.00    +0.048 C 
ATOM     15  C   UNL     1       1.952  -7.945  24.365  0.00  0.00    +0.230 C 
ENDBRANCH  13  15
ENDBRANCH   9  13
ENDBRANCH   1  10
BRANCH   8  16
ATOM     16  N   UNL     1       6.046  -5.697  21.099  0.00  0.00    -0.342 N 
ATOM     17  H   UNL     1       6.322  -5.040  20.371  0.00  0.00    +0.144 HD
ATOM     18  H   UNL     1       6.503  -6.593  20.955  0.00  0.00    +0.144 HD
ENDBRANCH   8  16
BRANCH   5  19
ATOM     19  C   UNL     1       9.095  -1.889  22.181  0.00  0.00    +0.138 C 
BRANCH  19  20
ATOM     20  C   UNL     1       9.590  -0.510  22.586  0.00  0.00    -0.030 A 
ATOM     21  C   UNL     1      10.182  -0.293  23.843  0.00  0.00    +0.008 A 
ATOM     22  C   UNL     1      10.669   0.971  24.191  0.00  0.00    +0.038 A 
ATOM     23  C   UNL     1      10.571   2.020  23.284  0.00  0.00    +0.123 A 
ATOM     24  F   UNL     1      11.045   3.227  23.618  0.00  0.00    -0.205 F 
ATOM     25  C   UNL     1       9.993   1.827  22.036  0.00  0.00    +0.038 A 
ATOM     26  C   UNL     1       9.502   0.568  21.687  0.00  0.00    +0.008 A 
ENDBRANCH  19  20
ENDBRANCH   5  19
TORSDOF 6
ENDMDL
MODEL 4
REMARK VINA RESULT:      -6.8      4.516      8.482
REMARK  Name = 
REMARK  7 active torsions:
REMARK  status: ('A' for Active; 'I' for Inactive)
REMARK    1  A    between atoms: C_1  and  C_2
REMARK    2  A    between atoms: C_2  and  O_3
REMARK    3  A    between atoms: O_3  and  C_4
REMARK    4  A    between atoms: N_6  and  C_7
REMARK    5  A    between atoms: C_8  and  N_9
REMARK    6  A    between atoms: N_12  and  C_13
REMARK    7  A    between atoms: C_13  and  C_14
REMARK                            x       y       z     vdW  Elec       q    Type
REMARK                         _______ _______ _______ _____ _____    ______ ____
ROOT
ATOM      1  C   UNL     1       8.054  -4.111  24.073  0.00  0.00    +0.076 A 
ATOM      2  C   UNL     1       9.263  -3.668  24.581  0.00  0.00    +0.030 A 
ATOM      3  C   UNL     1       9.913  -2.624  23.939  0.00  0.00    +0.045 A 
ATOM      4  C   UNL     1       9.329  -2.013  22.823  0.00  0.00    +0.121 A 
ATOM      5  N   UNL     1      10.098  -1.031  22.179  0.00  0.00    -0.325 N 
ATOM      6  H   UNL     1      10.610  -0.483  22.863  0.00  0.00    +0.148 HD
ATOM      7  N   UNL     1       8.143  -2.429  22.326  0.00  0.00    -0.216 NA
ATOM      8  C   UNL     1       7.531  -3.468  22.941  0.00  0.00    +0.140 A 
ENDROOT
BRANCH   1  10
ATOM      9  C   UNL     1       6.542  -5.039  25.731  0.00  0.00    +0.405 C 
ATOM     10  N   UNL     1       7.371  -5.195  24.651  0.00  0.00    -0.248 N 
ATOM     11  H   UNL     1       7.821  -6.101  24.605  0.00  0.00    +0.158 HD
ATOM     12  O   UNL     1       6.211  -3.984  26.252  0.00  0.00    -0.226 OA
BRANCH   9  13
ATOM     13  O   UNL     1       6.262  -6.269  26.232  0.00  0.00    -0.450 OA
BRANCH  13  15
ATOM     14  C   UNL     1       4.326  -7.057  25.114  0.00  0.00    +0.048 C 
ATOM     15  C   UNL     1       4.871  -6.555  26.438  0.00  0.00    +0.230 C 
ENDBRANCH  13  15
ENDBRANCH   9  13
ENDBRANCH   1  10
BRANCH   8  16
ATOM     16  N   UNL     1       6.348  -3.955  22.350  0.00  0.00    -0.342 N 
ATOM     17  H   UNL     1       5.628  -3.266  22.560  0.00  0.00    +0.144 HD
ATOM     18  H   UNL     1       6.482  -4.026  21.345  0.00  0.00    +0.144 HD
ENDBRANCH   8  16
BRANCH   5  19
ATOM     19  C   UNL     1       9.408  -0.164  21.239  0.00  0.00    +0.138 C 
BRANCH  19  20
ATOM     20  C   UNL     1       9.179   1.176  21.919  0.00  0.00    -0.030 A 
ATOM     21  C   UNL     1       8.012   1.922  21.676  0.00  0.00    +0.008 A 
ATOM     22  C   UNL     1       7.793   3.135  22.336  0.00  0.00    +0.038 A 
ATOM     23  C   UNL     1       8.736   3.606  23.242  0.00  0.00    +0.123 A 
ATOM     24  F   UNL     1       8.521   4.765  23.877  0.00  0.00    -0.205 F 
ATOM     25  C   UNL     1       9.895   2.884  23.499  0.00  0.00    +0.038 A 
ATOM     26  C   UNL     1      10.118   1.675  22.840  0.00  0.00    +0.008 A 
ENDBRANCH  19  20
ENDBRANCH   5  19
TORSDOF 6
ENDMDL
MODEL 5
REMARK VINA RESULT:      -6.8      2.438      3.126
REMARK  Name = 
REMARK  7 active torsions:
REMARK  status: ('A' for Active; 'I' for Inactive)
REMARK    1  A    between atoms: C_1  and  C_2
REMARK    2  A    between atoms: C_2  and  O_3
REMARK    3  A    between atoms: O_3  and  C_4
REMARK    4  A    between atoms: N_6  and  C_7
REMARK    5  A    between atoms: C_8  and  N_9
REMARK    6  A    between atoms: N_12  and  C_13
REMARK    7  A    between atoms: C_13  and  C_14
REMARK                            x       y       z     vdW  Elec       q    Type
REMARK                         _______ _______ _______ _____ _____    ______ ____
ROOT
ATOM      1  C   UNL     1       8.521   1.816  22.241  0.00  0.00    +0.076 A 
ATOM      2  C   UNL     1       9.720   1.226  21.879  0.00  0.00    +0.030 A 
ATOM      3  C   UNL     1       9.826  -0.156  21.934  0.00  0.00    +0.045 A 
ATOM      4  C   UNL     1       8.723  -0.930  22.314  0.00  0.00    +0.121 A 
ATOM      5  N   UNL     1       8.946  -2.312  22.434  0.00  0.00    -0.325 N 
ATOM      6  H   UNL     1       9.579  -2.629  21.708  0.00  0.00    +0.148 HD
ATOM      7  N   UNL     1       7.544  -0.366  22.656  0.00  0.00    -0.216 NA
ATOM      8  C   UNL     1       7.460   0.985  22.628  0.00  0.00    +0.140 A 
ENDROOT
BRANCH   1  10
ATOM      9  C   UNL     1       8.708   3.975  23.336  0.00  0.00    +0.405 C 
ATOM     10  N   UNL     1       8.367   3.214  22.250  0.00  0.00    -0.248 N 
ATOM     11  H   UNL     1       7.607   3.596  21.701  0.00  0.00    +0.158 HD
ATOM     12  O   UNL     1       9.263   3.589  24.355  0.00  0.00    -0.226 OA
BRANCH   9  13
ATOM     13  O   UNL     1       8.189   5.217  23.163  0.00  0.00    -0.450 OA
BRANCH  13  15
ATOM     14  C   UNL     1       6.990   6.778  21.842  0.00  0.00    +0.048 C 
ATOM     15  C   UNL     1       7.108   5.314  22.225  0.00  0.00    +0.230 C 
ENDBRANCH  13  15
ENDBRANCH   9  13
ENDBRANCH   1  10
BRANCH   8  16
ATOM     16  N   UNL     1       6.257   1.560  23.086  0.00  0.00    -0.342 N 
ATOM     17  H   UNL     1       5.755   1.857  22.251  0.00  0.00    +0.144 HD
ATOM     18  H   UNL     1       5.720   0.858  23.587  0.00  0.00    +0.144 HD
ENDBRANCH   8  16
BRANCH   5  19
ATOM     19  C   UNL     1       7.772  -3.165  22.503  0.00  0.00    +0.138 C 
BRANCH  19  20
ATOM     20  C   UNL     1       7.797  -3.888  23.839  0.00  0.00    -0.030 A 
ATOM     21  C   UNL     1       8.944  -3.867  24.653  0.00  0.00    +0.008 A 
ATOM     22  C   UNL     1       8.944  -4.502  25.899  0.00  0.00    +0.038 A 
ATOM     23  C   UNL     1       7.799  -5.158  26.337  0.00  0.00    +0.123 A 
ATOM     24  F   UNL     1       7.800  -5.760  27.533  0.00  0.00    -0.205 F 
ATOM     25  C   UNL     1       6.654  -5.190  25.551  0.00  0.00    +0.038 A 
ATOM     26  C   UNL     1       6.652  -4.559  24.306  0.00  0.00    +0.008 A 
ENDBRANCH  19  20
ENDBRANCH   5  19
TORSDOF 6
ENDMDL
MODEL 6
REMARK VINA RESULT:      -6.7      1.691      2.425
REMARK  Name = 
REMARK  7 active torsions:
REMARK  status: ('A' for Active; 'I' for Inactive)
REMARK    1  A    between atoms: C_1  and  C_2
REMARK    2  A    between atoms: C_2  and  O_3
REMARK    3  A    between atoms: O_3  and  C_4
REMARK    4  A    between atoms: N_6  and  C_7
REMARK    5  A    between atoms: C_8  and  N_9
REMARK    6  A    between atoms: N_12  and  C_13
REMARK    7  A    between atoms: C_13  and  C_14
REMARK                            x       y       z     vdW  Elec       q    Type
REMARK                         _______ _______ _______ _____ _____    ______ ____
ROOT
ATOM      1  C   UNL     1       9.517   2.301  23.093  0.00  0.00    +0.076 A 
ATOM      2  C   UNL     1       9.939   1.635  21.956  0.00  0.00    +0.030 A 
ATOM      3  C   UNL     1       9.902   0.249  21.943  0.00  0.00    +0.045 A 
ATOM      4  C   UNL     1       9.410  -0.451  23.051  0.00  0.00    +0.121 A 
ATOM      5  N   UNL     1       9.498  -1.851  22.991  0.00  0.00    -0.325 N 
ATOM      6  H   UNL     1       9.310  -2.173  22.048  0.00  0.00    +0.148 HD
ATOM      7  N   UNL     1       8.983   0.189  24.162  0.00  0.00    -0.216 NA
ATOM      8  C   UNL     1       9.050   1.541  24.176  0.00  0.00    +0.140 A 
ENDROOT
BRANCH   1  10
ATOM      9  C   UNL     1      10.747   4.369  23.420  0.00  0.00    +0.405 C 
ATOM     10  N   UNL     1       9.573   3.704  23.184  0.00  0.00    -0.248 N 
ATOM     11  H   UNL     1       8.752   4.175  23.544  0.00  0.00    +0.158 HD
ATOM     12  O   UNL     1      11.866   3.881  23.476  0.00  0.00    -0.226 OA
BRANCH   9  13
ATOM     13  O   UNL     1      10.449   5.655  23.736  0.00  0.00    -0.450 OA
BRANCH  13  15
ATOM     14  C   UNL     1       8.742   7.104  24.516  0.00  0.00    +0.048 C 
ATOM     15  C   UNL     1       9.513   5.830  24.810  0.00  0.00    +0.230 C 
ENDBRANCH  13  15
ENDBRANCH   9  13
ENDBRANCH   1  10
BRANCH   8  16
ATOM     16  N   UNL     1       8.698   2.187  25.379  0.00  0.00    -0.342 N 
ATOM     17  H   UNL     1       7.912   2.793  25.149  0.00  0.00    +0.144 HD
ATOM     18  H   UNL     1       8.414   1.490  26.061  0.00  0.00    +0.144 HD
ENDBRANCH   8  16
BRANCH   5  19
ATOM     19  C   UNL     1       8.714  -2.603  23.957  0.00  0.00    +0.138 C 
BRANCH  19  20
ATOM     20  C   UNL     1       7.821  -3.564  23.188  0.00  0.00    -0.030 A 
ATOM     21  C   UNL     1       6.917  -3.094  22.218  0.00  0.00    +0.008 A 
ATOM     22  C   UNL     1       6.128  -3.990  21.489  0.00  0.00    +0.038 A 
ATOM     23  C   UNL     1       6.242  -5.356  21.723  0.00  0.00    +0.123 A 
ATOM     24  F   UNL     1       5.490  -6.210  21.018  0.00  0.00    -0.205 F 
ATOM     25  C   UNL     1       7.131  -5.841  22.674  0.00  0.00    +0.038 A 
ATOM     26  C   UNL     1       7.917  -4.950  23.405  0.00  0.00    +0.008 A 
ENDBRANCH  19  20
ENDBRANCH   5  19
TORSDOF 6
ENDMDL
MODEL 7
REMARK VINA RESULT:      -6.6      1.200      1.470
REMARK  Name = 
REMARK  7 active torsions:
REMARK  status: ('A' for Active; 'I' for Inactive)
REMARK    1  A    between atoms: C_1  and  C_2
REMARK    2  A    between atoms: C_2  and  O_3
REMARK    3  A    between atoms: O_3  and  C_4
REMARK    4  A    between atoms: N_6  and  C_7
REMARK    5  A    between atoms: C_8  and  N_9
REMARK    6  A    between atoms: N_12  and  C_13
REMARK    7  A    between atoms: C_13  and  C_14
REMARK                            x       y       z     vdW  Elec       q    Type
REMARK                         _______ _______ _______ _____ _____    ______ ____
ROOT
ATOM      1  C   UNL     1      10.118   1.988  23.339  0.00  0.00    +0.076 A 
ATOM      2  C   UNL     1      10.582   1.194  24.373  0.00  0.00    +0.030 A 
ATOM      3  C   UNL     1      10.199  -0.138  24.414  0.00  0.00    +0.045 A 
ATOM      4  C   UNL     1       9.390  -0.667  23.401  0.00  0.00    +0.121 A 
ATOM      5  N   UNL     1       8.972  -1.997  23.571  0.00  0.00    -0.325 N 
ATOM      6  H   UNL     1       9.718  -2.549  23.982  0.00  0.00    +0.148 HD
ATOM      7  N   UNL     1       8.942   0.095  22.379  0.00  0.00    -0.216 NA
ATOM      8  C   UNL     1       9.297   1.401  22.364  0.00  0.00    +0.140 A 
ENDROOT
BRANCH   1  10
ATOM      9  C   UNL     1       9.751   4.298  23.992  0.00  0.00    +0.405 C 
ATOM     10  N   UNL     1      10.434   3.357  23.268  0.00  0.00    -0.248 N 
ATOM     11  H   UNL     1      10.802   3.700  22.389  0.00  0.00    +0.158 HD
ATOM     12  O   UNL     1       8.891   4.089  24.835  0.00  0.00    -0.226 OA
BRANCH   9  13
ATOM     13  O   UNL     1      10.078   5.524  23.509  0.00  0.00    -0.450 OA
BRANCH  13  15
ATOM     14  C   UNL     1       8.098   6.410  22.554  0.00  0.00    +0.048 C 
ATOM     15  C   UNL     1       9.091   6.549  23.693  0.00  0.00    +0.230 C 
ENDBRANCH  13  15
ENDBRANCH   9  13
ENDBRANCH   1  10
BRANCH   8  16
ATOM     16  N   UNL     1       8.739   2.204  21.349  0.00  0.00    -0.342 N 
ATOM     17  H   UNL     1       9.504   2.772  20.992  0.00  0.00    +0.144 HD
ATOM     18  H   UNL     1       8.373   1.606  20.614  0.00  0.00    +0.144 HD
ENDBRANCH   8  16
BRANCH   5  19
ATOM     19  C   UNL     1       8.418  -2.668  22.407  0.00  0.00    +0.138 C 
BRANCH  19  20
ATOM     20  C   UNL     1       7.523  -3.795  22.898  0.00  0.00    -0.030 A 
ATOM     21  C   UNL     1       7.164  -3.896  24.255  0.00  0.00    +0.008 A 
ATOM     22  C   UNL     1       6.309  -4.913  24.690  0.00  0.00    +0.038 A 
ATOM     23  C   UNL     1       5.807  -5.830  23.773  0.00  0.00    +0.123 A 
ATOM     24  F   UNL     1       4.984  -6.799  24.192  0.00  0.00    -0.205 F 
ATOM     25  C   UNL     1       6.147  -5.747  22.429  0.00  0.00    +0.038 A 
ATOM     26  C   UNL     1       7.002  -4.735  21.991  0.00  0.00    +0.008 A 
ENDBRANCH  19  20
ENDBRANCH   5  19
TORSDOF 6
ENDMDL
MODEL 8
REMARK VINA RESULT:      -6.6      5.117      9.550
REMARK  Name = 
REMARK  7 active torsions:
REMARK  status: ('A' for Active; 'I' for Inactive)
REMARK    1  A    between atoms: C_1  and  C_2
REMARK    2  A    between atoms: C_2  and  O_3
REMARK    3  A    between atoms: O_3  and  C_4
REMARK    4  A    between atoms: N_6  and  C_7
REMARK    5  A    between atoms: C_8  and  N_9
REMARK    6  A    between atoms: N_12  and  C_13
REMARK    7  A    between atoms: C_13  and  C_14
REMARK                            x       y       z     vdW  Elec       q    Type
REMARK                         _______ _______ _______ _____ _____    ______ ____
ROOT
ATOM      1  C   UNL     1       5.576  -5.818  23.211  0.00  0.00    +0.076 A 
ATOM      2  C   UNL     1       6.020  -5.510  21.937  0.00  0.00    +0.030 A 
ATOM      3  C   UNL     1       7.007  -4.546  21.790  0.00  0.00    +0.045 A 
ATOM      4  C   UNL     1       7.562  -3.931  22.918  0.00  0.00    +0.121 A 
ATOM      5  N   UNL     1       8.485  -2.901  22.673  0.00  0.00    -0.325 N 
ATOM      6  H   UNL     1       9.061  -3.131  21.871  0.00  0.00    +0.148 HD
ATOM      7  N   UNL     1       7.145  -4.233  24.168  0.00  0.00    -0.216 NA
ATOM      8  C   UNL     1       6.161  -5.153  24.299  0.00  0.00    +0.140 A 
ENDROOT
BRANCH   1  10
ATOM      9  C   UNL     1       3.224  -6.416  23.299  0.00  0.00    +0.405 C 
ATOM     10  N   UNL     1       4.547  -6.752  23.422  0.00  0.00    -0.248 N 
ATOM     11  H   UNL     1       4.724  -7.489  24.094  0.00  0.00    +0.158 HD
ATOM     12  O   UNL     1       2.775  -5.348  22.907  0.00  0.00    -0.226 OA
BRANCH   9  13
ATOM     13  O   UNL     1       2.481  -7.418  23.832  0.00  0.00    -0.450 OA
BRANCH  13  15
ATOM     14  C   UNL     1       2.102  -6.828  26.096  0.00  0.00    +0.048 C 
ATOM     15  C   UNL     1       2.819  -7.797  25.174  0.00  0.00    +0.230 C 
ENDBRANCH  13  15
ENDBRANCH   9  13
ENDBRANCH   1  10
BRANCH   8  16
ATOM     16  N   UNL     1       5.668  -5.381  25.600  0.00  0.00    -0.342 N 
ATOM     17  H   UNL     1       4.900  -6.041  25.495  0.00  0.00    +0.144 HD
ATOM     18  H   UNL     1       6.405  -5.788  26.170  0.00  0.00    +0.144 HD
ENDBRANCH   8  16
BRANCH   5  19
ATOM     19  C   UNL     1       9.309  -2.475  23.792  0.00  0.00    +0.138 C 
BRANCH  19  20
ATOM     20  C   UNL     1       9.705  -1.027  23.555  0.00  0.00    -0.030 A 
ATOM     21  C   UNL     1       9.622  -0.453  22.274  0.00  0.00    +0.008 A 
ATOM     22  C   UNL     1       9.952   0.891  22.074  0.00  0.00    +0.038 A 
ATOM     23  C   UNL     1      10.363   1.667  23.152  0.00  0.00    +0.123 A 
ATOM     24  F   UNL     1      10.673   2.955  22.958  0.00  0.00    -0.205 F 
ATOM     25  C   UNL     1      10.450   1.121  24.426  0.00  0.00    +0.038 A 
ATOM     26  C   UNL     1      10.124  -0.220  24.629  0.00  0.00    +0.008 A 
ENDBRANCH  19  20
ENDBRANCH   5  19
TORSDOF 6
ENDMDL
MODEL 9
REMARK VINA RESULT:      -6.5      2.259      2.907
REMARK  Name = 
REMARK  7 active torsions:
REMARK  status: ('A' for Active; 'I' for Inactive)
REMARK    1  A    between atoms: C_1  and  C_2
REMARK    2  A    between atoms: C_2  and  O_3
REMARK    3  A    between atoms: O_3  and  C_4
REMARK    4  A    between atoms: N_6  and  C_7
REMARK    5  A    between atoms: C_8  and  N_9
REMARK    6  A    between atoms: N_12  and  C_13
REMARK    7  A    between atoms: C_13  and  C_14
REMARK                            x       y       z     vdW  Elec       q    Type
REMARK                         _______ _______ _______ _____ _____    ______ ____
ROOT
ATOM      1  C   UNL     1       8.865   1.905  22.591  0.00  0.00    +0.076 A 
ATOM      2  C   UNL     1       9.060   1.138  21.455  0.00  0.00    +0.030 A 
ATOM      3  C   UNL     1       9.360  -0.208  21.604  0.00  0.00    +0.045 A 
ATOM      4  C   UNL     1       9.425  -0.776  22.881  0.00  0.00    +0.121 A 
ATOM      5  N   UNL     1       9.828  -2.120  22.944  0.00  0.00    -0.325 N 
ATOM      6  H   UNL     1       9.439  -2.639  22.164  0.00  0.00    +0.148 HD
ATOM      7  N   UNL     1       9.224  -0.040  23.997  0.00  0.00    -0.216 NA
ATOM      8  C   UNL     1       8.961   1.279  23.842  0.00  0.00    +0.140 A 
ENDROOT
BRANCH   1  10
ATOM      9  C   UNL     1       7.350   3.772  22.250  0.00  0.00    +0.405 C 
ATOM     10  N   UNL     1       8.604   3.284  22.506  0.00  0.00    -0.248 N 
ATOM     11  H   UNL     1       9.353   3.875  22.166  0.00  0.00    +0.158 HD
ATOM     12  O   UNL     1       6.316   3.124  22.168  0.00  0.00    -0.226 OA
BRANCH   9  13
ATOM     13  O   UNL     1       7.461   5.090  21.947  0.00  0.00    -0.450 OA
BRANCH  13  15
ATOM     14  C   UNL     1       8.514   6.702  23.330  0.00  0.00    +0.048 C 
ATOM     15  C   UNL     1       7.203   6.000  23.026  0.00  0.00    +0.230 C 
ENDBRANCH  13  15
ENDBRANCH   9  13
ENDBRANCH   1  10
BRANCH   8  16
ATOM     16  N   UNL     1       8.855   2.052  25.016  0.00  0.00    -0.342 N 
ATOM     17  H   UNL     1       9.293   1.501  25.752  0.00  0.00    +0.144 HD
ATOM     18  H   UNL     1       9.356   2.926  24.887  0.00  0.00    +0.144 HD
ENDBRANCH   8  16
BRANCH   5  19
ATOM     19  C   UNL     1       9.593  -2.821  24.195  0.00  0.00    +0.138 C 
BRANCH  19  20
ATOM     20  C   UNL     1       8.372  -3.708  24.012  0.00  0.00    -0.030 A 
ATOM     21  C   UNL     1       7.820  -3.927  22.738  0.00  0.00    +0.008 A 
ATOM     22  C   UNL     1       6.720  -4.775  22.575  0.00  0.00    +0.038 A 
ATOM     23  C   UNL     1       6.170  -5.410  23.683  0.00  0.00    +0.123 A 
ATOM     24  F   UNL     1       5.121  -6.226  23.523  0.00  0.00    -0.205 F 
ATOM     25  C   UNL     1       6.701  -5.209  24.951  0.00  0.00    +0.038 A 
ATOM     26  C   UNL     1       7.796  -4.361  25.117  0.00  0.00    +0.008 A 
ENDBRANCH  19  20
ENDBRANCH   5  19
TORSDOF 6
ENDMDL
