MODEL 1
REMARK VINA RESULT:      -5.0      0.000      0.000
REMARK  Name = 
REMARK  12 active torsions:
REMARK  status: ('A' for Active; 'I' for Inactive)
REMARK    1  A    between atoms: N_1  and  CA_2
REMARK    2  A    between atoms: CA_2  and  C_4
REMARK    3  A    between atoms: CA_2  and  C_16
REMARK    4  A    between atoms: C_4  and  C_5
REMARK    5  A    between atoms: C_5  and  C_6
REMARK    6  A    between atoms: C_6  and  N_7
REMARK    7  A    between atoms: N_7  and  P_8
REMARK    8  A    between atoms: P_8  and  N_9
REMARK    9  A    between atoms: P_8  and  N_11
REMARK   10  A    between atoms: N_11  and  S_12
REMARK   11  A    between atoms: S_12  and  O_13
REMARK   12  A    between atoms: C_16  and  O_17
REMARK                            x       y       z     vdW  Elec       q    Type
REMARK                         _______ _______ _______ _____ _____    ______ ____
ROOT
ATOM      1  N   UNL     1       8.612  -0.987  24.183  0.00  0.00    -0.242 NA
ATOM      2  H   UNL     1       9.322  -0.842  24.905  0.00  0.00    +0.132 HD
ENDROOT
BRANCH   1   3
ATOM      3  P   UNL     1       9.333  -1.640  22.875  0.00  0.00    +0.299 P 
ATOM      4  O   UNL     1      10.519  -2.510  23.102  0.00  0.00    -0.268 OA
BRANCH   3   5
ATOM      5  N   UNL     1       8.107  -2.480  22.208  0.00  0.00    -0.256 NA
ATOM      6  H   UNL     1       7.280  -2.470  22.789  0.00  0.00    +0.128 HD
ATOM      7  H   UNL     1       8.379  -3.455  22.128  0.00  0.00    +0.128 HD
ENDBRANCH   3   5
BRANCH   3   8
ATOM      8  N   UNL     1       9.551  -0.384  21.785  0.00  0.00    -0.092 NA
ATOM      9  H   UNL     1       8.841  -0.357  21.067  0.00  0.00    +0.160 HD
BRANCH   8  10
ATOM     10  S   UNL     1       9.647   1.051  22.580  0.00  0.00    +0.156 S 
ATOM     11  O   UNL     1      10.605   0.922  23.648  0.00  0.00    -0.130 OA
ATOM     12  O   UNL     1       8.288   1.454  22.844  0.00  0.00    -0.130 OA
BRANCH  10  13
ATOM     13  O   UNL     1      10.199   2.093  21.495  0.00  0.00    -0.240 OA
ATOM     14  H   UNL     1      10.333   2.956  21.937  0.00  0.00    +0.246 HD
ENDBRANCH  10  13
ENDBRANCH   8  10
ENDBRANCH   3   8
ENDBRANCH   1   3
BRANCH   1  15
ATOM     15  C   UNL     1       7.474  -1.637  24.822  0.00  0.00    +0.090 C 
BRANCH  15  16
ATOM     16  C   UNL     1       7.898  -2.513  25.998  0.00  0.00    +0.018 C 
BRANCH  16  17
ATOM     17  C   UNL     1       7.211  -3.872  25.956  0.00  0.00    +0.031 C 
BRANCH  17  18
ATOM     18  CA  UNL     1       8.202  -5.039  26.009  0.00  0.00    +0.161 C 
BRANCH  18  19
ATOM     19  N   UNL     1       9.254  -4.849  27.055  0.00  0.00    -0.318 NA
ATOM     20  H1  UNL     1      10.090  -4.450  26.615  0.00  0.00    +0.119 HD
ATOM     21  H2  UNL     1       8.937  -4.098  27.681  0.00  0.00    +0.119 HD
ENDBRANCH  18  19
BRANCH  18  22
ATOM     22  C   UNL     1       8.901  -5.168  24.643  0.00  0.00    +0.322 C 
ATOM     23  OXT UNL     1       8.329  -5.272  23.568  0.00  0.00    -0.249 OA
BRANCH  22  24
ATOM     24  O   UNL     1      10.248  -5.138  24.777  0.00  0.00    -0.480 OA
ATOM     25  H   UNL     1      10.422  -5.372  25.724  0.00  0.00    +0.295 HD
ENDBRANCH  22  24
ENDBRANCH  18  22
ENDBRANCH  17  18
ENDBRANCH  16  17
ENDBRANCH  15  16
ENDBRANCH   1  15
TORSDOF 12
ENDMDL
MODEL 2
REMARK VINA RESULT:      -5.0      4.317      5.654
REMARK  Name = 
REMARK  12 active torsions:
REMARK  status: ('A' for Active; 'I' for Inactive)
REMARK    1  A    between atoms: N_1  and  CA_2
REMARK    2  A    between atoms: CA_2  and  C_4
REMARK    3  A    between atoms: CA_2  and  C_16
REMARK    4  A    between atoms: C_4  and  C_5
REMARK    5  A    between atoms: C_5  and  C_6
REMARK    6  A    between atoms: C_6  and  N_7
REMARK    7  A    between atoms: N_7  and  P_8
REMARK    8  A    between atoms: P_8  and  N_9
REMARK    9  A    between atoms: P_8  and  N_11
REMARK   10  A    between atoms: N_11  and  S_12
REMARK   11  A    between atoms: S_12  and  O_13
REMARK   12  A    between atoms: C_16  and  O_17
REMARK                            x       y       z     vdW  Elec       q    Type
REMARK                         _______ _______ _______ _____ _____    ______ ____
ROOT
ATOM      1  N   UNL     1       8.813  -3.434  25.170  0.00  0.00    -0.242 NA
ATOM      2  H   UNL     1       7.823  -3.181  25.204  0.00  0.00    +0.132 HD
ENDROOT
BRANCH   1   3
ATOM      3  P   UNL     1       8.925  -5.048  24.967  0.00  0.00    +0.299 P 
ATOM      4  O   UNL     1       8.440  -5.617  23.679  0.00  0.00    -0.268 OA
BRANCH   3   5
ATOM      5  N   UNL     1      10.525  -5.294  25.152  0.00  0.00    -0.256 NA
ATOM      6  H   UNL     1      10.969  -5.561  24.283  0.00  0.00    +0.128 HD
ATOM      7  H   UNL     1      10.669  -6.071  25.788  0.00  0.00    +0.128 HD
ENDBRANCH   3   5
BRANCH   3   8
ATOM      8  N   UNL     1       8.285  -5.739  26.353  0.00  0.00    -0.092 NA
ATOM      9  H   UNL     1       8.813  -5.517  27.186  0.00  0.00    +0.160 HD
BRANCH   8  10
ATOM     10  S   UNL     1       6.705  -5.321  26.524  0.00  0.00    +0.156 S 
ATOM     11  O   UNL     1       6.638  -3.995  27.084  0.00  0.00    -0.130 OA
ATOM     12  O   UNL     1       6.064  -6.437  27.173  0.00  0.00    -0.130 OA
BRANCH  10  13
ATOM     13  O   UNL     1       6.116  -5.297  25.035  0.00  0.00    -0.240 OA
ATOM     14  H   UNL     1       6.505  -4.534  24.560  0.00  0.00    +0.246 HD
ENDBRANCH  10  13
ENDBRANCH   8  10
ENDBRANCH   3   8
ENDBRANCH   1   3
BRANCH   1  15
ATOM     15  C   UNL     1       9.465  -2.509  24.250  0.00  0.00    +0.090 C 
BRANCH  15  16
ATOM     16  C   UNL     1       8.470  -1.557  23.591  0.00  0.00    +0.018 C 
BRANCH  16  17
ATOM     17  C   UNL     1       7.642  -2.266  22.526  0.00  0.00    +0.031 C 
BRANCH  17  18
ATOM     18  CA  UNL     1       6.149  -2.309  22.867  0.00  0.00    +0.161 C 
BRANCH  18  19
ATOM     19  N   UNL     1       5.903  -2.504  24.330  0.00  0.00    -0.318 NA
ATOM     20  H1  UNL     1       5.083  -3.107  24.450  0.00  0.00    +0.119 HD
ATOM     21  H2  UNL     1       6.672  -3.075  24.701  0.00  0.00    +0.119 HD
ENDBRANCH  18  19
BRANCH  18  22
ATOM     22  C   UNL     1       5.492  -3.478  22.110  0.00  0.00    +0.322 C 
ATOM     23  OXT UNL     1       5.830  -3.877  21.006  0.00  0.00    -0.249 OA
BRANCH  22  24
ATOM     24  O   UNL     1       4.488  -4.028  22.834  0.00  0.00    -0.480 OA
ATOM     25  H   UNL     1       3.950  -3.262  23.160  0.00  0.00    +0.295 HD
ENDBRANCH  22  24
ENDBRANCH  18  22
ENDBRANCH  17  18
ENDBRANCH  16  17
ENDBRANCH  15  16
ENDBRANCH   1  15
TORSDOF 12
ENDMDL
MODEL 3
REMARK VINA RESULT:      -5.0      3.208      5.989
REMARK  Name = 
REMARK  12 active torsions:
REMARK  status: ('A' for Active; 'I' for Inactive)
REMARK    1  A    between atoms: N_1  and  CA_2
REMARK    2  A    between atoms: CA_2  and  C_4
REMARK    3  A    between atoms: CA_2  and  C_16
REMARK    4  A    between atoms: C_4  and  C_5
REMARK    5  A    between atoms: C_5  and  C_6
REMARK    6  A    between atoms: C_6  and  N_7
REMARK    7  A    between atoms: N_7  and  P_8
REMARK    8  A    between atoms: P_8  and  N_9
REMARK    9  A    between atoms: P_8  and  N_11
REMARK   10  A    between atoms: N_11  and  S_12
REMARK   11  A    between atoms: S_12  and  O_13
REMARK   12  A    between atoms: C_16  and  O_17
REMARK                            x       y       z     vdW  Elec       q    Type
REMARK                         _______ _______ _______ _____ _____    ______ ____
ROOT
ATOM      1  N   UNL     1       8.285  -2.183  25.261  0.00  0.00    -0.242 NA
ATOM      2  H   UNL     1       7.403  -2.277  25.773  0.00  0.00    +0.132 HD
ENDROOT
BRANCH   1   3
ATOM      3  P   UNL     1       8.405  -3.424  24.211  0.00  0.00    +0.299 P 
ATOM      4  O   UNL     1       7.937  -3.195  22.816  0.00  0.00    -0.268 OA
BRANCH   3   5
ATOM      5  N   UNL     1      10.003  -3.737  24.251  0.00  0.00    -0.256 NA
ATOM      6  H   UNL     1      10.254  -4.501  23.637  0.00  0.00    +0.128 HD
ATOM      7  H   UNL     1      10.259  -4.034  25.186  0.00  0.00    +0.128 HD
ENDBRANCH   3   5
BRANCH   3   8
ATOM      8  N   UNL     1       7.751  -4.758  24.986  0.00  0.00    -0.092 NA
ATOM      9  H   UNL     1       8.164  -5.631  24.687  0.00  0.00    +0.160 HD
BRANCH   8  10
ATOM     10  S   UNL     1       7.858  -4.581  26.616  0.00  0.00    +0.156 S 
ATOM     11  O   UNL     1       6.786  -3.725  27.057  0.00  0.00    -0.130 OA
ATOM     12  O   UNL     1       9.234  -4.253  26.894  0.00  0.00    -0.130 OA
BRANCH  10  13
ATOM     13  O   UNL     1       7.640  -6.051  27.212  0.00  0.00    -0.240 OA
ATOM     14  H   UNL     1       8.436  -6.297  27.728  0.00  0.00    +0.246 HD
ENDBRANCH  10  13
ENDBRANCH   8  10
ENDBRANCH   3   8
ENDBRANCH   1   3
BRANCH   1  15
ATOM     15  C   UNL     1       8.376  -0.799  24.810  0.00  0.00    +0.090 C 
BRANCH  15  16
ATOM     16  C   UNL     1       9.799  -0.256  24.905  0.00  0.00    +0.018 C 
BRANCH  16  17
ATOM     17  C   UNL     1      10.318   0.187  23.543  0.00  0.00    +0.031 C 
BRANCH  17  18
ATOM     18  CA  UNL     1       9.283   0.004  22.427  0.00  0.00    +0.161 C 
BRANCH  18  19
ATOM     19  N   UNL     1       9.730  -0.976  21.389  0.00  0.00    -0.318 NA
ATOM     20  H1  UNL     1       9.695  -1.919  21.788  0.00  0.00    +0.119 HD
ATOM     21  H2  UNL     1       9.008  -1.003  20.657  0.00  0.00    +0.119 HD
ENDBRANCH  18  19
BRANCH  18  22
ATOM     22  C   UNL     1       9.042   1.359  21.736  0.00  0.00    +0.322 C 
ATOM     23  OXT UNL     1       7.955   1.773  21.363  0.00  0.00    -0.249 OA
BRANCH  22  24
ATOM     24  O   UNL     1      10.197   2.054  21.604  0.00  0.00    -0.480 OA
ATOM     25  H   UNL     1       9.922   2.988  21.421  0.00  0.00    +0.295 HD
ENDBRANCH  22  24
ENDBRANCH  18  22
ENDBRANCH  17  18
ENDBRANCH  16  17
ENDBRANCH  15  16
ENDBRANCH   1  15
TORSDOF 12
ENDMDL
MODEL 4
REMARK VINA RESULT:      -4.9      3.094      5.918
REMARK  Name = 
REMARK  12 active torsions:
REMARK  status: ('A' for Active; 'I' for Inactive)
REMARK    1  A    between atoms: N_1  and  CA_2
REMARK    2  A    between atoms: CA_2  and  C_4
REMARK    3  A    between atoms: CA_2  and  C_16
REMARK    4  A    between atoms: C_4  and  C_5
REMARK    5  A    between atoms: C_5  and  C_6
REMARK    6  A    between atoms: C_6  and  N_7
REMARK    7  A    between atoms: N_7  and  P_8
REMARK    8  A    between atoms: P_8  and  N_9
REMARK    9  A    between atoms: P_8  and  N_11
REMARK   10  A    between atoms: N_11  and  S_12
REMARK   11  A    between atoms: S_12  and  O_13
REMARK   12  A    between atoms: C_16  and  O_17
REMARK                            x       y       z     vdW  Elec       q    Type
REMARK                         _______ _______ _______ _____ _____    ______ ____
ROOT
ATOM      1  N   UNL     1       9.867  -1.726  24.033  0.00  0.00    -0.242 NA
ATOM      2  H   UNL     1       9.833  -2.613  24.541  0.00  0.00    +0.132 HD
ENDROOT
BRANCH   1   3
ATOM      3  P   UNL     1       8.854  -1.823  22.759  0.00  0.00    +0.299 P 
ATOM      4  O   UNL     1       7.661  -0.933  22.756  0.00  0.00    -0.268 OA
BRANCH   3   5
ATOM      5  N   UNL     1       9.849  -1.476  21.518  0.00  0.00    -0.256 NA
ATOM      6  H   UNL     1      10.821  -1.489  21.797  0.00  0.00    +0.128 HD
ATOM      7  H   UNL     1       9.664  -0.531  21.199  0.00  0.00    +0.128 HD
ENDBRANCH   3   5
BRANCH   3   8
ATOM      8  N   UNL     1       8.542  -3.455  22.534  0.00  0.00    -0.092 NA
ATOM      9  H   UNL     1       9.277  -3.932  22.030  0.00  0.00    +0.160 HD
BRANCH   8  10
ATOM     10  S   UNL     1       8.242  -4.184  23.975  0.00  0.00    +0.156 S 
ATOM     11  O   UNL     1       9.499  -4.440  24.632  0.00  0.00    -0.130 OA
ATOM     12  O   UNL     1       7.317  -5.254  23.698  0.00  0.00    -0.130 OA
BRANCH  10  13
ATOM     13  O   UNL     1       7.411  -3.109  24.822  0.00  0.00    -0.240 OA
ATOM     14  H   UNL     1       7.375  -2.274  24.312  0.00  0.00    +0.246 HD
ENDBRANCH  10  13
ENDBRANCH   8  10
ENDBRANCH   3   8
ENDBRANCH   1   3
BRANCH   1  15
ATOM     15  C   UNL     1       9.740  -0.659  25.019  0.00  0.00    +0.090 C 
BRANCH  15  16
ATOM     16  C   UNL     1      10.658   0.521  24.711  0.00  0.00    +0.018 C 
BRANCH  16  17
ATOM     17  C   UNL     1       9.865   1.739  24.255  0.00  0.00    +0.031 C 
BRANCH  17  18
ATOM     18  CA  UNL     1      10.164   2.132  22.804  0.00  0.00    +0.161 C 
BRANCH  18  19
ATOM     19  N   UNL     1      10.853   3.456  22.701  0.00  0.00    -0.318 NA
ATOM     20  H1  UNL     1      11.700   3.345  22.134  0.00  0.00    +0.119 HD
ATOM     21  H2  UNL     1      10.263   4.069  22.125  0.00  0.00    +0.119 HD
ENDBRANCH  18  19
BRANCH  18  22
ATOM     22  C   UNL     1       8.841   2.217  22.022  0.00  0.00    +0.322 C 
ATOM     23  OXT UNL     1       7.913   2.966  22.290  0.00  0.00    -0.249 OA
BRANCH  22  24
ATOM     24  O   UNL     1       8.835   1.358  20.974  0.00  0.00    -0.480 OA
ATOM     25  H   UNL     1       9.010   0.466  21.366  0.00  0.00    +0.295 HD
ENDBRANCH  22  24
ENDBRANCH  18  22
ENDBRANCH  17  18
ENDBRANCH  16  17
ENDBRANCH  15  16
ENDBRANCH   1  15
TORSDOF 12
ENDMDL
MODEL 5
REMARK VINA RESULT:      -4.8      3.244      5.723
REMARK  Name = 
REMARK  12 active torsions:
REMARK  status: ('A' for Active; 'I' for Inactive)
REMARK    1  A    between atoms: N_1  and  CA_2
REMARK    2  A    between atoms: CA_2  and  C_4
REMARK    3  A    between atoms: CA_2  and  C_16
REMARK    4  A    between atoms: C_4  and  C_5
REMARK    5  A    between atoms: C_5  and  C_6
REMARK    6  A    between atoms: C_6  and  N_7
REMARK    7  A    between atoms: N_7  and  P_8
REMARK    8  A    between atoms: P_8  and  N_9
REMARK    9  A    between atoms: P_8  and  N_11
REMARK   10  A    between atoms: N_11  and  S_12
REMARK   11  A    between atoms: S_12  and  O_13
REMARK   12  A    between atoms: C_16  and  O_17
REMARK                            x       y       z     vdW  Elec       q    Type
REMARK                         _______ _______ _______ _____ _____    ______ ____
ROOT
ATOM      1  N   UNL     1       8.105  -2.358  22.883  0.00  0.00    -0.242 NA
ATOM      2  H   UNL     1       8.013  -3.219  22.338  0.00  0.00    +0.132 HD
ENDROOT
BRANCH   1   3
ATOM      3  P   UNL     1       6.620  -1.896  23.371  0.00  0.00    +0.299 P 
ATOM      4  O   UNL     1       6.316  -1.977  24.827  0.00  0.00    -0.268 OA
BRANCH   3   5
ATOM      5  N   UNL     1       6.562  -0.357  22.843  0.00  0.00    -0.256 NA
ATOM      6  H   UNL     1       5.767  -0.194  22.238  0.00  0.00    +0.128 HD
ATOM      7  H   UNL     1       7.384  -0.168  22.279  0.00  0.00    +0.128 HD
ENDBRANCH   3   5
BRANCH   3   8
ATOM      8  N   UNL     1       5.533  -2.672  22.358  0.00  0.00    -0.092 NA
ATOM      9  H   UNL     1       5.611  -2.378  21.395  0.00  0.00    +0.160 HD
BRANCH   8  10
ATOM     10  S   UNL     1       5.688  -4.302  22.495  0.00  0.00    +0.156 S 
ATOM     11  O   UNL     1       6.670  -4.753  21.543  0.00  0.00    -0.130 OA
ATOM     12  O   UNL     1       4.347  -4.833  22.489  0.00  0.00    -0.130 OA
BRANCH  10  13
ATOM     13  O   UNL     1       6.237  -4.547  23.980  0.00  0.00    -0.240 OA
ATOM     14  H   UNL     1       6.810  -3.792  24.225  0.00  0.00    +0.246 HD
ENDBRANCH  10  13
ENDBRANCH   8  10
ENDBRANCH   3   8
ENDBRANCH   1   3
BRANCH   1  15
ATOM     15  C   UNL     1       9.185  -2.566  23.840  0.00  0.00    +0.090 C 
BRANCH  15  16
ATOM     16  C   UNL     1       9.568  -1.278  24.565  0.00  0.00    +0.018 C 
BRANCH  16  17
ATOM     17  C   UNL     1      10.569  -0.461  23.757  0.00  0.00    +0.031 C 
BRANCH  17  18
ATOM     18  CA  UNL     1      10.051   0.940  23.415  0.00  0.00    +0.161 C 
BRANCH  18  19
ATOM     19  N   UNL     1       8.823   1.300  24.190  0.00  0.00    -0.318 NA
ATOM     20  H1  UNL     1       9.105   1.683  25.098  0.00  0.00    +0.119 HD
ATOM     21  H2  UNL     1       8.384   2.103  23.721  0.00  0.00    +0.119 HD
ENDBRANCH  18  19
BRANCH  18  22
ATOM     22  C   UNL     1       9.707   0.998  21.915  0.00  0.00    +0.322 C 
ATOM     23  OXT UNL     1       9.294   0.059  21.253  0.00  0.00    -0.249 OA
BRANCH  22  24
ATOM     24  O   UNL     1       9.907   2.241  21.415  0.00  0.00    -0.480 OA
ATOM     25  H   UNL     1       9.864   2.138  20.431  0.00  0.00    +0.295 HD
ENDBRANCH  22  24
ENDBRANCH  18  22
ENDBRANCH  17  18
ENDBRANCH  16  17
ENDBRANCH  15  16
ENDBRANCH   1  15
TORSDOF 12
ENDMDL
MODEL 6
REMARK VINA RESULT:      -4.8      3.006      5.825
REMARK  Name = 
REMARK  12 active torsions:
REMARK  status: ('A' for Active; 'I' for Inactive)
REMARK    1  A    between atoms: N_1  and  CA_2
REMARK    2  A    between atoms: CA_2  and  C_4
REMARK    3  A    between atoms: CA_2  and  C_16
REMARK    4  A    between atoms: C_4  and  C_5
REMARK    5  A    between atoms: C_5  and  C_6
REMARK    6  A    between atoms: C_6  and  N_7
REMARK    7  A    between atoms: N_7  and  P_8
REMARK    8  A    between atoms: P_8  and  N_9
REMARK    9  A    between atoms: P_8  and  N_11
REMARK   10  A    between atoms: N_11  and  S_12
REMARK   11  A    between atoms: S_12  and  O_13
REMARK   12  A    between atoms: C_16  and  O_17
REMARK                            x       y       z     vdW  Elec       q    Type
REMARK                         _______ _______ _______ _____ _____    ______ ____
ROOT
ATOM      1  N   UNL     1       8.486  -0.895  23.941  0.00  0.00    -0.242 NA
ATOM      2  H   UNL     1       8.628  -1.273  24.881  0.00  0.00    +0.132 HD
ENDROOT
BRANCH   1   3
ATOM      3  P   UNL     1       9.028  -1.987  22.859  0.00  0.00    +0.299 P 
ATOM      4  O   UNL     1       8.028  -2.615  21.952  0.00  0.00    -0.268 OA
BRANCH   3   5
ATOM      5  N   UNL     1      10.113  -1.110  22.019  0.00  0.00    -0.256 NA
ATOM      6  H   UNL     1       9.705  -0.695  21.191  0.00  0.00    +0.128 HD
ATOM      7  H   UNL     1      10.850  -1.724  21.688  0.00  0.00    +0.128 HD
ENDBRANCH   3   5
BRANCH   3   8
ATOM      8  N   UNL     1      10.000  -3.050  23.715  0.00  0.00    -0.092 NA
ATOM      9  H   UNL     1      10.807  -2.603  24.129  0.00  0.00    +0.160 HD
BRANCH   8  10
ATOM     10  S   UNL     1       9.117  -3.846  24.850  0.00  0.00    +0.156 S 
ATOM     11  O   UNL     1       8.909  -2.965  25.971  0.00  0.00    -0.130 OA
ATOM     12  O   UNL     1       9.748  -5.131  25.020  0.00  0.00    -0.130 OA
BRANCH  10  13
ATOM     13  O   UNL     1       7.710  -4.150  24.147  0.00  0.00    -0.240 OA
ATOM     14  H   UNL     1       7.861  -4.781  23.414  0.00  0.00    +0.246 HD
ENDBRANCH  10  13
ENDBRANCH   8  10
ENDBRANCH   3   8
ENDBRANCH   1   3
BRANCH   1  15
ATOM     15  C   UNL     1       7.120  -0.386  23.882  0.00  0.00    +0.090 C 
BRANCH  15  16
ATOM     16  C   UNL     1       6.959   0.710  22.832  0.00  0.00    +0.018 C 
BRANCH  16  17
ATOM     17  C   UNL     1       7.656   1.996  23.258  0.00  0.00    +0.031 C 
BRANCH  17  18
ATOM     18  CA  UNL     1       8.797   2.392  22.315  0.00  0.00    +0.161 C 
BRANCH  18  19
ATOM     19  N   UNL     1       8.890   1.494  21.122  0.00  0.00    -0.318 NA
ATOM     20  H1  UNL     1       9.029   0.530  21.444  0.00  0.00    +0.119 HD
ATOM     21  H2  UNL     1       7.961   1.464  20.682  0.00  0.00    +0.119 HD
ENDBRANCH  18  19
BRANCH  18  22
ATOM     22  C   UNL     1      10.132   2.316  23.079  0.00  0.00    +0.322 C 
ATOM     23  OXT UNL     1      10.474   1.396  23.805  0.00  0.00    -0.249 OA
BRANCH  22  24
ATOM     24  O   UNL     1      10.900   3.404  22.831  0.00  0.00    -0.480 OA
ATOM     25  H   UNL     1      10.849   3.954  23.654  0.00  0.00    +0.295 HD
ENDBRANCH  22  24
ENDBRANCH  18  22
ENDBRANCH  17  18
ENDBRANCH  16  17
ENDBRANCH  15  16
ENDBRANCH   1  15
TORSDOF 12
ENDMDL
MODEL 7
REMARK VINA RESULT:      -4.8      3.020      5.204
REMARK  Name = 
REMARK  12 active torsions:
REMARK  status: ('A' for Active; 'I' for Inactive)
REMARK    1  A    between atoms: N_1  and  CA_2
REMARK    2  A    between atoms: CA_2  and  C_4
REMARK    3  A    between atoms: CA_2  and  C_16
REMARK    4  A    between atoms: C_4  and  C_5
REMARK    5  A    between atoms: C_5  and  C_6
REMARK    6  A    between atoms: C_6  and  N_7
REMARK    7  A    between atoms: N_7  and  P_8
REMARK    8  A    between atoms: P_8  and  N_9
REMARK    9  A    between atoms: P_8  and  N_11
REMARK   10  A    between atoms: N_11  and  S_12
REMARK   11  A    between atoms: S_12  and  O_13
REMARK   12  A    between atoms: C_16  and  O_17
REMARK                            x       y       z     vdW  Elec       q    Type
REMARK                         _______ _______ _______ _____ _____    ______ ____
ROOT
ATOM      1  N   UNL     1       7.629  -3.282  25.383  0.00  0.00    -0.242 NA
ATOM      2  H   UNL     1       8.362  -3.452  24.690  0.00  0.00    +0.132 HD
ENDROOT
BRANCH   1   3
ATOM      3  P   UNL     1       6.934  -4.707  25.758  0.00  0.00    +0.299 P 
ATOM      4  O   UNL     1       7.755  -5.702  26.503  0.00  0.00    -0.268 OA
BRANCH   3   5
ATOM      5  N   UNL     1       5.651  -4.227  26.640  0.00  0.00    -0.256 NA
ATOM      6  H   UNL     1       5.928  -3.680  27.444  0.00  0.00    +0.128 HD
ATOM      7  H   UNL     1       5.179  -5.045  27.011  0.00  0.00    +0.128 HD
ENDBRANCH   3   5
BRANCH   3   8
ATOM      8  N   UNL     1       6.220  -5.266  24.348  0.00  0.00    -0.092 NA
ATOM      9  H   UNL     1       5.349  -4.800  24.135  0.00  0.00    +0.160 HD
BRANCH   8  10
ATOM     10  S   UNL     1       7.274  -5.156  23.092  0.00  0.00    +0.156 S 
ATOM     11  O   UNL     1       7.235  -3.812  22.575  0.00  0.00    -0.130 OA
ATOM     12  O   UNL     1       7.002  -6.288  22.242  0.00  0.00    -0.130 OA
BRANCH  10  13
ATOM     13  O   UNL     1       8.715  -5.438  23.730  0.00  0.00    -0.240 OA
ATOM     14  H   UNL     1       8.594  -5.688  24.669  0.00  0.00    +0.246 HD
ENDBRANCH  10  13
ENDBRANCH   8  10
ENDBRANCH   3   8
ENDBRANCH   1   3
BRANCH   1  15
ATOM     15  C   UNL     1       8.201  -2.425  26.414  0.00  0.00    +0.090 C 
BRANCH  15  16
ATOM     16  C   UNL     1       8.232  -0.958  25.992  0.00  0.00    +0.018 C 
BRANCH  16  17
ATOM     17  C   UNL     1       9.497  -0.631  25.209  0.00  0.00    +0.031 C 
BRANCH  17  18
ATOM     18  CA  UNL     1       9.286  -0.689  23.692  0.00  0.00    +0.161 C 
BRANCH  18  19
ATOM     19  N   UNL     1       7.844  -0.833  23.321  0.00  0.00    -0.318 NA
ATOM     20  H1  UNL     1       7.561  -1.808  23.467  0.00  0.00    +0.119 HD
ATOM     21  H2  UNL     1       7.291  -0.320  24.019  0.00  0.00    +0.119 HD
ENDBRANCH  18  19
BRANCH  18  22
ATOM     22  C   UNL     1      10.052  -1.897  23.123  0.00  0.00    +0.322 C 
ATOM     23  OXT UNL     1      10.291  -2.928  23.733  0.00  0.00    -0.249 OA
BRANCH  22  24
ATOM     24  O   UNL     1      10.422  -1.681  21.837  0.00  0.00    -0.480 OA
ATOM     25  H   UNL     1      10.536  -0.699  21.759  0.00  0.00    +0.295 HD
ENDBRANCH  22  24
ENDBRANCH  18  22
ENDBRANCH  17  18
ENDBRANCH  16  17
ENDBRANCH  15  16
ENDBRANCH   1  15
TORSDOF 12
ENDMDL
MODEL 8
REMARK VINA RESULT:      -4.7      1.863      2.290
REMARK  Name = 
REMARK  12 active torsions:
REMARK  status: ('A' for Active; 'I' for Inactive)
REMARK    1  A    between atoms: N_1  and  CA_2
REMARK    2  A    between atoms: CA_2  and  C_4
REMARK    3  A    between atoms: CA_2  and  C_16
REMARK    4  A    between atoms: C_4  and  C_5
REMARK    5  A    between atoms: C_5  and  C_6
REMARK    6  A    between atoms: C_6  and  N_7
REMARK    7  A    between atoms: N_7  and  P_8
REMARK    8  A    between atoms: P_8  and  N_9
REMARK    9  A    between atoms: P_8  and  N_11
REMARK   10  A    between atoms: N_11  and  S_12
REMARK   11  A    between atoms: S_12  and  O_13
REMARK   12  A    between atoms: C_16  and  O_17
REMARK                            x       y       z     vdW  Elec       q    Type
REMARK                         _______ _______ _______ _____ _____    ______ ____
ROOT
ATOM      1  N   UNL     1       8.083  -1.585  22.896  0.00  0.00    -0.242 NA
ATOM      2  H   UNL     1       7.511  -0.737  22.907  0.00  0.00    +0.132 HD
ENDROOT
BRANCH   1   3
ATOM      3  P   UNL     1       9.530  -1.238  23.560  0.00  0.00    +0.299 P 
ATOM      4  O   UNL     1       9.771  -1.678  24.963  0.00  0.00    -0.268 OA
BRANCH   3   5
ATOM      5  N   UNL     1      10.553  -1.976  22.530  0.00  0.00    -0.256 NA
ATOM      6  H   UNL     1      10.837  -2.887  22.866  0.00  0.00    +0.128 HD
ATOM      7  H   UNL     1      11.404  -1.428  22.458  0.00  0.00    +0.128 HD
ENDBRANCH   3   5
BRANCH   3   8
ATOM      8  N   UNL     1       9.809   0.386  23.252  0.00  0.00    -0.092 NA
ATOM      9  H   UNL     1      10.791   0.610  23.172  0.00  0.00    +0.160 HD
BRANCH   8  10
ATOM     10  S   UNL     1       8.981   0.864  21.915  0.00  0.00    +0.156 S 
ATOM     11  O   UNL     1       7.611   1.110  22.286  0.00  0.00    -0.130 OA
ATOM     12  O   UNL     1       9.312  -0.083  20.880  0.00  0.00    -0.130 OA
BRANCH  10  13
ATOM     13  O   UNL     1       9.666   2.241  21.469  0.00  0.00    -0.240 OA
ATOM     14  H   UNL     1      10.314   2.049  20.761  0.00  0.00    +0.246 HD
ENDBRANCH  10  13
ENDBRANCH   8  10
ENDBRANCH   3   8
ENDBRANCH   1   3
BRANCH   1  15
ATOM     15  C   UNL     1       7.256  -2.670  23.412  0.00  0.00    +0.090 C 
BRANCH  15  16
ATOM     16  C   UNL     1       7.374  -3.936  22.567  0.00  0.00    +0.018 C 
BRANCH  16  17
ATOM     17  C   UNL     1       7.810  -5.129  23.409  0.00  0.00    +0.031 C 
BRANCH  17  18
ATOM     18  CA  UNL     1       8.378  -4.715  24.771  0.00  0.00    +0.161 C 
BRANCH  18  19
ATOM     19  N   UNL     1       9.826  -5.064  24.916  0.00  0.00    -0.318 NA
ATOM     20  H1  UNL     1      10.256  -5.081  23.986  0.00  0.00    +0.119 HD
ATOM     21  H2  UNL     1      10.292  -4.271  25.376  0.00  0.00    +0.119 HD
ENDBRANCH  18  19
BRANCH  18  22
ATOM     22  C   UNL     1       7.597  -5.439  25.884  0.00  0.00    +0.322 C 
ATOM     23  OXT UNL     1       6.399  -5.676  25.860  0.00  0.00    -0.249 OA
BRANCH  22  24
ATOM     24  O   UNL     1       8.415  -5.799  26.902  0.00  0.00    -0.480 OA
ATOM     25  H   UNL     1       8.785  -6.680  26.641  0.00  0.00    +0.295 HD
ENDBRANCH  22  24
ENDBRANCH  18  22
ENDBRANCH  17  18
ENDBRANCH  16  17
ENDBRANCH  15  16
ENDBRANCH   1  15
TORSDOF 12
ENDMDL
MODEL 9
REMARK VINA RESULT:      -4.7      3.449      6.393
REMARK  Name = 
REMARK  12 active torsions:
REMARK  status: ('A' for Active; 'I' for Inactive)
REMARK    1  A    between atoms: N_1  and  CA_2
REMARK    2  A    between atoms: CA_2  and  C_4
REMARK    3  A    between atoms: CA_2  and  C_16
REMARK    4  A    between atoms: C_4  and  C_5
REMARK    5  A    between atoms: C_5  and  C_6
REMARK    6  A    between atoms: C_6  and  N_7
REMARK    7  A    between atoms: N_7  and  P_8
REMARK    8  A    between atoms: P_8  and  N_9
REMARK    9  A    between atoms: P_8  and  N_11
REMARK   10  A    between atoms: N_11  and  S_12
REMARK   11  A    between atoms: S_12  and  O_13
REMARK   12  A    between atoms: C_16  and  O_17
REMARK                            x       y       z     vdW  Elec       q    Type
REMARK                         _______ _______ _______ _____ _____    ______ ____
ROOT
ATOM      1  N   UNL     1       8.727  -3.412  25.134  0.00  0.00    -0.242 NA
ATOM      2  H   UNL     1       7.981  -3.232  25.811  0.00  0.00    +0.132 HD
ENDROOT
BRANCH   1   3
ATOM      3  P   UNL     1       8.870  -5.024  24.943  0.00  0.00    +0.299 P 
ATOM      4  O   UNL     1       8.385  -5.615  23.665  0.00  0.00    -0.268 OA
BRANCH   3   5
ATOM      5  N   UNL     1      10.476  -5.236  25.116  0.00  0.00    -0.256 NA
ATOM      6  H   UNL     1      10.815  -4.857  25.990  0.00  0.00    +0.128 HD
ATOM      7  H   UNL     1      10.958  -4.725  24.385  0.00  0.00    +0.128 HD
ENDBRANCH   3   5
BRANCH   3   8
ATOM      8  N   UNL     1       8.257  -5.717  26.341  0.00  0.00    -0.092 NA
ATOM      9  H   UNL     1       8.810  -5.509  27.161  0.00  0.00    +0.160 HD
BRANCH   8  10
ATOM     10  S   UNL     1       6.689  -5.275  26.557  0.00  0.00    +0.156 S 
ATOM     11  O   UNL     1       6.655  -4.061  27.331  0.00  0.00    -0.130 OA
ATOM     12  O   UNL     1       5.997  -6.460  27.001  0.00  0.00    -0.130 OA
BRANCH  10  13
ATOM     13  O   UNL     1       6.131  -4.982  25.085  0.00  0.00    -0.240 OA
ATOM     14  H   UNL     1       6.614  -4.212  24.719  0.00  0.00    +0.246 HD
ENDBRANCH  10  13
ENDBRANCH   8  10
ENDBRANCH   3   8
ENDBRANCH   1   3
BRANCH   1  15
ATOM     15  C   UNL     1       8.493  -2.534  23.993  0.00  0.00    +0.090 C 
BRANCH  15  16
ATOM     16  C   UNL     1       8.650  -1.060  24.359  0.00  0.00    +0.018 C 
BRANCH  16  17
ATOM     17  C   UNL     1       9.176  -0.247  23.183  0.00  0.00    +0.031 C 
BRANCH  17  18
ATOM     18  CA  UNL     1      10.399   0.601  23.548  0.00  0.00    +0.161 C 
BRANCH  18  19
ATOM     19  N   UNL     1      10.605   0.698  25.027  0.00  0.00    -0.318 NA
ATOM     20  H1  UNL     1      10.968   1.631  25.250  0.00  0.00    +0.119 HD
ATOM     21  H2  UNL     1       9.678   0.694  25.471  0.00  0.00    +0.119 HD
ENDBRANCH  18  19
BRANCH  18  22
ATOM     22  C   UNL     1      10.207   2.026  22.996  0.00  0.00    +0.322 C 
ATOM     23  OXT UNL     1      10.223   3.047  23.666  0.00  0.00    -0.249 OA
BRANCH  22  24
ATOM     24  O   UNL     1      10.030   2.010  21.653  0.00  0.00    -0.480 OA
ATOM     25  H   UNL     1      10.919   1.792  21.274  0.00  0.00    +0.295 HD
ENDBRANCH  22  24
ENDBRANCH  18  22
ENDBRANCH  17  18
ENDBRANCH  16  17
ENDBRANCH  15  16
ENDBRANCH   1  15
TORSDOF 12
ENDMDL
