MODEL 1
REMARK VINA RESULT:      -6.9      0.000      0.000
REMARK  Name = 
REMARK  15 active torsions:
REMARK  status: ('A' for Active; 'I' for Inactive)
REMARK    1  A    between atoms: C_1  and  C_2
REMARK    2  A    between atoms: C_7  and  C_8
REMARK    3  A    between atoms: C_8  and  N_9
REMARK    4  A    between atoms: C_10  and  C_12
REMARK    5  A    between atoms: C_17  and  C_18
REMARK    6  A    between atoms: C_17  and  C_19
REMARK    7  A    between atoms: C_20  and  C_22
REMARK    8  A    between atoms: C_22  and  O_24
REMARK    9  A    between atoms: C_22  and  C_25
REMARK   10  A    between atoms: C_25  and  C_27
REMARK   11  A    between atoms: C_25  and  N_34
REMARK   12  A    between atoms: C_27  and  C_28
REMARK   13  A    between atoms: C_35  and  C_37
REMARK   14  A    between atoms: C_41  and  O_42
REMARK   15  A    between atoms: C_43  and  C_44
REMARK                            x       y       z     vdW  Elec       q    Type
REMARK                         _______ _______ _______ _____ _____    ______ ____
ROOT
ATOM      1  C   UNL     1       5.429  -4.692  27.696  0.00  0.00    +0.220 C 
ENDROOT
BRANCH   1   9
ATOM      2  C   UNL     1       7.352  -5.280  24.319  0.00  0.00    +0.178 C 
ATOM      3  C   UNL     1       6.464  -4.929  23.093  0.00  0.00    +0.040 C 
ATOM      4  C   UNL     1       7.021  -5.388  21.741  0.00  0.00    +0.025 C 
ATOM      5  C   UNL     1       6.002  -3.470  23.060  0.00  0.00    +0.025 C 
ATOM      6  S   UNL     1       4.963  -5.959  23.382  0.00  0.00    -0.133 S 
ATOM      7  C   UNL     1       5.224  -6.099  25.158  0.00  0.00    +0.178 C 
ATOM      8  N   UNL     1       6.445  -5.372  25.503  0.00  0.00    -0.277 N 
ATOM      9  C   UNL     1       6.522  -4.501  26.605  0.00  0.00    +0.247 C 
ATOM     10  O   UNL     1       7.447  -3.702  26.744  0.00  0.00    -0.273 OA
BRANCH   2  13
ATOM     11  N   UNL     1       8.735  -3.238  24.068  0.00  0.00    -0.310 N 
ATOM     12  H   UNL     1       8.033  -2.945  23.401  0.00  0.00    +0.149 HD
ATOM     13  C   UNL     1       8.752  -4.589  24.380  0.00  0.00    +0.235 C 
ATOM     14  O   UNL     1       9.737  -5.134  24.876  0.00  0.00    -0.274 OA
BRANCH  11  15
ATOM     15  C   UNL     1       9.930  -2.411  24.140  0.00  0.00    +0.139 C 
BRANCH  15  18
ATOM     16  C   UNL     1      10.913   0.413  24.926  0.00  0.00    +0.044 C 
ATOM     17  C   UNL     1      10.241   0.110  23.613  0.00  0.00    -0.046 A 
ATOM     18  C   UNL     1       9.824  -1.189  23.244  0.00  0.00    -0.027 A 
ATOM     19  C   UNL     1       9.213  -1.362  21.985  0.00  0.00    +0.005 A 
ATOM     20  C   UNL     1       9.024  -0.290  21.109  0.00  0.00    +0.000 A 
ATOM     21  C   UNL     1       9.441   0.981  21.478  0.00  0.00    +0.000 A 
ATOM     22  C   UNL     1      10.043   1.177  22.717  0.00  0.00    +0.003 A 
ENDBRANCH  15  18
ENDBRANCH  11  15
ENDBRANCH   2  13
ENDBRANCH   1   9
BRANCH   1  23
ATOM     23  O   UNL     1       6.093  -4.976  28.947  0.00  0.00    -0.381 OA
ATOM     24  H   UNL     1       6.323  -4.137  29.375  0.00  0.00    +0.211 HD
ENDBRANCH   1  23
BRANCH   1  25
ATOM     25  C   UNL     1       4.413  -3.539  27.974  0.00  0.00    +0.115 C 
BRANCH  25  26
ATOM     26  N   UNL     1       4.961  -2.258  27.446  0.00  0.00    -0.305 N 
ATOM     27  H   UNL     1       5.778  -1.878  27.905  0.00  0.00    +0.149 HD
ATOM     28  C   UNL     1       4.513  -1.693  26.265  0.00  0.00    +0.245 C 
ATOM     29  O   UNL     1       3.624  -2.197  25.587  0.00  0.00    -0.270 OA
BRANCH  28  30
ATOM     30  C   UNL     1       5.162  -0.421  25.831  0.00  0.00    +0.043 A 
ATOM     31  C   UNL     1       4.634   0.833  26.217  0.00  0.00    +0.003 A 
ATOM     32  C   UNL     1       3.373   0.943  27.036  0.00  0.00    +0.048 C 
ATOM     33  C   UNL     1       5.310   1.991  25.803  0.00  0.00    +0.120 A 
ATOM     34  C   UNL     1       6.464   1.925  25.023  0.00  0.00    +0.046 A 
ATOM     35  C   UNL     1       6.983   0.685  24.661  0.00  0.00    +0.004 A 
ATOM     36  C   UNL     1       6.344  -0.484  25.072  0.00  0.00    +0.013 A 
BRANCH  33  37
ATOM     37  O   UNL     1       4.822   3.213  26.174  0.00  0.00    -0.506 OA
ATOM     38  H   UNL     1       3.996   3.092  26.671  0.00  0.00    +0.292 HD
ENDBRANCH  33  37
ENDBRANCH  28  30
ENDBRANCH  25  26
BRANCH  25  39
ATOM     39  C   UNL     1       4.011  -3.373  29.457  0.00  0.00    +0.060 C 
BRANCH  39  40
ATOM     40  C   UNL     1       3.177  -2.138  29.782  0.00  0.00    -0.046 A 
ATOM     41  C   UNL     1       1.814  -2.101  29.444  0.00  0.00    +0.004 A 
ATOM     42  C   UNL     1       1.067  -0.931  29.597  0.00  0.00    +0.000 A 
ATOM     43  C   UNL     1       1.670   0.221  30.102  0.00  0.00    +0.000 A 
ATOM     44  C   UNL     1       3.008   0.187  30.485  0.00  0.00    +0.000 A 
ATOM     45  C   UNL     1       3.760  -0.985  30.328  0.00  0.00    +0.004 A 
ENDBRANCH  39  40
ENDBRANCH  25  39
ENDBRANCH   1  25
TORSDOF 11
ENDMDL
MODEL 2
REMARK VINA RESULT:      -6.8      2.657      6.695
REMARK  Name = 
REMARK  15 active torsions:
REMARK  status: ('A' for Active; 'I' for Inactive)
REMARK    1  A    between atoms: C_1  and  C_2
REMARK    2  A    between atoms: C_7  and  C_8
REMARK    3  A    between atoms: C_8  and  N_9
REMARK    4  A    between atoms: C_10  and  C_12
REMARK    5  A    between atoms: C_17  and  C_18
REMARK    6  A    between atoms: C_17  and  C_19
REMARK    7  A    between atoms: C_20  and  C_22
REMARK    8  A    between atoms: C_22  and  O_24
REMARK    9  A    between atoms: C_22  and  C_25
REMARK   10  A    between atoms: C_25  and  C_27
REMARK   11  A    between atoms: C_25  and  N_34
REMARK   12  A    between atoms: C_27  and  C_28
REMARK   13  A    between atoms: C_35  and  C_37
REMARK   14  A    between atoms: C_41  and  O_42
REMARK   15  A    between atoms: C_43  and  C_44
REMARK                            x       y       z     vdW  Elec       q    Type
REMARK                         _______ _______ _______ _____ _____    ______ ____
ROOT
ATOM      1  C   UNL     1       3.971  -1.719  26.760  0.00  0.00    +0.220 C 
ENDROOT
BRANCH   1   9
ATOM      2  C   UNL     1       4.561   1.969  27.983  0.00  0.00    +0.178 C 
ATOM      3  C   UNL     1       5.720   2.045  29.016  0.00  0.00    +0.040 C 
ATOM      4  C   UNL     1       5.839   3.382  29.755  0.00  0.00    +0.025 C 
ATOM      5  C   UNL     1       7.068   1.566  28.472  0.00  0.00    +0.025 C 
ATOM      6  S   UNL     1       5.195   0.822  30.292  0.00  0.00    -0.133 S 
ATOM      7  C   UNL     1       4.130  -0.104  29.174  0.00  0.00    +0.178 C 
ATOM      8  N   UNL     1       4.182   0.529  27.857  0.00  0.00    -0.277 N 
ATOM      9  C   UNL     1       4.329  -0.208  26.668  0.00  0.00    +0.247 C 
ATOM     10  O   UNL     1       4.632   0.325  25.602  0.00  0.00    -0.273 OA
BRANCH   2  13
ATOM     11  N   UNL     1       5.909   2.913  26.129  0.00  0.00    -0.310 N 
ATOM     12  H   UNL     1       6.705   2.735  26.727  0.00  0.00    +0.149 HD
ATOM     13  C   UNL     1       4.670   2.924  26.752  0.00  0.00    +0.235 C 
ATOM     14  O   UNL     1       3.686   3.462  26.244  0.00  0.00    -0.274 OA
BRANCH  11  15
ATOM     15  C   UNL     1       6.176   3.683  24.924  0.00  0.00    +0.139 C 
BRANCH  15  18
ATOM     16  C   UNL     1       8.819   4.609  23.614  0.00  0.00    +0.044 C 
ATOM     17  C   UNL     1       8.142   3.308  23.273  0.00  0.00    -0.046 A 
ATOM     18  C   UNL     1       6.952   2.873  23.899  0.00  0.00    -0.027 A 
ATOM     19  C   UNL     1       6.408   1.633  23.509  0.00  0.00    +0.005 A 
ATOM     20  C   UNL     1       7.020   0.837  22.537  0.00  0.00    +0.000 A 
ATOM     21  C   UNL     1       8.191   1.270  21.932  0.00  0.00    +0.000 A 
ATOM     22  C   UNL     1       8.745   2.493  22.297  0.00  0.00    +0.003 A 
ENDBRANCH  15  18
ENDBRANCH  11  15
ENDBRANCH   2  13
ENDBRANCH   1   9
BRANCH   1  23
ATOM     23  O   UNL     1       2.604  -1.881  26.324  0.00  0.00    -0.381 OA
ATOM     24  H   UNL     1       2.315  -1.060  25.896  0.00  0.00    +0.211 HD
ENDBRANCH   1  23
BRANCH   1  25
ATOM     25  C   UNL     1       4.826  -2.760  25.968  0.00  0.00    +0.115 C 
BRANCH  25  26
ATOM     26  N   UNL     1       6.037  -2.090  25.418  0.00  0.00    -0.305 N 
ATOM     27  H   UNL     1       5.893  -1.334  24.762  0.00  0.00    +0.149 HD
ATOM     28  C   UNL     1       7.308  -2.337  25.911  0.00  0.00    +0.245 C 
ATOM     29  O   UNL     1       7.520  -3.137  26.815  0.00  0.00    -0.270 OA
BRANCH  28  30
ATOM     30  C   UNL     1       8.436  -1.581  25.292  0.00  0.00    +0.043 A 
ATOM     31  C   UNL     1       9.126  -2.095  24.169  0.00  0.00    +0.003 A 
ATOM     32  C   UNL     1       8.789  -3.441  23.581  0.00  0.00    +0.048 C 
ATOM     33  C   UNL     1      10.155  -1.320  23.615  0.00  0.00    +0.120 A 
ATOM     34  C   UNL     1      10.509  -0.082  24.151  0.00  0.00    +0.046 A 
ATOM     35  C   UNL     1       9.814   0.421  25.247  0.00  0.00    +0.004 A 
ATOM     36  C   UNL     1       8.774  -0.318  25.809  0.00  0.00    +0.013 A 
BRANCH  33  37
ATOM     37  O   UNL     1      10.828  -1.793  22.522  0.00  0.00    -0.506 OA
ATOM     38  H   UNL     1      11.178  -2.677  22.719  0.00  0.00    +0.292 HD
ENDBRANCH  33  37
ENDBRANCH  28  30
ENDBRANCH  25  26
BRANCH  25  39
ATOM     39  C   UNL     1       4.069  -3.495  24.839  0.00  0.00    +0.060 C 
BRANCH  39  40
ATOM     40  C   UNL     1       4.940  -4.097  23.741  0.00  0.00    -0.046 A 
ATOM     41  C   UNL     1       5.204  -3.364  22.573  0.00  0.00    +0.004 A 
ATOM     42  C   UNL     1       5.873  -3.947  21.494  0.00  0.00    +0.000 A 
ATOM     43  C   UNL     1       6.301  -5.273  21.573  0.00  0.00    +0.000 A 
ATOM     44  C   UNL     1       6.088  -5.998  22.743  0.00  0.00    +0.000 A 
ATOM     45  C   UNL     1       5.413  -5.415  23.823  0.00  0.00    +0.004 A 
ENDBRANCH  39  40
ENDBRANCH  25  39
ENDBRANCH   1  25
TORSDOF 11
ENDMDL
MODEL 3
REMARK VINA RESULT:      -6.7      1.844      2.782
REMARK  Name = 
REMARK  15 active torsions:
REMARK  status: ('A' for Active; 'I' for Inactive)
REMARK    1  A    between atoms: C_1  and  C_2
REMARK    2  A    between atoms: C_7  and  C_8
REMARK    3  A    between atoms: C_8  and  N_9
REMARK    4  A    between atoms: C_10  and  C_12
REMARK    5  A    between atoms: C_17  and  C_18
REMARK    6  A    between atoms: C_17  and  C_19
REMARK    7  A    between atoms: C_20  and  C_22
REMARK    8  A    between atoms: C_22  and  O_24
REMARK    9  A    between atoms: C_22  and  C_25
REMARK   10  A    between atoms: C_25  and  C_27
REMARK   11  A    between atoms: C_25  and  N_34
REMARK   12  A    between atoms: C_27  and  C_28
REMARK   13  A    between atoms: C_35  and  C_37
REMARK   14  A    between atoms: C_41  and  O_42
REMARK   15  A    between atoms: C_43  and  C_44
REMARK                            x       y       z     vdW  Elec       q    Type
REMARK                         _______ _______ _______ _____ _____    ______ ____
ROOT
ATOM      1  C   UNL     1       5.367  -4.723  27.526  0.00  0.00    +0.220 C 
ENDROOT
BRANCH   1   9
ATOM      2  C   UNL     1       7.247  -5.225  24.112  0.00  0.00    +0.178 C 
ATOM      3  C   UNL     1       6.360  -4.802  22.909  0.00  0.00    +0.040 C 
ATOM      4  C   UNL     1       6.894  -5.221  21.534  0.00  0.00    +0.025 C 
ATOM      5  C   UNL     1       5.935  -3.332  22.938  0.00  0.00    +0.025 C 
ATOM      6  S   UNL     1       4.834  -5.803  23.170  0.00  0.00    -0.133 S 
ATOM      7  C   UNL     1       5.105  -6.021  24.936  0.00  0.00    +0.178 C 
ATOM      8  N   UNL     1       6.347  -5.340  25.300  0.00  0.00    -0.277 N 
ATOM      9  C   UNL     1       6.456  -4.516  26.434  0.00  0.00    +0.247 C 
ATOM     10  O   UNL     1       7.403  -3.748  26.596  0.00  0.00    -0.273 OA
BRANCH   2  13
ATOM     11  N   UNL     1       8.677  -3.205  23.959  0.00  0.00    -0.310 N 
ATOM     12  H   UNL     1       7.972  -2.856  23.324  0.00  0.00    +0.149 HD
ATOM     13  C   UNL     1       8.665  -4.573  24.188  0.00  0.00    +0.235 C 
ATOM     14  O   UNL     1       9.645  -5.172  24.632  0.00  0.00    -0.274 OA
BRANCH  11  15
ATOM     15  C   UNL     1       9.895  -2.415  24.059  0.00  0.00    +0.139 C 
BRANCH  15  18
ATOM     16  C   UNL     1      10.810   0.373  25.035  0.00  0.00    +0.044 C 
ATOM     17  C   UNL     1      10.197   0.134  23.680  0.00  0.00    -0.046 A 
ATOM     18  C   UNL     1       9.812  -1.147  23.225  0.00  0.00    -0.027 A 
ATOM     19  C   UNL     1       9.256  -1.257  21.934  0.00  0.00    +0.005 A 
ATOM     20  C   UNL     1       9.091  -0.142  21.110  0.00  0.00    +0.000 A 
ATOM     21  C   UNL     1       9.477   1.112  21.563  0.00  0.00    +0.000 A 
ATOM     22  C   UNL     1      10.025   1.246  22.835  0.00  0.00    +0.003 A 
ENDBRANCH  15  18
ENDBRANCH  11  15
ENDBRANCH   2  13
ENDBRANCH   1   9
BRANCH   1  23
ATOM     23  O   UNL     1       6.035  -4.900  28.795  0.00  0.00    -0.381 OA
ATOM     24  H   UNL     1       6.459  -5.772  28.804  0.00  0.00    +0.211 HD
ENDBRANCH   1  23
BRANCH   1  25
ATOM     25  C   UNL     1       4.276  -3.625  27.738  0.00  0.00    +0.115 C 
BRANCH  25  26
ATOM     26  N   UNL     1       4.934  -2.299  27.909  0.00  0.00    -0.305 N 
ATOM     27  H   UNL     1       5.695  -2.240  28.571  0.00  0.00    +0.149 HD
ATOM     28  C   UNL     1       4.667  -1.228  27.074  0.00  0.00    +0.245 C 
ATOM     29  O   UNL     1       3.858  -1.294  26.154  0.00  0.00    -0.270 OA
BRANCH  28  30
ATOM     30  C   UNL     1       5.411   0.039  27.333  0.00  0.00    +0.043 A 
ATOM     31  C   UNL     1       6.429   0.478  26.454  0.00  0.00    +0.003 A 
ATOM     32  C   UNL     1       6.839  -0.332  25.252  0.00  0.00    +0.048 C 
ATOM     33  C   UNL     1       7.067   1.695  26.738  0.00  0.00    +0.120 A 
ATOM     34  C   UNL     1       6.729   2.455  27.857  0.00  0.00    +0.046 A 
ATOM     35  C   UNL     1       5.716   2.021  28.707  0.00  0.00    +0.004 A 
ATOM     36  C   UNL     1       5.050   0.825  28.442  0.00  0.00    +0.013 A 
BRANCH  33  37
ATOM     37  O   UNL     1       8.047   2.143  25.895  0.00  0.00    -0.506 OA
ATOM     38  H   UNL     1       8.764   1.489  25.861  0.00  0.00    +0.292 HD
ENDBRANCH  33  37
ENDBRANCH  28  30
ENDBRANCH  25  26
BRANCH  25  39
ATOM     39  C   UNL     1       3.308  -3.891  28.914  0.00  0.00    +0.060 C 
BRANCH  39  40
ATOM     40  C   UNL     1       2.578  -5.230  28.879  0.00  0.00    -0.046 A 
ATOM     41  C   UNL     1       2.841  -6.199  29.861  0.00  0.00    +0.004 A 
ATOM     42  C   UNL     1       2.298  -7.482  29.768  0.00  0.00    +0.000 A 
ATOM     43  C   UNL     1       1.471  -7.814  28.695  0.00  0.00    +0.000 A 
ATOM     44  C   UNL     1       1.163  -6.850  27.738  0.00  0.00    +0.000 A 
ATOM     45  C   UNL     1       1.712  -5.563  27.828  0.00  0.00    +0.004 A 
ENDBRANCH  39  40
ENDBRANCH  25  39
ENDBRANCH   1  25
TORSDOF 11
ENDMDL
MODEL 4
REMARK VINA RESULT:      -6.5      2.640      6.604
REMARK  Name = 
REMARK  15 active torsions:
REMARK  status: ('A' for Active; 'I' for Inactive)
REMARK    1  A    between atoms: C_1  and  C_2
REMARK    2  A    between atoms: C_7  and  C_8
REMARK    3  A    between atoms: C_8  and  N_9
REMARK    4  A    between atoms: C_10  and  C_12
REMARK    5  A    between atoms: C_17  and  C_18
REMARK    6  A    between atoms: C_17  and  C_19
REMARK    7  A    between atoms: C_20  and  C_22
REMARK    8  A    between atoms: C_22  and  O_24
REMARK    9  A    between atoms: C_22  and  C_25
REMARK   10  A    between atoms: C_25  and  C_27
REMARK   11  A    between atoms: C_25  and  N_34
REMARK   12  A    between atoms: C_27  and  C_28
REMARK   13  A    between atoms: C_35  and  C_37
REMARK   14  A    between atoms: C_41  and  O_42
REMARK   15  A    between atoms: C_43  and  C_44
REMARK                            x       y       z     vdW  Elec       q    Type
REMARK                         _______ _______ _______ _____ _____    ______ ____
ROOT
ATOM      1  C   UNL     1       4.596  -2.666  27.065  0.00  0.00    +0.220 C 
ENDROOT
BRANCH   1   9
ATOM      2  C   UNL     1       3.875   1.120  27.830  0.00  0.00    +0.178 C 
ATOM      3  C   UNL     1       4.978   1.735  28.738  0.00  0.00    +0.040 C 
ATOM      4  C   UNL     1       4.642   3.114  29.317  0.00  0.00    +0.025 C 
ATOM      5  C   UNL     1       6.379   1.694  28.125  0.00  0.00    +0.025 C 
ATOM      6  S   UNL     1       4.991   0.586  30.179  0.00  0.00    -0.133 S 
ATOM      7  C   UNL     1       4.279  -0.795  29.269  0.00  0.00    +0.178 C 
ATOM      8  N   UNL     1       4.035  -0.364  27.893  0.00  0.00    -0.277 N 
ATOM      9  C   UNL     1       4.380  -1.152  26.780  0.00  0.00    +0.247 C 
ATOM     10  O   UNL     1       4.418  -0.692  25.640  0.00  0.00    -0.273 OA
BRANCH   2  13
ATOM     11  N   UNL     1       4.701   2.292  25.807  0.00  0.00    -0.310 N 
ATOM     12  H   UNL     1       5.508   2.522  26.372  0.00  0.00    +0.149 HD
ATOM     13  C   UNL     1       3.572   1.881  26.500  0.00  0.00    +0.235 C 
ATOM     14  O   UNL     1       2.448   1.914  25.999  0.00  0.00    -0.274 OA
BRANCH  11  15
ATOM     15  C   UNL     1       4.618   2.951  24.513  0.00  0.00    +0.139 C 
BRANCH  15  18
ATOM     16  C   UNL     1       6.159   4.946  22.723  0.00  0.00    +0.044 C 
ATOM     17  C   UNL     1       6.465   3.472  22.766  0.00  0.00    -0.046 A 
ATOM     18  C   UNL     1       5.780   2.569  23.612  0.00  0.00    -0.027 A 
ATOM     19  C   UNL     1       6.154   1.210  23.579  0.00  0.00    +0.005 A 
ATOM     20  C   UNL     1       7.177   0.752  22.745  0.00  0.00    +0.000 A 
ATOM     21  C   UNL     1       7.846   1.646  21.922  0.00  0.00    +0.000 A 
ATOM     22  C   UNL     1       7.493   2.992  21.934  0.00  0.00    +0.003 A 
ENDBRANCH  15  18
ENDBRANCH  11  15
ENDBRANCH   2  13
ENDBRANCH   1   9
BRANCH   1  23
ATOM     23  O   UNL     1       3.300  -3.270  27.271  0.00  0.00    -0.381 OA
ATOM     24  H   UNL     1       2.648  -2.801  26.728  0.00  0.00    +0.211 HD
ENDBRANCH   1  23
BRANCH   1  25
ATOM     25  C   UNL     1       5.344  -3.546  26.012  0.00  0.00    +0.115 C 
BRANCH  25  26
ATOM     26  N   UNL     1       6.392  -2.729  25.340  0.00  0.00    -0.305 N 
ATOM     27  H   UNL     1       6.136  -1.796  25.044  0.00  0.00    +0.149 HD
ATOM     28  C   UNL     1       7.717  -3.126  25.283  0.00  0.00    +0.245 C 
ATOM     29  O   UNL     1       8.109  -4.184  25.764  0.00  0.00    -0.270 OA
BRANCH  28  30
ATOM     30  C   UNL     1       8.675  -2.206  24.603  0.00  0.00    +0.043 A 
ATOM     31  C   UNL     1       9.221  -1.092  25.283  0.00  0.00    +0.003 A 
ATOM     32  C   UNL     1       8.825  -0.757  26.698  0.00  0.00    +0.048 C 
ATOM     33  C   UNL     1      10.141  -0.285  24.597  0.00  0.00    +0.120 A 
ATOM     34  C   UNL     1      10.508  -0.552  23.278  0.00  0.00    +0.046 A 
ATOM     35  C   UNL     1       9.976  -1.659  22.623  0.00  0.00    +0.004 A 
ATOM     36  C   UNL     1       9.073  -2.491  23.284  0.00  0.00    +0.013 A 
BRANCH  33  37
ATOM     37  O   UNL     1      10.689   0.791  25.240  0.00  0.00    -0.506 OA
ATOM     38  H   UNL     1       9.996   1.253  25.738  0.00  0.00    +0.292 HD
ENDBRANCH  33  37
ENDBRANCH  28  30
ENDBRANCH  25  26
BRANCH  25  39
ATOM     39  C   UNL     1       4.431  -4.210  24.957  0.00  0.00    +0.060 C 
BRANCH  39  40
ATOM     40  C   UNL     1       5.100  -4.565  23.633  0.00  0.00    -0.046 A 
ATOM     41  C   UNL     1       5.664  -5.838  23.450  0.00  0.00    +0.004 A 
ATOM     42  C   UNL     1       6.408  -6.136  22.306  0.00  0.00    +0.000 A 
ATOM     43  C   UNL     1       6.590  -5.167  21.320  0.00  0.00    +0.000 A 
ATOM     44  C   UNL     1       5.998  -3.915  21.465  0.00  0.00    +0.000 A 
ATOM     45  C   UNL     1       5.255  -3.613  22.614  0.00  0.00    +0.004 A 
ENDBRANCH  39  40
ENDBRANCH  25  39
ENDBRANCH   1  25
TORSDOF 11
ENDMDL
MODEL 5
REMARK VINA RESULT:      -6.4      2.436      5.385
REMARK  Name = 
REMARK  15 active torsions:
REMARK  status: ('A' for Active; 'I' for Inactive)
REMARK    1  A    between atoms: C_1  and  C_2
REMARK    2  A    between atoms: C_7  and  C_8
REMARK    3  A    between atoms: C_8  and  N_9
REMARK    4  A    between atoms: C_10  and  C_12
REMARK    5  A    between atoms: C_17  and  C_18
REMARK    6  A    between atoms: C_17  and  C_19
REMARK    7  A    between atoms: C_20  and  C_22
REMARK    8  A    between atoms: C_22  and  O_24
REMARK    9  A    between atoms: C_22  and  C_25
REMARK   10  A    between atoms: C_25  and  C_27
REMARK   11  A    between atoms: C_25  and  N_34
REMARK   12  A    between atoms: C_27  and  C_28
REMARK   13  A    between atoms: C_35  and  C_37
REMARK   14  A    between atoms: C_41  and  O_42
REMARK   15  A    between atoms: C_43  and  C_44
REMARK                            x       y       z     vdW  Elec       q    Type
REMARK                         _______ _______ _______ _____ _____    ______ ____
ROOT
ATOM      1  C   UNL     1       4.909  -0.234  27.180  0.00  0.00    +0.220 C 
ENDROOT
BRANCH   1   9
ATOM      2  C   UNL     1       5.047  -4.115  27.784  0.00  0.00    +0.178 C 
ATOM      3  C   UNL     1       3.668  -4.780  27.512  0.00  0.00    +0.040 C 
ATOM      4  C   UNL     1       3.548  -6.232  27.987  0.00  0.00    +0.025 C 
ATOM      5  C   UNL     1       3.165  -4.599  26.078  0.00  0.00    +0.025 C 
ATOM      6  S   UNL     1       2.539  -3.810  28.600  0.00  0.00    -0.133 S 
ATOM      7  C   UNL     1       3.612  -2.367  28.673  0.00  0.00    +0.178 C 
ATOM      8  N   UNL     1       4.810  -2.642  27.880  0.00  0.00    -0.277 N 
ATOM      9  C   UNL     1       5.348  -1.712  26.973  0.00  0.00    +0.247 C 
ATOM     10  O   UNL     1       6.184  -2.031  26.128  0.00  0.00    -0.273 OA
BRANCH   2  13
ATOM     11  N   UNL     1       6.089  -4.851  25.659  0.00  0.00    -0.310 N 
ATOM     12  H   UNL     1       5.141  -5.024  25.351  0.00  0.00    +0.149 HD
ATOM     13  C   UNL     1       6.270  -4.725  27.028  0.00  0.00    +0.235 C 
ATOM     14  O   UNL     1       7.371  -4.869  27.559  0.00  0.00    -0.274 OA
BRANCH  11  15
ATOM     15  C   UNL     1       7.144  -5.332  24.780  0.00  0.00    +0.139 C 
BRANCH  15  18
ATOM     16  C   UNL     1       5.999  -3.836  22.328  0.00  0.00    +0.044 C 
ATOM     17  C   UNL     1       7.345  -3.526  22.928  0.00  0.00    -0.046 A 
ATOM     18  C   UNL     1       7.849  -4.189  24.069  0.00  0.00    -0.027 A 
ATOM     19  C   UNL     1       9.119  -3.813  24.553  0.00  0.00    +0.005 A 
ATOM     20  C   UNL     1       9.869  -2.808  23.938  0.00  0.00    +0.000 A 
ATOM     21  C   UNL     1       9.363  -2.158  22.820  0.00  0.00    +0.000 A 
ATOM     22  C   UNL     1       8.114  -2.515  22.322  0.00  0.00    +0.003 A 
ENDBRANCH  15  18
ENDBRANCH  11  15
ENDBRANCH   2  13
ENDBRANCH   1   9
BRANCH   1  23
ATOM     23  O   UNL     1       5.735   0.335  28.219  0.00  0.00    -0.381 OA
ATOM     24  H   UNL     1       5.192   0.930  28.758  0.00  0.00    +0.211 HD
ENDBRANCH   1  23
BRANCH   1  25
ATOM     25  C   UNL     1       4.955   0.756  25.972  0.00  0.00    +0.115 C 
BRANCH  25  26
ATOM     26  N   UNL     1       6.372   0.999  25.584  0.00  0.00    -0.305 N 
ATOM     27  H   UNL     1       6.997   1.347  26.299  0.00  0.00    +0.149 HD
ATOM     28  C   UNL     1       6.885   0.592  24.364  0.00  0.00    +0.245 C 
ATOM     29  O   UNL     1       6.202   0.026  23.517  0.00  0.00    -0.270 OA
BRANCH  28  30
ATOM     30  C   UNL     1       8.328   0.871  24.106  0.00  0.00    +0.043 A 
ATOM     31  C   UNL     1       8.738   1.559  22.940  0.00  0.00    +0.003 A 
ATOM     32  C   UNL     1       7.750   1.995  21.889  0.00  0.00    +0.048 C 
ATOM     33  C   UNL     1      10.107   1.818  22.773  0.00  0.00    +0.120 A 
ATOM     34  C   UNL     1      11.050   1.406  23.715  0.00  0.00    +0.046 A 
ATOM     35  C   UNL     1      10.634   0.742  24.865  0.00  0.00    +0.004 A 
ATOM     36  C   UNL     1       9.279   0.486  25.068  0.00  0.00    +0.013 A 
BRANCH  33  37
ATOM     37  O   UNL     1      10.524   2.492  21.658  0.00  0.00    -0.506 OA
ATOM     38  H   UNL     1      11.190   1.960  21.193  0.00  0.00    +0.292 HD
ENDBRANCH  33  37
ENDBRANCH  28  30
ENDBRANCH  25  26
BRANCH  25  39
ATOM     39  C   UNL     1       4.233   2.102  26.210  0.00  0.00    +0.060 C 
BRANCH  39  40
ATOM     40  C   UNL     1       4.444   3.165  25.136  0.00  0.00    -0.046 A 
ATOM     41  C   UNL     1       4.010   2.931  23.822  0.00  0.00    +0.004 A 
ATOM     42  C   UNL     1       4.321   3.823  22.793  0.00  0.00    +0.000 A 
ATOM     43  C   UNL     1       5.065   4.971  23.066  0.00  0.00    +0.000 A 
ATOM     44  C   UNL     1       5.463   5.240  24.373  0.00  0.00    +0.000 A 
ATOM     45  C   UNL     1       5.154   4.344  25.405  0.00  0.00    +0.004 A 
ENDBRANCH  39  40
ENDBRANCH  25  39
ENDBRANCH   1  25
TORSDOF 11
ENDMDL
MODEL 6
REMARK VINA RESULT:      -6.2      2.361      3.698
REMARK  Name = 
REMARK  15 active torsions:
REMARK  status: ('A' for Active; 'I' for Inactive)
REMARK    1  A    between atoms: C_1  and  C_2
REMARK    2  A    between atoms: C_7  and  C_8
REMARK    3  A    between atoms: C_8  and  N_9
REMARK    4  A    between atoms: C_10  and  C_12
REMARK    5  A    between atoms: C_17  and  C_18
REMARK    6  A    between atoms: C_17  and  C_19
REMARK    7  A    between atoms: C_20  and  C_22
REMARK    8  A    between atoms: C_22  and  O_24
REMARK    9  A    between atoms: C_22  and  C_25
REMARK   10  A    between atoms: C_25  and  C_27
REMARK   11  A    between atoms: C_25  and  N_34
REMARK   12  A    between atoms: C_27  and  C_28
REMARK   13  A    between atoms: C_35  and  C_37
REMARK   14  A    between atoms: C_41  and  O_42
REMARK   15  A    between atoms: C_43  and  C_44
REMARK                            x       y       z     vdW  Elec       q    Type
REMARK                         _______ _______ _______ _____ _____    ______ ____
ROOT
ATOM      1  C   UNL     1       5.657  -1.146  26.531  0.00  0.00    +0.220 C 
ENDROOT
BRANCH   1   9
ATOM      2  C   UNL     1       7.198  -3.771  24.044  0.00  0.00    +0.178 C 
ATOM      3  C   UNL     1       6.167  -4.199  22.962  0.00  0.00    +0.040 C 
ATOM      4  C   UNL     1       6.578  -5.416  22.126  0.00  0.00    +0.025 C 
ATOM      5  C   UNL     1       5.667  -3.045  22.091  0.00  0.00    +0.025 C 
ATOM      6  S   UNL     1       4.735  -4.761  23.979  0.00  0.00    -0.133 S 
ATOM      7  C   UNL     1       5.200  -3.798  25.427  0.00  0.00    +0.178 C 
ATOM      8  N   UNL     1       6.434  -3.074  25.123  0.00  0.00    -0.277 N 
ATOM      9  C   UNL     1       6.614  -1.716  25.444  0.00  0.00    +0.247 C 
ATOM     10  O   UNL     1       7.527  -1.047  24.965  0.00  0.00    -0.273 OA
BRANCH   2  13
ATOM     11  N   UNL     1       8.487  -2.262  22.559  0.00  0.00    -0.310 N 
ATOM     12  H   UNL     1       7.677  -2.300  21.955  0.00  0.00    +0.149 HD
ATOM     13  C   UNL     1       8.577  -3.258  23.520  0.00  0.00    +0.235 C 
ATOM     14  O   UNL     1       9.641  -3.545  24.069  0.00  0.00    -0.274 OA
BRANCH  11  15
ATOM     15  C   UNL     1       9.666  -1.611  22.007  0.00  0.00    +0.139 C 
BRANCH  15  18
ATOM     16  C   UNL     1       8.607   1.075  20.899  0.00  0.00    +0.044 C 
ATOM     17  C   UNL     1       9.465   0.973  22.133  0.00  0.00    -0.046 A 
ATOM     18  C   UNL     1       9.918  -0.260  22.654  0.00  0.00    -0.027 A 
ATOM     19  C   UNL     1      10.709  -0.240  23.821  0.00  0.00    +0.005 A 
ATOM     20  C   UNL     1      11.039   0.956  24.462  0.00  0.00    +0.000 A 
ATOM     21  C   UNL     1      10.586   2.162  23.945  0.00  0.00    +0.000 A 
ATOM     22  C   UNL     1       9.807   2.168  22.793  0.00  0.00    +0.003 A 
ENDBRANCH  15  18
ENDBRANCH  11  15
ENDBRANCH   2  13
ENDBRANCH   1   9
BRANCH   1  23
ATOM     23  O   UNL     1       6.444  -0.848  27.705  0.00  0.00    -0.381 OA
ATOM     24  H   UNL     1       6.354   0.096  27.908  0.00  0.00    +0.211 HD
ENDBRANCH   1  23
BRANCH   1  25
ATOM     25  C   UNL     1       4.812   0.130  26.216  0.00  0.00    +0.115 C 
BRANCH  25  26
ATOM     26  N   UNL     1       5.725   1.262  25.896  0.00  0.00    -0.305 N 
ATOM     27  H   UNL     1       6.648   1.246  26.310  0.00  0.00    +0.149 HD
ATOM     28  C   UNL     1       5.424   2.205  24.928  0.00  0.00    +0.245 C 
ATOM     29  O   UNL     1       4.379   2.182  24.287  0.00  0.00    -0.270 OA
BRANCH  28  30
ATOM     30  C   UNL     1       6.434   3.276  24.684  0.00  0.00    +0.043 A 
ATOM     31  C   UNL     1       6.649   3.790  23.384  0.00  0.00    +0.003 A 
ATOM     32  C   UNL     1       5.910   3.249  22.187  0.00  0.00    +0.048 C 
ATOM     33  C   UNL     1       7.590   4.819  23.228  0.00  0.00    +0.120 A 
ATOM     34  C   UNL     1       8.309   5.324  24.311  0.00  0.00    +0.046 A 
ATOM     35  C   UNL     1       8.079   4.821  25.589  0.00  0.00    +0.004 A 
ATOM     36  C   UNL     1       7.137   3.810  25.779  0.00  0.00    +0.013 A 
BRANCH  33  37
ATOM     37  O   UNL     1       7.806   5.338  21.981  0.00  0.00    -0.506 OA
ATOM     38  H   UNL     1       7.051   5.894  21.731  0.00  0.00    +0.292 HD
ENDBRANCH  33  37
ENDBRANCH  28  30
ENDBRANCH  25  26
BRANCH  25  39
ATOM     39  C   UNL     1       3.824   0.544  27.329  0.00  0.00    +0.060 C 
BRANCH  39  40
ATOM     40  C   UNL     1       4.085   1.900  27.975  0.00  0.00    -0.046 A 
ATOM     41  C   UNL     1       3.287   3.005  27.637  0.00  0.00    +0.004 A 
ATOM     42  C   UNL     1       3.598   4.285  28.101  0.00  0.00    +0.000 A 
ATOM     43  C   UNL     1       4.708   4.479  28.922  0.00  0.00    +0.000 A 
ATOM     44  C   UNL     1       5.483   3.386  29.304  0.00  0.00    +0.000 A 
ATOM     45  C   UNL     1       5.174   2.103  28.835  0.00  0.00    +0.004 A 
ENDBRANCH  39  40
ENDBRANCH  25  39
ENDBRANCH   1  25
TORSDOF 11
ENDMDL
MODEL 7
REMARK VINA RESULT:      -6.1      2.109      3.351
REMARK  Name = 
REMARK  15 active torsions:
REMARK  status: ('A' for Active; 'I' for Inactive)
REMARK    1  A    between atoms: C_1  and  C_2
REMARK    2  A    between atoms: C_7  and  C_8
REMARK    3  A    between atoms: C_8  and  N_9
REMARK    4  A    between atoms: C_10  and  C_12
REMARK    5  A    between atoms: C_17  and  C_18
REMARK    6  A    between atoms: C_17  and  C_19
REMARK    7  A    between atoms: C_20  and  C_22
REMARK    8  A    between atoms: C_22  and  O_24
REMARK    9  A    between atoms: C_22  and  C_25
REMARK   10  A    between atoms: C_25  and  C_27
REMARK   11  A    between atoms: C_25  and  N_34
REMARK   12  A    between atoms: C_27  and  C_28
REMARK   13  A    between atoms: C_35  and  C_37
REMARK   14  A    between atoms: C_41  and  O_42
REMARK   15  A    between atoms: C_43  and  C_44
REMARK                            x       y       z     vdW  Elec       q    Type
REMARK                         _______ _______ _______ _____ _____    ______ ____
ROOT
ATOM      1  C   UNL     1       5.731  -1.223  26.500  0.00  0.00    +0.220 C 
ENDROOT
BRANCH   1   9
ATOM      2  C   UNL     1       7.371  -3.796  24.022  0.00  0.00    +0.178 C 
ATOM      3  C   UNL     1       6.355  -4.272  22.946  0.00  0.00    +0.040 C 
ATOM      4  C   UNL     1       6.813  -5.475  22.115  0.00  0.00    +0.025 C 
ATOM      5  C   UNL     1       5.805  -3.143  22.071  0.00  0.00    +0.025 C 
ATOM      6  S   UNL     1       4.951  -4.886  23.970  0.00  0.00    -0.133 S 
ATOM      7  C   UNL     1       5.381  -3.898  25.412  0.00  0.00    +0.178 C 
ATOM      8  N   UNL     1       6.582  -3.125  25.100  0.00  0.00    -0.277 N 
ATOM      9  C   UNL     1       6.707  -1.760  25.413  0.00  0.00    +0.247 C 
ATOM     10  O   UNL     1       7.591  -1.056  24.928  0.00  0.00    -0.273 OA
BRANCH   2  13
ATOM     11  N   UNL     1       8.593  -2.237  22.531  0.00  0.00    -0.310 N 
ATOM     12  H   UNL     1       7.781  -2.307  21.931  0.00  0.00    +0.149 HD
ATOM     13  C   UNL     1       8.726  -3.229  23.491  0.00  0.00    +0.235 C 
ATOM     14  O   UNL     1       9.803  -3.475  24.034  0.00  0.00    -0.274 OA
BRANCH  11  15
ATOM     15  C   UNL     1       9.742  -1.541  21.972  0.00  0.00    +0.139 C 
BRANCH  15  18
ATOM     16  C   UNL     1       8.584   1.120  20.906  0.00  0.00    +0.044 C 
ATOM     17  C   UNL     1       9.458   1.033  22.130  0.00  0.00    -0.046 A 
ATOM     18  C   UNL     1       9.956  -0.190  22.633  0.00  0.00    -0.027 A 
ATOM     19  C   UNL     1      10.759  -0.157  23.792  0.00  0.00    +0.005 A 
ATOM     20  C   UNL     1      11.056   1.043  24.443  0.00  0.00    +0.000 A 
ATOM     21  C   UNL     1      10.558   2.238  23.944  0.00  0.00    +0.000 A 
ATOM     22  C   UNL     1       9.766   2.231  22.800  0.00  0.00    +0.003 A 
ENDBRANCH  15  18
ENDBRANCH  11  15
ENDBRANCH   2  13
ENDBRANCH   1   9
BRANCH   1  23
ATOM     23  O   UNL     1       6.501  -0.941  27.690  0.00  0.00    -0.381 OA
ATOM     24  H   UNL     1       5.910  -0.563  28.360  0.00  0.00    +0.211 HD
ENDBRANCH   1  23
BRANCH   1  25
ATOM     25  C   UNL     1       4.875   0.049  26.202  0.00  0.00    +0.115 C 
BRANCH  25  26
ATOM     26  N   UNL     1       5.775   1.178  25.838  0.00  0.00    -0.305 N 
ATOM     27  H   UNL     1       6.751   1.095  26.092  0.00  0.00    +0.149 HD
ATOM     28  C   UNL     1       5.366   2.217  25.020  0.00  0.00    +0.245 C 
ATOM     29  O   UNL     1       4.232   2.286  24.559  0.00  0.00    -0.270 OA
BRANCH  28  30
ATOM     30  C   UNL     1       6.372   3.274  24.709  0.00  0.00    +0.043 A 
ATOM     31  C   UNL     1       6.541   3.751  23.388  0.00  0.00    +0.003 A 
ATOM     32  C   UNL     1       5.755   3.183  22.235  0.00  0.00    +0.048 C 
ATOM     33  C   UNL     1       7.480   4.770  23.168  0.00  0.00    +0.120 A 
ATOM     34  C   UNL     1       8.242   5.300  24.210  0.00  0.00    +0.046 A 
ATOM     35  C   UNL     1       8.057   4.833  25.508  0.00  0.00    +0.004 A 
ATOM     36  C   UNL     1       7.118   3.834  25.761  0.00  0.00    +0.013 A 
BRANCH  33  37
ATOM     37  O   UNL     1       7.652   5.253  21.900  0.00  0.00    -0.506 OA
ATOM     38  H   UNL     1       7.438   4.555  21.260  0.00  0.00    +0.292 HD
ENDBRANCH  33  37
ENDBRANCH  28  30
ENDBRANCH  25  26
BRANCH  25  39
ATOM     39  C   UNL     1       3.926   0.474  27.345  0.00  0.00    +0.060 C 
BRANCH  39  40
ATOM     40  C   UNL     1       3.055  -0.633  27.929  0.00  0.00    -0.046 A 
ATOM     41  C   UNL     1       3.251  -1.057  29.254  0.00  0.00    +0.004 A 
ATOM     42  C   UNL     1       2.568  -2.164  29.762  0.00  0.00    +0.000 A 
ATOM     43  C   UNL     1       1.667  -2.859  28.956  0.00  0.00    +0.000 A 
ATOM     44  C   UNL     1       1.427  -2.423  27.655  0.00  0.00    +0.000 A 
ATOM     45  C   UNL     1       2.115  -1.315  27.143  0.00  0.00    +0.004 A 
ENDBRANCH  39  40
ENDBRANCH  25  39
ENDBRANCH   1  25
TORSDOF 11
ENDMDL
MODEL 8
REMARK VINA RESULT:      -6.0      2.750      6.258
REMARK  Name = 
REMARK  15 active torsions:
REMARK  status: ('A' for Active; 'I' for Inactive)
REMARK    1  A    between atoms: C_1  and  C_2
REMARK    2  A    between atoms: C_7  and  C_8
REMARK    3  A    between atoms: C_8  and  N_9
REMARK    4  A    between atoms: C_10  and  C_12
REMARK    5  A    between atoms: C_17  and  C_18
REMARK    6  A    between atoms: C_17  and  C_19
REMARK    7  A    between atoms: C_20  and  C_22
REMARK    8  A    between atoms: C_22  and  O_24
REMARK    9  A    between atoms: C_22  and  C_25
REMARK   10  A    between atoms: C_25  and  C_27
REMARK   11  A    between atoms: C_25  and  N_34
REMARK   12  A    between atoms: C_27  and  C_28
REMARK   13  A    between atoms: C_35  and  C_37
REMARK   14  A    between atoms: C_41  and  O_42
REMARK   15  A    between atoms: C_43  and  C_44
REMARK                            x       y       z     vdW  Elec       q    Type
REMARK                         _______ _______ _______ _____ _____    ______ ____
ROOT
ATOM      1  C   UNL     1       3.258  -2.398  27.576  0.00  0.00    +0.220 C 
ENDROOT
BRANCH   1   9
ATOM      2  C   UNL     1       4.998   1.082  27.017  0.00  0.00    +0.178 C 
ATOM      3  C   UNL     1       6.298   1.207  27.859  0.00  0.00    +0.040 C 
ATOM      4  C   UNL     1       6.890   2.619  27.925  0.00  0.00    +0.025 C 
ATOM      5  C   UNL     1       7.357   0.154  27.525  0.00  0.00    +0.025 C 
ATOM      6  S   UNL     1       5.702   0.842  29.565  0.00  0.00    -0.133 S 
ATOM      7  C   UNL     1       4.254  -0.076  29.019  0.00  0.00    +0.178 C 
ATOM      8  N   UNL     1       4.239  -0.087  27.557  0.00  0.00    -0.277 N 
ATOM      9  C   UNL     1       3.978  -1.250  26.810  0.00  0.00    +0.247 C 
ATOM     10  O   UNL     1       4.218  -1.323  25.606  0.00  0.00    -0.273 OA
BRANCH   2  13
ATOM     11  N   UNL     1       6.225   0.750  24.888  0.00  0.00    -0.310 N 
ATOM     12  H   UNL     1       7.040   0.623  25.475  0.00  0.00    +0.149 HD
ATOM     13  C   UNL     1       5.135   1.365  25.487  0.00  0.00    +0.235 C 
ATOM     14  O   UNL     1       4.239   1.894  24.829  0.00  0.00    -0.274 OA
BRANCH  11  15
ATOM     15  C   UNL     1       6.475   0.839  23.458  0.00  0.00    +0.139 C 
BRANCH  15  18
ATOM     16  C   UNL     1       6.334  -2.176  22.786  0.00  0.00    +0.044 C 
ATOM     17  C   UNL     1       7.617  -1.387  22.768  0.00  0.00    -0.046 A 
ATOM     18  C   UNL     1       7.671  -0.001  23.043  0.00  0.00    -0.027 A 
ATOM     19  C   UNL     1       8.925   0.641  22.989  0.00  0.00    +0.005 A 
ATOM     20  C   UNL     1      10.092  -0.057  22.666  0.00  0.00    +0.000 A 
ATOM     21  C   UNL     1      10.028  -1.416  22.393  0.00  0.00    +0.000 A 
ATOM     22  C   UNL     1       8.802  -2.072  22.443  0.00  0.00    +0.003 A 
ENDBRANCH  15  18
ENDBRANCH  11  15
ENDBRANCH   2  13
ENDBRANCH   1   9
BRANCH   1  23
ATOM     23  O   UNL     1       1.984  -1.896  28.037  0.00  0.00    -0.381 OA
ATOM     24  H   UNL     1       2.107  -1.488  28.908  0.00  0.00    +0.211 HD
ENDBRANCH   1  23
BRANCH   1  25
ATOM     25  C   UNL     1       2.975  -3.749  26.845  0.00  0.00    +0.115 C 
BRANCH  25  26
ATOM     26  N   UNL     1       4.056  -4.011  25.855  0.00  0.00    -0.305 N 
ATOM     27  H   UNL     1       4.347  -3.240  25.269  0.00  0.00    +0.149 HD
ATOM     28  C   UNL     1       4.782  -5.190  25.846  0.00  0.00    +0.245 C 
ATOM     29  O   UNL     1       4.569  -6.101  26.639  0.00  0.00    -0.270 OA
BRANCH  28  30
ATOM     30  C   UNL     1       5.857  -5.320  24.819  0.00  0.00    +0.043 A 
ATOM     31  C   UNL     1       7.204  -5.030  25.135  0.00  0.00    +0.003 A 
ATOM     32  C   UNL     1       7.607  -4.532  26.499  0.00  0.00    +0.048 C 
ATOM     33  C   UNL     1       8.171  -5.204  24.133  0.00  0.00    +0.120 A 
ATOM     34  C   UNL     1       7.827  -5.639  22.853  0.00  0.00    +0.046 A 
ATOM     35  C   UNL     1       6.500  -5.935  22.556  0.00  0.00    +0.004 A 
ATOM     36  C   UNL     1       5.519  -5.789  23.536  0.00  0.00    +0.013 A 
BRANCH  33  37
ATOM     37  O   UNL     1       9.481  -4.940  24.421  0.00  0.00    -0.506 OA
ATOM     38  H   UNL     1       9.928  -5.766  24.670  0.00  0.00    +0.292 HD
ENDBRANCH  33  37
ENDBRANCH  28  30
ENDBRANCH  25  26
BRANCH  25  39
ATOM     39  C   UNL     1       1.594  -3.838  26.158  0.00  0.00    +0.060 C 
BRANCH  39  40
ATOM     40  C   UNL     1       1.408  -5.005  25.194  0.00  0.00    -0.046 A 
ATOM     41  C   UNL     1       1.211  -6.303  25.691  0.00  0.00    +0.004 A 
ATOM     42  C   UNL     1       1.185  -7.405  24.834  0.00  0.00    +0.000 A 
ATOM     43  C   UNL     1       1.346  -7.225  23.460  0.00  0.00    +0.000 A 
ATOM     44  C   UNL     1       1.497  -5.938  22.947  0.00  0.00    +0.000 A 
ATOM     45  C   UNL     1       1.527  -4.832  23.807  0.00  0.00    +0.004 A 
ENDBRANCH  39  40
ENDBRANCH  25  39
ENDBRANCH   1  25
TORSDOF 11
ENDMDL
MODEL 9
REMARK VINA RESULT:      -5.9      3.151      7.408
REMARK  Name = 
REMARK  15 active torsions:
REMARK  status: ('A' for Active; 'I' for Inactive)
REMARK    1  A    between atoms: C_1  and  C_2
REMARK    2  A    between atoms: C_7  and  C_8
REMARK    3  A    between atoms: C_8  and  N_9
REMARK    4  A    between atoms: C_10  and  C_12
REMARK    5  A    between atoms: C_17  and  C_18
REMARK    6  A    between atoms: C_17  and  C_19
REMARK    7  A    between atoms: C_20  and  C_22
REMARK    8  A    between atoms: C_22  and  O_24
REMARK    9  A    between atoms: C_22  and  C_25
REMARK   10  A    between atoms: C_25  and  C_27
REMARK   11  A    between atoms: C_25  and  N_34
REMARK   12  A    between atoms: C_27  and  C_28
REMARK   13  A    between atoms: C_35  and  C_37
REMARK   14  A    between atoms: C_41  and  O_42
REMARK   15  A    between atoms: C_43  and  C_44
REMARK                            x       y       z     vdW  Elec       q    Type
REMARK                         _______ _______ _______ _____ _____    ______ ____
ROOT
ATOM      1  C   UNL     1       4.355  -1.560  26.409  0.00  0.00    +0.220 C 
ENDROOT
BRANCH   1   9
ATOM      2  C   UNL     1       4.905   1.974  28.037  0.00  0.00    +0.178 C 
ATOM      3  C   UNL     1       5.811   1.884  29.297  0.00  0.00    +0.040 C 
ATOM      4  C   UNL     1       5.852   3.153  30.154  0.00  0.00    +0.025 C 
ATOM      5  C   UNL     1       7.211   1.333  29.015  0.00  0.00    +0.025 C 
ATOM      6  S   UNL     1       4.938   0.625  30.323  0.00  0.00    -0.133 S 
ATOM      7  C   UNL     1       4.086  -0.132  28.929  0.00  0.00    +0.178 C 
ATOM      8  N   UNL     1       4.468   0.583  27.712  0.00  0.00    -0.277 N 
ATOM      9  C   UNL     1       4.824  -0.081  26.524  0.00  0.00    +0.247 C 
ATOM     10  O   UNL     1       5.388   0.497  25.596  0.00  0.00    -0.273 OA
BRANCH   2  13
ATOM     11  N   UNL     1       6.684   2.921  26.593  0.00  0.00    -0.310 N 
ATOM     12  H   UNL     1       7.317   2.632  27.326  0.00  0.00    +0.149 HD
ATOM     13  C   UNL     1       5.344   2.999  26.943  0.00  0.00    +0.235 C 
ATOM     14  O   UNL     1       4.534   3.656  26.290  0.00  0.00    -0.274 OA
BRANCH  11  15
ATOM     15  C   UNL     1       7.258   3.745  25.541  0.00  0.00    +0.139 C 
BRANCH  15  18
ATOM     16  C   UNL     1       9.288   5.218  23.732  0.00  0.00    +0.044 C 
ATOM     17  C   UNL     1       9.390   3.752  24.062  0.00  0.00    -0.046 A 
ATOM     18  C   UNL     1       8.479   3.091  24.917  0.00  0.00    -0.027 A 
ATOM     19  C   UNL     1       8.674   1.717  25.165  0.00  0.00    +0.005 A 
ATOM     20  C   UNL     1       9.738   1.013  24.596  0.00  0.00    +0.000 A 
ATOM     21  C   UNL     1      10.631   1.672  23.762  0.00  0.00    +0.000 A 
ATOM     22  C   UNL     1      10.457   3.027  23.499  0.00  0.00    +0.003 A 
ENDBRANCH  15  18
ENDBRANCH  11  15
ENDBRANCH   2  13
ENDBRANCH   1   9
BRANCH   1  23
ATOM     23  O   UNL     1       2.934  -1.558  26.152  0.00  0.00    -0.381 OA
ATOM     24  H   UNL     1       2.478  -1.943  26.916  0.00  0.00    +0.211 HD
ENDBRANCH   1  23
BRANCH   1  25
ATOM     25  C   UNL     1       5.009  -2.491  25.339  0.00  0.00    +0.115 C 
BRANCH  25  26
ATOM     26  N   UNL     1       4.153  -3.694  25.141  0.00  0.00    -0.305 N 
ATOM     27  H   UNL     1       3.553  -3.970  25.907  0.00  0.00    +0.149 HD
ATOM     28  C   UNL     1       4.017  -4.311  23.909  0.00  0.00    +0.245 C 
ATOM     29  O   UNL     1       4.608  -3.921  22.907  0.00  0.00    -0.270 OA
BRANCH  28  30
ATOM     30  C   UNL     1       3.109  -5.493  23.836  0.00  0.00    +0.043 A 
ATOM     31  C   UNL     1       3.443  -6.708  24.478  0.00  0.00    +0.003 A 
ATOM     32  C   UNL     1       4.745  -6.880  25.218  0.00  0.00    +0.048 C 
ATOM     33  C   UNL     1       2.531  -7.771  24.398  0.00  0.00    +0.120 A 
ATOM     34  C   UNL     1       1.329  -7.652  23.700  0.00  0.00    +0.046 A 
ATOM     35  C   UNL     1       1.003  -6.447  23.084  0.00  0.00    +0.004 A 
ATOM     36  C   UNL     1       1.882  -5.367  23.160  0.00  0.00    +0.013 A 
BRANCH  33  37
ATOM     37  O   UNL     1       2.830  -8.951  25.021  0.00  0.00    -0.506 OA
ATOM     38  H   UNL     1       2.712  -9.683  24.394  0.00  0.00    +0.292 HD
ENDBRANCH  33  37
ENDBRANCH  28  30
ENDBRANCH  25  26
BRANCH  25  39
ATOM     39  C   UNL     1       6.460  -2.920  25.652  0.00  0.00    +0.060 C 
BRANCH  39  40
ATOM     40  C   UNL     1       7.513  -2.479  24.640  0.00  0.00    -0.046 A 
ATOM     41  C   UNL     1       7.128  -1.776  23.487  0.00  0.00    +0.004 A 
ATOM     42  C   UNL     1       8.050  -1.492  22.477  0.00  0.00    +0.000 A 
ATOM     43  C   UNL     1       9.378  -1.897  22.611  0.00  0.00    +0.000 A 
ATOM     44  C   UNL     1       9.785  -2.555  23.769  0.00  0.00    +0.000 A 
ATOM     45  C   UNL     1       8.860  -2.845  24.781  0.00  0.00    +0.004 A 
ENDBRANCH  39  40
ENDBRANCH  25  39
ENDBRANCH   1  25
TORSDOF 11
ENDMDL
