MODEL 1
REMARK VINA RESULT:      -5.6      0.000      0.000
REMARK  Name = 
REMARK  7 active torsions:
REMARK  status: ('A' for Active; 'I' for Inactive)
REMARK    1  A    between atoms: C_1  and  C_2
REMARK    2  A    between atoms: C_2  and  N_3
REMARK    3  A    between atoms: C_2  and  C_4
REMARK    4  A    between atoms: C_2  and  C_7
REMARK    5  A    between atoms: C_4  and  O_5
REMARK    6  A    between atoms: C_10  and  C_13
REMARK    7  A    between atoms: C_13  and  O_14
REMARK                            x       y       z     vdW  Elec       q    Type
REMARK                         _______ _______ _______ _____ _____    ______ ____
ROOT
ATOM      1  C   UNL     1       8.963  -3.313  25.033  0.00  0.00    -0.017 A 
ATOM      2  C   UNL     1       9.668  -2.741  23.957  0.00  0.00    +0.007 A 
ATOM      3  C   UNL     1       9.955  -1.372  23.913  0.00  0.00    +0.015 A 
ATOM      4  C   UNL     1       9.526  -0.531  24.938  0.00  0.00    +0.059 A 
ATOM      5  C   UNL     1       8.833  -1.072  26.024  0.00  0.00    +0.015 A 
ATOM      6  C   UNL     1       8.542  -2.444  26.061  0.00  0.00    +0.007 A 
ENDROOT
BRANCH   1   8
ATOM      7  C   UNL     1       8.003  -5.306  23.716  0.00  0.00    +0.045 C 
ATOM      8  C   UNL     1       8.621  -4.811  25.038  0.00  0.00    +0.137 C 
BRANCH   8   9
ATOM      9  N   UNL     1       9.828  -5.681  25.243  0.00  0.00    -0.312 NA
ATOM     10  H   UNL     1      10.054  -5.658  26.242  0.00  0.00    +0.120 HD
ATOM     11  H   UNL     1       9.577  -6.651  25.046  0.00  0.00    +0.120 HD
ENDBRANCH   8   9
BRANCH   8  12
ATOM     12  C   UNL     1       7.602  -5.159  26.166  0.00  0.00    +0.329 C 
ATOM     13  O   UNL     1       6.391  -5.021  26.115  0.00  0.00    -0.249 OA
BRANCH  12  14
ATOM     14  O   UNL     1       8.237  -5.697  27.249  0.00  0.00    -0.479 OA
ATOM     15  H   UNL     1       7.638  -6.394  27.614  0.00  0.00    +0.295 HD
ENDBRANCH  12  14
ENDBRANCH   8  12
ENDBRANCH   1   8
BRANCH   4  16
ATOM     16  C   UNL     1       9.853   0.912  24.844  0.00  0.00    +0.337 C 
ATOM     17  O   UNL     1      10.886   1.326  24.345  0.00  0.00    -0.245 OA
BRANCH  16  18
ATOM     18  O   UNL     1       8.884   1.722  25.320  0.00  0.00    -0.477 OA
ATOM     19  H   UNL     1       9.003   2.008  26.243  0.00  0.00    +0.295 HD
ENDBRANCH  16  18
ENDBRANCH   4  16
TORSDOF 6
ENDMDL
MODEL 2
REMARK VINA RESULT:      -5.5      1.865      2.143
REMARK  Name = 
REMARK  7 active torsions:
REMARK  status: ('A' for Active; 'I' for Inactive)
REMARK    1  A    between atoms: C_1  and  C_2
REMARK    2  A    between atoms: C_2  and  N_3
REMARK    3  A    between atoms: C_2  and  C_4
REMARK    4  A    between atoms: C_2  and  C_7
REMARK    5  A    between atoms: C_4  and  O_5
REMARK    6  A    between atoms: C_10  and  C_13
REMARK    7  A    between atoms: C_13  and  O_14
REMARK                            x       y       z     vdW  Elec       q    Type
REMARK                         _______ _______ _______ _____ _____    ______ ____
ROOT
ATOM      1  C   UNL     1       9.170  -2.777  24.021  0.00  0.00    -0.017 A 
ATOM      2  C   UNL     1       8.608  -2.546  22.751  0.00  0.00    +0.007 A 
ATOM      3  C   UNL     1       8.763  -1.323  22.091  0.00  0.00    +0.015 A 
ATOM      4  C   UNL     1       9.471  -0.284  22.693  0.00  0.00    +0.059 A 
ATOM      5  C   UNL     1      10.050  -0.486  23.949  0.00  0.00    +0.015 A 
ATOM      6  C   UNL     1       9.885  -1.713  24.610  0.00  0.00    +0.007 A 
ENDROOT
BRANCH   1   8
ATOM      7  C   UNL     1       7.911  -5.022  24.057  0.00  0.00    +0.045 C 
ATOM      8  C   UNL     1       8.948  -4.113  24.746  0.00  0.00    +0.137 C 
BRANCH   8   9
ATOM      9  N   UNL     1      10.196  -4.946  24.820  0.00  0.00    -0.312 NA
ATOM     10  H   UNL     1       9.988  -5.755  25.412  0.00  0.00    +0.120 HD
ATOM     11  H   UNL     1      10.395  -5.331  23.896  0.00  0.00    +0.120 HD
ENDBRANCH   8   9
BRANCH   8  12
ATOM     12  C   UNL     1       8.451  -3.893  26.207  0.00  0.00    +0.329 C 
ATOM     13  O   UNL     1       7.518  -3.188  26.556  0.00  0.00    -0.249 OA
BRANCH  12  14
ATOM     14  O   UNL     1       9.177  -4.641  27.089  0.00  0.00    -0.479 OA
ATOM     15  H   UNL     1      10.088  -4.257  27.107  0.00  0.00    +0.295 HD
ENDBRANCH  12  14
ENDBRANCH   8  12
ENDBRANCH   1   8
BRANCH   4  16
ATOM     16  C   UNL     1       9.605   0.994  21.954  0.00  0.00    +0.337 C 
ATOM     17  O   UNL     1      10.373   1.878  22.293  0.00  0.00    -0.245 OA
BRANCH  16  18
ATOM     18  O   UNL     1       8.834   1.068  20.849  0.00  0.00    -0.477 OA
ATOM     19  H   UNL     1       9.034   1.814  20.256  0.00  0.00    +0.295 HD
ENDBRANCH  16  18
ENDBRANCH   4  16
TORSDOF 6
ENDMDL
MODEL 3
REMARK VINA RESULT:      -5.5      2.054      2.529
REMARK  Name = 
REMARK  7 active torsions:
REMARK  status: ('A' for Active; 'I' for Inactive)
REMARK    1  A    between atoms: C_1  and  C_2
REMARK    2  A    between atoms: C_2  and  N_3
REMARK    3  A    between atoms: C_2  and  C_4
REMARK    4  A    between atoms: C_2  and  C_7
REMARK    5  A    between atoms: C_4  and  O_5
REMARK    6  A    between atoms: C_10  and  C_13
REMARK    7  A    between atoms: C_13  and  O_14
REMARK                            x       y       z     vdW  Elec       q    Type
REMARK                         _______ _______ _______ _____ _____    ______ ____
ROOT
ATOM      1  C   UNL     1       8.609  -2.997  23.771  0.00  0.00    -0.017 A 
ATOM      2  C   UNL     1       7.615  -2.139  23.261  0.00  0.00    +0.007 A 
ATOM      3  C   UNL     1       7.934  -0.892  22.714  0.00  0.00    +0.015 A 
ATOM      4  C   UNL     1       9.257  -0.457  22.679  0.00  0.00    +0.059 A 
ATOM      5  C   UNL     1      10.267  -1.290  23.168  0.00  0.00    +0.015 A 
ATOM      6  C   UNL     1       9.942  -2.538  23.721  0.00  0.00    +0.007 A 
ENDROOT
BRANCH   1   8
ATOM      7  C   UNL     1       6.798  -4.376  24.972  0.00  0.00    +0.045 C 
ATOM      8  C   UNL     1       8.231  -4.343  24.407  0.00  0.00    +0.137 C 
BRANCH   8   9
ATOM      9  N   UNL     1       8.282  -5.482  23.429  0.00  0.00    -0.312 NA
ATOM     10  H   UNL     1       7.329  -5.842  23.330  0.00  0.00    +0.120 HD
ATOM     11  H   UNL     1       8.530  -5.118  22.507  0.00  0.00    +0.120 HD
ENDBRANCH   8   9
BRANCH   8  12
ATOM     12  C   UNL     1       9.186  -4.704  25.587  0.00  0.00    +0.329 C 
ATOM     13  O   UNL     1       9.146  -4.244  26.716  0.00  0.00    -0.249 OA
BRANCH  12  14
ATOM     14  O   UNL     1      10.084  -5.662  25.214  0.00  0.00    -0.479 OA
ATOM     15  H   UNL     1       9.640  -6.536  25.344  0.00  0.00    +0.295 HD
ENDBRANCH  12  14
ENDBRANCH   8  12
ENDBRANCH   1   8
BRANCH   4  16
ATOM     16  C   UNL     1       9.543   0.875  22.091  0.00  0.00    +0.337 C 
ATOM     17  O   UNL     1      10.313   1.672  22.599  0.00  0.00    -0.245 OA
BRANCH  16  18
ATOM     18  O   UNL     1       8.906   1.102  20.923  0.00  0.00    -0.477 OA
ATOM     19  H   UNL     1       9.045   0.422  20.239  0.00  0.00    +0.295 HD
ENDBRANCH  16  18
ENDBRANCH   4  16
TORSDOF 6
ENDMDL
MODEL 4
REMARK VINA RESULT:      -5.4      3.057      6.289
REMARK  Name = 
REMARK  7 active torsions:
REMARK  status: ('A' for Active; 'I' for Inactive)
REMARK    1  A    between atoms: C_1  and  C_2
REMARK    2  A    between atoms: C_2  and  N_3
REMARK    3  A    between atoms: C_2  and  C_4
REMARK    4  A    between atoms: C_2  and  C_7
REMARK    5  A    between atoms: C_4  and  O_5
REMARK    6  A    between atoms: C_10  and  C_13
REMARK    7  A    between atoms: C_13  and  O_14
REMARK                            x       y       z     vdW  Elec       q    Type
REMARK                         _______ _______ _______ _____ _____    ______ ____
ROOT
ATOM      1  C   UNL     1       6.992  -5.035  25.224  0.00  0.00    -0.017 A 
ATOM      2  C   UNL     1       6.026  -5.719  25.987  0.00  0.00    +0.007 A 
ATOM      3  C   UNL     1       4.856  -6.222  25.408  0.00  0.00    +0.015 A 
ATOM      4  C   UNL     1       4.609  -6.037  24.049  0.00  0.00    +0.059 A 
ATOM      5  C   UNL     1       5.555  -5.372  23.264  0.00  0.00    +0.015 A 
ATOM      6  C   UNL     1       6.723  -4.863  23.850  0.00  0.00    +0.007 A 
ENDROOT
BRANCH   1   8
ATOM      7  C   UNL     1       8.075  -2.996  26.364  0.00  0.00    +0.045 C 
ATOM      8  C   UNL     1       8.248  -4.452  25.891  0.00  0.00    +0.137 C 
BRANCH   8   9
ATOM      9  N   UNL     1       8.654  -5.209  27.123  0.00  0.00    -0.312 NA
ATOM     10  H   UNL     1       9.608  -4.921  27.357  0.00  0.00    +0.120 HD
ATOM     11  H   UNL     1       8.079  -4.900  27.908  0.00  0.00    +0.120 HD
ENDBRANCH   8   9
BRANCH   8  12
ATOM     12  C   UNL     1       9.467  -4.465  24.918  0.00  0.00    +0.329 C 
ATOM     13  O   UNL     1       9.851  -3.535  24.227  0.00  0.00    -0.249 OA
BRANCH  12  14
ATOM     14  O   UNL     1      10.111  -5.668  24.955  0.00  0.00    -0.479 OA
ATOM     15  H   UNL     1       9.621  -6.274  24.347  0.00  0.00    +0.295 HD
ENDBRANCH  12  14
ENDBRANCH   8  12
ENDBRANCH   1   8
BRANCH   4  16
ATOM     16  C   UNL     1       3.354  -6.587  23.483  0.00  0.00    +0.337 C 
ATOM     17  O   UNL     1       2.618  -5.944  22.754  0.00  0.00    -0.245 OA
BRANCH  16  18
ATOM     18  O   UNL     1       3.127  -7.876  23.813  0.00  0.00    -0.477 OA
ATOM     19  H   UNL     1       3.920  -8.381  24.069  0.00  0.00    +0.295 HD
ENDBRANCH  16  18
ENDBRANCH   4  16
TORSDOF 6
ENDMDL
MODEL 5
REMARK VINA RESULT:      -5.3      2.756      6.096
REMARK  Name = 
REMARK  7 active torsions:
REMARK  status: ('A' for Active; 'I' for Inactive)
REMARK    1  A    between atoms: C_1  and  C_2
REMARK    2  A    between atoms: C_2  and  N_3
REMARK    3  A    between atoms: C_2  and  C_4
REMARK    4  A    between atoms: C_2  and  C_7
REMARK    5  A    between atoms: C_4  and  O_5
REMARK    6  A    between atoms: C_10  and  C_13
REMARK    7  A    between atoms: C_13  and  O_14
REMARK                            x       y       z     vdW  Elec       q    Type
REMARK                         _______ _______ _______ _____ _____    ______ ____
ROOT
ATOM      1  C   UNL     1       9.453  -0.140  24.070  0.00  0.00    -0.017 A 
ATOM      2  C   UNL     1       8.673  -0.633  25.134  0.00  0.00    +0.007 A 
ATOM      3  C   UNL     1       8.589  -2.003  25.407  0.00  0.00    +0.015 A 
ATOM      4  C   UNL     1       9.268  -2.922  24.610  0.00  0.00    +0.059 A 
ATOM      5  C   UNL     1      10.058  -2.462  23.553  0.00  0.00    +0.015 A 
ATOM      6  C   UNL     1      10.135  -1.088  23.279  0.00  0.00    +0.007 A 
ENDROOT
BRANCH   1   8
ATOM      7  C   UNL     1       8.584   2.206  24.675  0.00  0.00    +0.045 C 
ATOM      8  C   UNL     1       9.496   1.365  23.762  0.00  0.00    +0.137 C 
BRANCH   8   9
ATOM      9  N   UNL     1      10.865   1.955  23.941  0.00  0.00    -0.312 NA
ATOM     10  H   UNL     1      11.545   1.217  23.736  0.00  0.00    +0.120 HD
ATOM     11  H   UNL     1      11.017   2.668  23.226  0.00  0.00    +0.120 HD
ENDBRANCH   8   9
BRANCH   8  12
ATOM     12  C   UNL     1       9.054   1.658  22.295  0.00  0.00    +0.329 C 
ATOM     13  O   UNL     1       7.936   1.504  21.831  0.00  0.00    -0.249 OA
BRANCH  12  14
ATOM     14  O   UNL     1      10.089   2.168  21.565  0.00  0.00    -0.479 OA
ATOM     15  H   UNL     1      10.597   2.765  22.167  0.00  0.00    +0.295 HD
ENDBRANCH  12  14
ENDBRANCH   8  12
ENDBRANCH   1   8
BRANCH   4  16
ATOM     16  C   UNL     1       9.143  -4.363  24.939  0.00  0.00    +0.337 C 
ATOM     17  O   UNL     1       8.077  -4.894  25.197  0.00  0.00    -0.245 OA
BRANCH  16  18
ATOM     18  O   UNL     1      10.312  -5.036  24.883  0.00  0.00    -0.477 OA
ATOM     19  H   UNL     1      10.926  -4.857  25.617  0.00  0.00    +0.295 HD
ENDBRANCH  16  18
ENDBRANCH   4  16
TORSDOF 6
ENDMDL
MODEL 6
REMARK VINA RESULT:      -5.1      2.218      5.849
REMARK  Name = 
REMARK  7 active torsions:
REMARK  status: ('A' for Active; 'I' for Inactive)
REMARK    1  A    between atoms: C_1  and  C_2
REMARK    2  A    between atoms: C_2  and  N_3
REMARK    3  A    between atoms: C_2  and  C_4
REMARK    4  A    between atoms: C_2  and  C_7
REMARK    5  A    between atoms: C_4  and  O_5
REMARK    6  A    between atoms: C_10  and  C_13
REMARK    7  A    between atoms: C_13  and  O_14
REMARK                            x       y       z     vdW  Elec       q    Type
REMARK                         _______ _______ _______ _____ _____    ______ ____
ROOT
ATOM      1  C   UNL     1       8.969  -1.115  24.844  0.00  0.00    -0.017 A 
ATOM      2  C   UNL     1       8.394  -1.551  26.054  0.00  0.00    +0.007 A 
ATOM      3  C   UNL     1       8.342  -2.906  26.395  0.00  0.00    +0.015 A 
ATOM      4  C   UNL     1       8.846  -3.870  25.523  0.00  0.00    +0.059 A 
ATOM      5  C   UNL     1       9.432  -3.467  24.319  0.00  0.00    +0.015 A 
ATOM      6  C   UNL     1       9.476  -2.107  23.979  0.00  0.00    +0.007 A 
ENDROOT
BRANCH   1   8
ATOM      7  C   UNL     1       7.927   0.748  23.405  0.00  0.00    +0.045 C 
ATOM      8  C   UNL     1       8.975   0.376  24.472  0.00  0.00    +0.137 C 
BRANCH   8   9
ATOM      9  N   UNL     1       8.663   1.267  25.640  0.00  0.00    -0.312 NA
ATOM     10  H   UNL     1       8.932   2.219  25.378  0.00  0.00    +0.120 HD
ATOM     11  H   UNL     1       7.652   1.298  25.775  0.00  0.00    +0.120 HD
ENDBRANCH   8   9
BRANCH   8  12
ATOM     12  C   UNL     1      10.361   0.817  23.911  0.00  0.00    +0.329 C 
ATOM     13  O   UNL     1      11.412   0.861  24.530  0.00  0.00    -0.249 OA
BRANCH  12  14
ATOM     14  O   UNL     1      10.277   1.121  22.582  0.00  0.00    -0.479 OA
ATOM     15  H   UNL     1       9.387   1.526  22.438  0.00  0.00    +0.295 HD
ENDBRANCH  12  14
ENDBRANCH   8  12
ENDBRANCH   1   8
BRANCH   4  16
ATOM     16  C   UNL     1       8.765  -5.294  25.928  0.00  0.00    +0.337 C 
ATOM     17  O   UNL     1       7.794  -5.768  26.492  0.00  0.00    -0.245 OA
BRANCH  16  18
ATOM     18  O   UNL     1       9.845  -6.023  25.575  0.00  0.00    -0.477 OA
ATOM     19  H   UNL     1      10.323  -6.435  26.317  0.00  0.00    +0.295 HD
ENDBRANCH  16  18
ENDBRANCH   4  16
TORSDOF 6
ENDMDL
MODEL 7
REMARK VINA RESULT:      -5.1      2.539      5.664
REMARK  Name = 
REMARK  7 active torsions:
REMARK  status: ('A' for Active; 'I' for Inactive)
REMARK    1  A    between atoms: C_1  and  C_2
REMARK    2  A    between atoms: C_2  and  N_3
REMARK    3  A    between atoms: C_2  and  C_4
REMARK    4  A    between atoms: C_2  and  C_7
REMARK    5  A    between atoms: C_4  and  O_5
REMARK    6  A    between atoms: C_10  and  C_13
REMARK    7  A    between atoms: C_13  and  O_14
REMARK                            x       y       z     vdW  Elec       q    Type
REMARK                         _______ _______ _______ _____ _____    ______ ____
ROOT
ATOM      1  C   UNL     1       8.347  -2.265  24.267  0.00  0.00    -0.017 A 
ATOM      2  C   UNL     1       8.714  -2.448  25.614  0.00  0.00    +0.007 A 
ATOM      3  C   UNL     1       8.263  -3.545  26.355  0.00  0.00    +0.015 A 
ATOM      4  C   UNL     1       7.412  -4.484  25.773  0.00  0.00    +0.059 A 
ATOM      5  C   UNL     1       7.039  -4.335  24.434  0.00  0.00    +0.015 A 
ATOM      6  C   UNL     1       7.489  -3.229  23.698  0.00  0.00    +0.007 A 
ENDROOT
BRANCH   1   8
ATOM      7  C   UNL     1       7.678  -0.272  22.781  0.00  0.00    +0.045 C 
ATOM      8  C   UNL     1       8.820  -1.028  23.487  0.00  0.00    +0.137 C 
BRANCH   8   9
ATOM      9  N   UNL     1       9.471  -0.001  24.368  0.00  0.00    -0.312 NA
ATOM     10  H   UNL     1      10.452   0.066  24.085  0.00  0.00    +0.120 HD
ATOM     11  H   UNL     1       9.068   0.915  24.164  0.00  0.00    +0.120 HD
ENDBRANCH   8   9
BRANCH   8  12
ATOM     12  C   UNL     1       9.853  -1.412  22.383  0.00  0.00    +0.329 C 
ATOM     13  O   UNL     1      10.815  -2.151  22.517  0.00  0.00    -0.249 OA
BRANCH  12  14
ATOM     14  O   UNL     1       9.526  -0.840  21.187  0.00  0.00    -0.479 OA
ATOM     15  H   UNL     1       8.697  -1.280  20.876  0.00  0.00    +0.295 HD
ENDBRANCH  12  14
ENDBRANCH   8  12
ENDBRANCH   1   8
BRANCH   4  16
ATOM     16  C   UNL     1       6.959  -5.628  26.601  0.00  0.00    +0.337 C 
ATOM     17  O   UNL     1       5.977  -6.296  26.326  0.00  0.00    -0.245 OA
BRANCH  16  18
ATOM     18  O   UNL     1       7.759  -5.885  27.657  0.00  0.00    -0.477 OA
ATOM     19  H   UNL     1       7.583  -5.344  28.448  0.00  0.00    +0.295 HD
ENDBRANCH  16  18
ENDBRANCH   4  16
TORSDOF 6
ENDMDL
MODEL 8
REMARK VINA RESULT:      -5.1      2.922      3.975
REMARK  Name = 
REMARK  7 active torsions:
REMARK  status: ('A' for Active; 'I' for Inactive)
REMARK    1  A    between atoms: C_1  and  C_2
REMARK    2  A    between atoms: C_2  and  N_3
REMARK    3  A    between atoms: C_2  and  C_4
REMARK    4  A    between atoms: C_2  and  C_7
REMARK    5  A    between atoms: C_4  and  O_5
REMARK    6  A    between atoms: C_10  and  C_13
REMARK    7  A    between atoms: C_13  and  O_14
REMARK                            x       y       z     vdW  Elec       q    Type
REMARK                         _______ _______ _______ _____ _____    ______ ____
ROOT
ATOM      1  C   UNL     1       8.975  -0.088  23.282  0.00  0.00    -0.017 A 
ATOM      2  C   UNL     1       9.035   0.691  24.455  0.00  0.00    +0.007 A 
ATOM      3  C   UNL     1       9.624   1.959  24.463  0.00  0.00    +0.015 A 
ATOM      4  C   UNL     1      10.190   2.479  23.300  0.00  0.00    +0.059 A 
ATOM      5  C   UNL     1      10.136   1.735  22.119  0.00  0.00    +0.015 A 
ATOM      6  C   UNL     1       9.550   0.460  22.117  0.00  0.00    +0.007 A 
ENDROOT
BRANCH   1   8
ATOM      7  C   UNL     1       6.863  -1.510  23.667  0.00  0.00    +0.045 C 
ATOM      8  C   UNL     1       8.362  -1.497  23.308  0.00  0.00    +0.137 C 
BRANCH   8   9
ATOM      9  N   UNL     1       8.442  -2.188  21.977  0.00  0.00    -0.312 NA
ATOM     10  H   UNL     1       7.522  -2.109  21.536  0.00  0.00    +0.120 HD
ATOM     11  H   UNL     1       9.077  -1.668  21.369  0.00  0.00    +0.120 HD
ENDBRANCH   8   9
BRANCH   8  12
ATOM     12  C   UNL     1       9.080  -2.411  24.348  0.00  0.00    +0.329 C 
ATOM     13  O   UNL     1       8.686  -2.676  25.472  0.00  0.00    -0.249 OA
BRANCH  12  14
ATOM     14  O   UNL     1      10.225  -2.940  23.826  0.00  0.00    -0.479 OA
ATOM     15  H   UNL     1      10.956  -2.311  24.045  0.00  0.00    +0.295 HD
ENDBRANCH  12  14
ENDBRANCH   8  12
ENDBRANCH   1   8
BRANCH   4  16
ATOM     16  C   UNL     1      10.805   3.827  23.362  0.00  0.00    +0.337 C 
ATOM     17  O   UNL     1      12.010   4.006  23.357  0.00  0.00    -0.245 OA
BRANCH  16  18
ATOM     18  O   UNL     1       9.906   4.835  23.378  0.00  0.00    -0.477 OA
ATOM     19  H   UNL     1      10.291   5.729  23.339  0.00  0.00    +0.295 HD
ENDBRANCH  16  18
ENDBRANCH   4  16
TORSDOF 6
ENDMDL
MODEL 9
REMARK VINA RESULT:      -5.1      3.151      6.341
REMARK  Name = 
REMARK  7 active torsions:
REMARK  status: ('A' for Active; 'I' for Inactive)
REMARK    1  A    between atoms: C_1  and  C_2
REMARK    2  A    between atoms: C_2  and  N_3
REMARK    3  A    between atoms: C_2  and  C_4
REMARK    4  A    between atoms: C_2  and  C_7
REMARK    5  A    between atoms: C_4  and  O_5
REMARK    6  A    between atoms: C_10  and  C_13
REMARK    7  A    between atoms: C_13  and  O_14
REMARK                            x       y       z     vdW  Elec       q    Type
REMARK                         _______ _______ _______ _____ _____    ______ ____
ROOT
ATOM      1  C   UNL     1       9.399   0.504  23.237  0.00  0.00    -0.017 A 
ATOM      2  C   UNL     1       8.961  -0.375  22.227  0.00  0.00    +0.007 A 
ATOM      3  C   UNL     1       8.765  -1.737  22.474  0.00  0.00    +0.015 A 
ATOM      4  C   UNL     1       9.020  -2.266  23.738  0.00  0.00    +0.059 A 
ATOM      5  C   UNL     1       9.446  -1.418  24.764  0.00  0.00    +0.015 A 
ATOM      6  C   UNL     1       9.648  -0.054  24.509  0.00  0.00    +0.007 A 
ENDROOT
BRANCH   1   8
ATOM      7  C   UNL     1      10.760   2.616  23.797  0.00  0.00    +0.045 C 
ATOM      8  C   UNL     1       9.651   1.988  22.931  0.00  0.00    +0.137 C 
BRANCH   8   9
ATOM      9  N   UNL     1      10.094   2.221  21.515  0.00  0.00    -0.312 NA
ATOM     10  H   UNL     1       9.900   3.201  21.292  0.00  0.00    +0.120 HD
ATOM     11  H   UNL     1      11.110   2.129  21.465  0.00  0.00    +0.120 HD
ENDBRANCH   8   9
BRANCH   8  12
ATOM     12  C   UNL     1       8.366   2.842  23.160  0.00  0.00    +0.329 C 
ATOM     13  O   UNL     1       7.790   3.013  24.222  0.00  0.00    -0.249 OA
BRANCH  12  14
ATOM     14  O   UNL     1       7.961   3.437  22.000  0.00  0.00    -0.479 OA
ATOM     15  H   UNL     1       7.449   2.760  21.494  0.00  0.00    +0.295 HD
ENDBRANCH  12  14
ENDBRANCH   8  12
ENDBRANCH   1   8
BRANCH   4  16
ATOM     16  C   UNL     1       8.799  -3.718  23.948  0.00  0.00    +0.337 C 
ATOM     17  O   UNL     1       7.824  -4.308  23.517  0.00  0.00    -0.245 OA
BRANCH  16  18
ATOM     18  O   UNL     1       9.798  -4.329  24.620  0.00  0.00    -0.477 OA
ATOM     19  H   UNL     1      10.053  -3.900  25.456  0.00  0.00    +0.295 HD
ENDBRANCH  16  18
ENDBRANCH   4  16
TORSDOF 6
ENDMDL
