MODEL 1
REMARK VINA RESULT:      -6.7      0.000      0.000
REMARK  Name = 
REMARK  11 active torsions:
REMARK  status: ('A' for Active; 'I' for Inactive)
REMARK    1  A    between atoms: C_2  and  C_3
REMARK    2  A    between atoms: C_5  and  C_7
REMARK    3  A    between atoms: C_8  and  O_10
REMARK    4  A    between atoms: C_11  and  C_13
REMARK    5  A    between atoms: C_14  and  O_16
REMARK    6  A    between atoms: C_17  and  C_19
REMARK    7  A    between atoms: C_23  and  C_25
REMARK    8  A    between atoms: C_25  and  C_26
REMARK    9  A    between atoms: C_27  and  C_29
REMARK   10  A    between atoms: C_30  and  O_32
REMARK   11  A    between atoms: C_33  and  C_35
REMARK                            x       y       z     vdW  Elec       q    Type
REMARK                         _______ _______ _______ _____ _____    ______ ____
ROOT
ATOM      1  C   UNL     1       5.320   0.109  26.544  0.00  0.00    +0.053 C 
ATOM      2  C   UNL     1       6.522   0.929  26.033  0.00  0.00    +0.141 C 
ATOM      3  O   UNL     1       7.649   0.606  26.417  0.00  0.00    -0.297 OA
ATOM      4  C   UNL     1       6.278   2.238  25.210  0.00  0.00    +0.081 C 
ATOM      5  C   UNL     1       4.924   2.206  24.461  0.00  0.00    +0.018 C 
ATOM      6  C   UNL     1       7.384   2.661  24.173  0.00  0.00    +0.131 C 
ATOM      7  C   UNL     1       7.780   1.556  23.173  0.00  0.00    +0.056 C 
ATOM      8  C   UNL     1       7.448   2.055  21.735  0.00  0.00    +0.014 C 
ATOM      9  C   UNL     1       9.189   0.875  23.149  0.00  0.00    +0.181 C 
ATOM     10  O   UNL     1       8.986  -0.242  22.185  0.00  0.00    -0.461 OA
ATOM     11  C   UNL     1       9.319  -1.539  22.449  0.00  0.00    +0.313 C 
ATOM     12  O   UNL     1      10.459  -1.938  22.266  0.00  0.00    -0.250 OA
ATOM     13  C   UNL     1       8.081  -2.455  22.643  0.00  0.00    +0.123 C 
ATOM     14  C   UNL     1       6.808  -1.652  22.906  0.00  0.00    +0.022 C 
ATOM     15  C   UNL     1       8.296  -3.695  23.583  0.00  0.00    +0.133 C 
ATOM     16  C   UNL     1       7.206  -4.065  24.660  0.00  0.00    +0.044 C 
ATOM     17  C   UNL     1       5.937  -4.610  23.978  0.00  0.00    +0.013 C 
ATOM     18  C   UNL     1       7.083  -3.071  25.884  0.00  0.00    +0.123 C 
ATOM     19  C   UNL     1       5.682  -2.533  26.292  0.00  0.00    +0.015 C 
ATOM     20  C   UNL     1       4.946  -3.635  27.087  0.00  0.00    +0.010 C 
ATOM     21  C   UNL     1       5.694  -1.257  27.206  0.00  0.00    +0.016 C 
ATOM     22  C   UNL     1       4.617   0.961  27.615  0.00  0.00    +0.015 C 
ENDROOT
BRANCH   6  23
ATOM     23  O   UNL     1       8.473   3.353  24.748  0.00  0.00    -0.391 OA
ATOM     24  H   UNL     1       8.285   4.307  24.705  0.00  0.00    +0.210 HD
ENDBRANCH   6  23
BRANCH   9  25
ATOM     25  C   UNL     1       9.872   0.361  24.425  0.00  0.00    +0.041 C 
ATOM     26  C   UNL     1      11.321   0.706  24.722  0.00  0.00    +0.007 C 
ENDBRANCH   9  25
BRANCH  15  27
ATOM     27  O   UNL     1       9.594  -3.691  24.180  0.00  0.00    -0.391 OA
ATOM     28  H   UNL     1       9.956  -2.792  24.174  0.00  0.00    +0.210 HD
ENDBRANCH  15  27
BRANCH  18  29
ATOM     29  O   UNL     1       7.981  -2.009  25.664  0.00  0.00    -0.391 OA
ATOM     30  H   UNL     1       8.791  -2.299  25.204  0.00  0.00    +0.210 HD
ENDBRANCH  18  29
TORSDOF 4
ENDMDL
MODEL 2
REMARK VINA RESULT:      -6.6      1.615      5.147
REMARK  Name = 
REMARK  11 active torsions:
REMARK  status: ('A' for Active; 'I' for Inactive)
REMARK    1  A    between atoms: C_2  and  C_3
REMARK    2  A    between atoms: C_5  and  C_7
REMARK    3  A    between atoms: C_8  and  O_10
REMARK    4  A    between atoms: C_11  and  C_13
REMARK    5  A    between atoms: C_14  and  O_16
REMARK    6  A    between atoms: C_17  and  C_19
REMARK    7  A    between atoms: C_23  and  C_25
REMARK    8  A    between atoms: C_25  and  C_26
REMARK    9  A    between atoms: C_27  and  C_29
REMARK   10  A    between atoms: C_30  and  O_32
REMARK   11  A    between atoms: C_33  and  C_35
REMARK                            x       y       z     vdW  Elec       q    Type
REMARK                         _______ _______ _______ _____ _____    ______ ____
ROOT
ATOM      1  C   UNL     1       6.066   2.266  26.008  0.00  0.00    +0.053 C 
ATOM      2  C   UNL     1       5.773   0.788  25.681  0.00  0.00    +0.141 C 
ATOM      3  O   UNL     1       5.431   0.505  24.530  0.00  0.00    -0.297 OA
ATOM      4  C   UNL     1       5.730  -0.270  26.834  0.00  0.00    +0.081 C 
ATOM      5  C   UNL     1       6.609   0.149  28.037  0.00  0.00    +0.018 C 
ATOM      6  C   UNL     1       6.101  -1.756  26.471  0.00  0.00    +0.131 C 
ATOM      7  C   UNL     1       7.452  -1.920  25.746  0.00  0.00    +0.056 C 
ATOM      8  C   UNL     1       8.380  -2.803  26.633  0.00  0.00    +0.014 C 
ATOM      9  C   UNL     1       7.586  -2.395  24.261  0.00  0.00    +0.181 C 
ATOM     10  O   UNL     1       9.032  -2.170  23.984  0.00  0.00    -0.461 OA
ATOM     11  C   UNL     1       9.497  -1.483  22.900  0.00  0.00    +0.313 C 
ATOM     12  O   UNL     1       9.648  -2.045  21.826  0.00  0.00    -0.250 OA
ATOM     13  C   UNL     1      10.105  -0.104  23.271  0.00  0.00    +0.123 C 
ATOM     14  C   UNL     1       9.685   0.352  24.667  0.00  0.00    +0.022 C 
ATOM     15  C   UNL     1      10.020   0.996  22.154  0.00  0.00    +0.133 C 
ATOM     16  C   UNL     1       9.584   2.465  22.526  0.00  0.00    +0.044 C 
ATOM     17  C   UNL     1      10.686   3.164  23.345  0.00  0.00    +0.013 C 
ATOM     18  C   UNL     1       8.064   2.651  22.923  0.00  0.00    +0.123 C 
ATOM     19  C   UNL     1       7.704   3.417  24.228  0.00  0.00    +0.015 C 
ATOM     20  C   UNL     1       7.842   4.933  23.960  0.00  0.00    +0.010 C 
ATOM     21  C   UNL     1       6.245   3.189  24.758  0.00  0.00    +0.016 C 
ATOM     22  C   UNL     1       4.862   2.799  26.803  0.00  0.00    +0.015 C 
ENDROOT
BRANCH   6  23
ATOM     23  O   UNL     1       5.035  -2.490  25.903  0.00  0.00    -0.391 OA
ATOM     24  H   UNL     1       5.322  -2.819  25.033  0.00  0.00    +0.210 HD
ENDBRANCH   6  23
BRANCH   9  25
ATOM     25  C   UNL     1       6.728  -1.805  23.132  0.00  0.00    +0.041 C 
ATOM     26  C   UNL     1       5.839  -2.698  22.286  0.00  0.00    +0.007 C 
ENDBRANCH   9  25
BRANCH  15  27
ATOM     27  O   UNL     1       9.289   0.542  21.013  0.00  0.00    -0.391 OA
ATOM     28  H   UNL     1       8.418   0.967  20.991  0.00  0.00    +0.210 HD
ENDBRANCH  15  27
BRANCH  18  29
ATOM     29  O   UNL     1       7.459   1.380  22.906  0.00  0.00    -0.391 OA
ATOM     30  H   UNL     1       6.564   1.391  23.293  0.00  0.00    +0.210 HD
ENDBRANCH  18  29
TORSDOF 4
ENDMDL
MODEL 3
REMARK VINA RESULT:      -6.2      1.606      4.968
REMARK  Name = 
REMARK  11 active torsions:
REMARK  status: ('A' for Active; 'I' for Inactive)
REMARK    1  A    between atoms: C_2  and  C_3
REMARK    2  A    between atoms: C_5  and  C_7
REMARK    3  A    between atoms: C_8  and  O_10
REMARK    4  A    between atoms: C_11  and  C_13
REMARK    5  A    between atoms: C_14  and  O_16
REMARK    6  A    between atoms: C_17  and  C_19
REMARK    7  A    between atoms: C_23  and  C_25
REMARK    8  A    between atoms: C_25  and  C_26
REMARK    9  A    between atoms: C_27  and  C_29
REMARK   10  A    between atoms: C_30  and  O_32
REMARK   11  A    between atoms: C_33  and  C_35
REMARK                            x       y       z     vdW  Elec       q    Type
REMARK                         _______ _______ _______ _____ _____    ______ ____
ROOT
ATOM      1  C   UNL     1       6.842  -3.133  24.139  0.00  0.00    +0.053 C 
ATOM      2  C   UNL     1       7.563  -2.067  23.290  0.00  0.00    +0.141 C 
ATOM      3  O   UNL     1       6.873  -1.222  22.714  0.00  0.00    -0.297 OA
ATOM      4  C   UNL     1       9.101  -2.188  23.029  0.00  0.00    +0.081 C 
ATOM      5  C   UNL     1       9.820  -2.966  24.157  0.00  0.00    +0.018 C 
ATOM      6  C   UNL     1       9.905  -0.857  22.785  0.00  0.00    +0.131 C 
ATOM      7  C   UNL     1       9.706   0.219  23.872  0.00  0.00    +0.056 C 
ATOM      8  C   UNL     1      11.088   0.509  24.531  0.00  0.00    +0.014 C 
ATOM      9  C   UNL     1       8.981   1.583  23.617  0.00  0.00    +0.181 C 
ATOM     10  O   UNL     1       8.856   2.137  24.994  0.00  0.00    -0.461 OA
ATOM     11  C   UNL     1       7.685   2.599  25.521  0.00  0.00    +0.313 C 
ATOM     12  O   UNL     1       7.317   3.745  25.309  0.00  0.00    -0.250 OA
ATOM     13  C   UNL     1       7.113   1.677  26.630  0.00  0.00    +0.123 C 
ATOM     14  C   UNL     1       7.742   0.286  26.601  0.00  0.00    +0.022 C 
ATOM     15  C   UNL     1       5.551   1.702  26.794  0.00  0.00    +0.133 C 
ATOM     16  C   UNL     1       4.757   0.352  26.974  0.00  0.00    +0.044 C 
ATOM     17  C   UNL     1       5.045  -0.264  28.356  0.00  0.00    +0.013 C 
ATOM     18  C   UNL     1       4.677  -0.574  25.694  0.00  0.00    +0.123 C 
ATOM     19  C   UNL     1       5.041  -2.081  25.819  0.00  0.00    +0.015 C 
ATOM     20  C   UNL     1       3.844  -2.822  26.456  0.00  0.00    +0.010 C 
ATOM     21  C   UNL     1       5.347  -2.811  24.464  0.00  0.00    +0.016 C 
ATOM     22  C   UNL     1       6.865  -4.442  23.332  0.00  0.00    +0.015 C 
ENDROOT
BRANCH   6  23
ATOM     23  O   UNL     1       9.826  -0.376  21.458  0.00  0.00    -0.391 OA
ATOM     24  H   UNL     1       8.887  -0.246  21.237  0.00  0.00    +0.210 HD
ENDBRANCH   6  23
BRANCH   9  25
ATOM     25  C   UNL     1       7.635   1.670  22.883  0.00  0.00    +0.041 C 
ATOM     26  C   UNL     1       7.494   2.499  21.619  0.00  0.00    +0.007 C 
ENDBRANCH   9  25
BRANCH  15  27
ATOM     27  O   UNL     1       4.924   2.512  25.799  0.00  0.00    -0.391 OA
ATOM     28  H   UNL     1       3.961   2.427  25.865  0.00  0.00    +0.210 HD
ENDBRANCH  15  27
BRANCH  18  29
ATOM     29  O   UNL     1       5.431   0.039  24.675  0.00  0.00    -0.391 OA
ATOM     30  H   UNL     1       5.745   0.926  24.931  0.00  0.00    +0.210 HD
ENDBRANCH  18  29
TORSDOF 4
ENDMDL
MODEL 4
REMARK VINA RESULT:      -6.2      2.545      4.140
REMARK  Name = 
REMARK  11 active torsions:
REMARK  status: ('A' for Active; 'I' for Inactive)
REMARK    1  A    between atoms: C_2  and  C_3
REMARK    2  A    between atoms: C_5  and  C_7
REMARK    3  A    between atoms: C_8  and  O_10
REMARK    4  A    between atoms: C_11  and  C_13
REMARK    5  A    between atoms: C_14  and  O_16
REMARK    6  A    between atoms: C_17  and  C_19
REMARK    7  A    between atoms: C_23  and  C_25
REMARK    8  A    between atoms: C_25  and  C_26
REMARK    9  A    between atoms: C_27  and  C_29
REMARK   10  A    between atoms: C_30  and  O_32
REMARK   11  A    between atoms: C_33  and  C_35
REMARK                            x       y       z     vdW  Elec       q    Type
REMARK                         _______ _______ _______ _____ _____    ______ ____
ROOT
ATOM      1  C   UNL     1       4.628  -1.778  26.713  0.00  0.00    +0.053 C 
ATOM      2  C   UNL     1       6.101  -2.061  26.355  0.00  0.00    +0.141 C 
ATOM      3  O   UNL     1       6.582  -3.145  26.694  0.00  0.00    -0.297 OA
ATOM      4  C   UNL     1       6.989  -0.921  25.753  0.00  0.00    +0.081 C 
ATOM      5  C   UNL     1       6.144   0.130  24.995  0.00  0.00    +0.018 C 
ATOM      6  C   UNL     1       8.177  -1.344  24.812  0.00  0.00    +0.131 C 
ATOM      7  C   UNL     1       7.772  -2.274  23.650  0.00  0.00    +0.056 C 
ATOM      8  C   UNL     1       8.091  -1.548  22.309  0.00  0.00    +0.014 C 
ATOM      9  C   UNL     1       8.237  -3.763  23.531  0.00  0.00    +0.181 C 
ATOM     10  O   UNL     1       7.413  -4.264  22.396  0.00  0.00    -0.461 OA
ATOM     11  C   UNL     1       6.665  -5.404  22.449  0.00  0.00    +0.313 C 
ATOM     12  O   UNL     1       7.172  -6.491  22.216  0.00  0.00    -0.250 OA
ATOM     13  C   UNL     1       5.138  -5.128  22.477  0.00  0.00    +0.123 C 
ATOM     14  C   UNL     1       4.824  -3.681  22.853  0.00  0.00    +0.022 C 
ATOM     15  C   UNL     1       4.267  -6.213  23.205  0.00  0.00    +0.133 C 
ATOM     16  C   UNL     1       3.122  -5.770  24.195  0.00  0.00    +0.044 C 
ATOM     17  C   UNL     1       1.955  -5.132  23.419  0.00  0.00    +0.013 C 
ATOM     18  C   UNL     1       3.604  -5.138  25.563  0.00  0.00    +0.123 C 
ATOM     19  C   UNL     1       2.992  -3.789  26.038  0.00  0.00    +0.015 C 
ATOM     20  C   UNL     1       1.594  -4.068  26.634  0.00  0.00    +0.010 C 
ATOM     21  C   UNL     1       3.807  -3.036  27.148  0.00  0.00    +0.016 C 
ATOM     22  C   UNL     1       4.632  -0.800  27.900  0.00  0.00    +0.015 C 
ENDROOT
BRANCH   6  23
ATOM     23  O   UNL     1       9.343  -1.740  25.504  0.00  0.00    -0.391 OA
ATOM     24  H   UNL     1      10.104  -1.285  25.104  0.00  0.00    +0.210 HD
ENDBRANCH   6  23
BRANCH   9  25
ATOM     25  C   UNL     1       8.165  -4.740  24.714  0.00  0.00    +0.041 C 
ATOM     26  C   UNL     1       9.432  -5.262  25.366  0.00  0.00    +0.007 C 
ENDBRANCH   9  25
BRANCH  15  27
ATOM     27  O   UNL     1       5.073  -7.226  23.809  0.00  0.00    -0.391 OA
ATOM     28  H   UNL     1       5.801  -7.465  23.215  0.00  0.00    +0.210 HD
ENDBRANCH  15  27
BRANCH  18  29
ATOM     29  O   UNL     1       5.009  -5.065  25.529  0.00  0.00    -0.391 OA
ATOM     30  H   UNL     1       5.332  -4.488  24.812  0.00  0.00    +0.210 HD
ENDBRANCH  18  29
TORSDOF 4
ENDMDL
MODEL 5
REMARK VINA RESULT:      -6.1      1.262      2.272
REMARK  Name = 
REMARK  11 active torsions:
REMARK  status: ('A' for Active; 'I' for Inactive)
REMARK    1  A    between atoms: C_2  and  C_3
REMARK    2  A    between atoms: C_5  and  C_7
REMARK    3  A    between atoms: C_8  and  O_10
REMARK    4  A    between atoms: C_11  and  C_13
REMARK    5  A    between atoms: C_14  and  O_16
REMARK    6  A    between atoms: C_17  and  C_19
REMARK    7  A    between atoms: C_23  and  C_25
REMARK    8  A    between atoms: C_25  and  C_26
REMARK    9  A    between atoms: C_27  and  C_29
REMARK   10  A    between atoms: C_30  and  O_32
REMARK   11  A    between atoms: C_33  and  C_35
REMARK                            x       y       z     vdW  Elec       q    Type
REMARK                         _______ _______ _______ _____ _____    ______ ____
ROOT
ATOM      1  C   UNL     1       5.916   2.200  25.048  0.00  0.00    +0.053 C 
ATOM      2  C   UNL     1       7.362   2.183  24.511  0.00  0.00    +0.141 C 
ATOM      3  O   UNL     1       8.265   1.863  25.288  0.00  0.00    -0.297 OA
ATOM      4  C   UNL     1       7.668   2.741  23.081  0.00  0.00    +0.081 C 
ATOM      5  C   UNL     1       6.440   2.638  22.145  0.00  0.00    +0.018 C 
ATOM      6  C   UNL     1       8.901   2.137  22.313  0.00  0.00    +0.131 C 
ATOM      7  C   UNL     1       8.904   0.598  22.216  0.00  0.00    +0.056 C 
ATOM      8  C   UNL     1       8.854   0.203  20.710  0.00  0.00    +0.014 C 
ATOM      9  C   UNL     1       9.954  -0.313  22.934  0.00  0.00    +0.181 C 
ATOM     10  O   UNL     1       9.395  -1.676  22.715  0.00  0.00    -0.461 OA
ATOM     11  C   UNL     1       9.204  -2.585  23.715  0.00  0.00    +0.313 C 
ATOM     12  O   UNL     1      10.119  -3.306  24.083  0.00  0.00    -0.250 OA
ATOM     13  C   UNL     1       7.705  -2.821  24.042  0.00  0.00    +0.123 C 
ATOM     14  C   UNL     1       6.815  -1.712  23.484  0.00  0.00    +0.022 C 
ATOM     15  C   UNL     1       7.393  -3.250  25.520  0.00  0.00    +0.133 C 
ATOM     16  C   UNL     1       6.191  -2.586  26.296  0.00  0.00    +0.044 C 
ATOM     17  C   UNL     1       4.846  -3.059  25.713  0.00  0.00    +0.013 C 
ATOM     18  C   UNL     1       6.389  -1.070  26.703  0.00  0.00    +0.123 C 
ATOM     19  C   UNL     1       5.273  -0.039  26.371  0.00  0.00    +0.015 C 
ATOM     20  C   UNL     1       4.140  -0.192  27.410  0.00  0.00    +0.010 C 
ATOM     21  C   UNL     1       5.717   1.466  26.415  0.00  0.00    +0.016 C 
ATOM     22  C   UNL     1       5.532   3.674  25.259  0.00  0.00    +0.015 C 
ENDROOT
BRANCH   6  23
ATOM     23  O   UNL     1      10.141   2.706  22.684  0.00  0.00    -0.391 OA
ATOM     24  H   UNL     1      10.070   3.019  23.603  0.00  0.00    +0.210 HD
ENDBRANCH   6  23
BRANCH   9  25
ATOM     25  C   UNL     1      10.330  -0.122  24.411  0.00  0.00    +0.041 C 
ATOM     26  C   UNL     1      11.557   0.683  24.801  0.00  0.00    +0.007 C 
ENDBRANCH   9  25
BRANCH  15  27
ATOM     27  O   UNL     1       8.566  -3.243  26.335  0.00  0.00    -0.391 OA
ATOM     28  H   UNL     1       8.423  -3.791  27.122  0.00  0.00    +0.210 HD
ENDBRANCH  15  27
BRANCH  18  29
ATOM     29  O   UNL     1       7.630  -0.648  26.188  0.00  0.00    -0.391 OA
ATOM     30  H   UNL     1       7.982  -1.264  25.520  0.00  0.00    +0.210 HD
ENDBRANCH  18  29
TORSDOF 4
ENDMDL
MODEL 6
REMARK VINA RESULT:      -6.1      2.078      5.434
REMARK  Name = 
REMARK  11 active torsions:
REMARK  status: ('A' for Active; 'I' for Inactive)
REMARK    1  A    between atoms: C_2  and  C_3
REMARK    2  A    between atoms: C_5  and  C_7
REMARK    3  A    between atoms: C_8  and  O_10
REMARK    4  A    between atoms: C_11  and  C_13
REMARK    5  A    between atoms: C_14  and  O_16
REMARK    6  A    between atoms: C_17  and  C_19
REMARK    7  A    between atoms: C_23  and  C_25
REMARK    8  A    between atoms: C_25  and  C_26
REMARK    9  A    between atoms: C_27  and  C_29
REMARK   10  A    between atoms: C_30  and  O_32
REMARK   11  A    between atoms: C_33  and  C_35
REMARK                            x       y       z     vdW  Elec       q    Type
REMARK                         _______ _______ _______ _____ _____    ______ ____
ROOT
ATOM      1  C   UNL     1       5.595  -4.165  27.415  0.00  0.00    +0.053 C 
ATOM      2  C   UNL     1       6.032  -4.317  25.944  0.00  0.00    +0.141 C 
ATOM      3  O   UNL     1       5.241  -3.964  25.065  0.00  0.00    -0.297 OA
ATOM      4  C   UNL     1       7.358  -5.073  25.600  0.00  0.00    +0.081 C 
ATOM      5  C   UNL     1       8.380  -5.005  26.760  0.00  0.00    +0.018 C 
ATOM      6  C   UNL     1       8.110  -4.659  24.281  0.00  0.00    +0.131 C 
ATOM      7  C   UNL     1       8.395  -3.148  24.154  0.00  0.00    +0.056 C 
ATOM      8  C   UNL     1       9.939  -2.946  24.085  0.00  0.00    +0.014 C 
ATOM      9  C   UNL     1       7.726  -2.228  23.079  0.00  0.00    +0.181 C 
ATOM     10  O   UNL     1       8.148  -0.869  23.518  0.00  0.00    -0.461 OA
ATOM     11  C   UNL     1       7.282   0.171  23.696  0.00  0.00    +0.313 C 
ATOM     12  O   UNL     1       6.945   0.868  22.751  0.00  0.00    -0.250 OA
ATOM     13  C   UNL     1       7.088   0.550  25.188  0.00  0.00    +0.123 C 
ATOM     14  C   UNL     1       7.564  -0.556  26.128  0.00  0.00    +0.022 C 
ATOM     15  C   UNL     1       5.698   1.184  25.551  0.00  0.00    +0.133 C 
ATOM     16  C   UNL     1       4.929   0.710  26.843  0.00  0.00    +0.044 C 
ATOM     17  C   UNL     1       5.654   1.197  28.112  0.00  0.00    +0.013 C 
ATOM     18  C   UNL     1       4.326  -0.751  26.787  0.00  0.00    +0.123 C 
ATOM     19  C   UNL     1       4.603  -1.737  27.958  0.00  0.00    +0.015 C 
ATOM     20  C   UNL     1       3.669  -1.374  29.134  0.00  0.00    +0.010 C 
ATOM     21  C   UNL     1       4.345  -3.251  27.635  0.00  0.00    +0.016 C 
ATOM     22  C   UNL     1       5.230  -5.570  27.923  0.00  0.00    +0.015 C 
ENDROOT
BRANCH   6  23
ATOM     23  O   UNL     1       7.591  -5.260  23.112  0.00  0.00    -0.391 OA
ATOM     24  H   UNL     1       6.668  -4.970  23.005  0.00  0.00    +0.210 HD
ENDBRANCH   6  23
BRANCH   9  25
ATOM     25  C   UNL     1       6.215  -2.255  22.805  0.00  0.00    +0.041 C 
ATOM     26  C   UNL     1       5.642  -3.134  21.708  0.00  0.00    +0.007 C 
ENDBRANCH   9  25
BRANCH  15  27
ATOM     27  O   UNL     1       4.811   1.200  24.431  0.00  0.00    -0.391 OA
ATOM     28  H   UNL     1       4.584   2.115  24.204  0.00  0.00    +0.210 HD
ENDBRANCH  15  27
BRANCH  18  29
ATOM     29  O   UNL     1       4.701  -1.321  25.555  0.00  0.00    -0.391 OA
ATOM     30  H   UNL     1       4.194  -0.952  24.808  0.00  0.00    +0.210 HD
ENDBRANCH  18  29
TORSDOF 4
ENDMDL
MODEL 7
REMARK VINA RESULT:      -6.1      1.860      5.303
REMARK  Name = 
REMARK  11 active torsions:
REMARK  status: ('A' for Active; 'I' for Inactive)
REMARK    1  A    between atoms: C_2  and  C_3
REMARK    2  A    between atoms: C_5  and  C_7
REMARK    3  A    between atoms: C_8  and  O_10
REMARK    4  A    between atoms: C_11  and  C_13
REMARK    5  A    between atoms: C_14  and  O_16
REMARK    6  A    between atoms: C_17  and  C_19
REMARK    7  A    between atoms: C_23  and  C_25
REMARK    8  A    between atoms: C_25  and  C_26
REMARK    9  A    between atoms: C_27  and  C_29
REMARK   10  A    between atoms: C_30  and  O_32
REMARK   11  A    between atoms: C_33  and  C_35
REMARK                            x       y       z     vdW  Elec       q    Type
REMARK                         _______ _______ _______ _____ _____    ______ ____
ROOT
ATOM      1  C   UNL     1       4.653  -2.174  26.955  0.00  0.00    +0.053 C 
ATOM      2  C   UNL     1       5.019  -3.153  25.821  0.00  0.00    +0.141 C 
ATOM      3  O   UNL     1       4.648  -2.879  24.677  0.00  0.00    -0.297 OA
ATOM      4  C   UNL     1       5.672  -4.534  26.164  0.00  0.00    +0.081 C 
ATOM      5  C   UNL     1       6.456  -4.487  27.497  0.00  0.00    +0.018 C 
ATOM      6  C   UNL     1       6.613  -5.182  25.082  0.00  0.00    +0.131 C 
ATOM      7  C   UNL     1       7.736  -4.256  24.573  0.00  0.00    +0.056 C 
ATOM      8  C   UNL     1       9.106  -4.911  24.923  0.00  0.00    +0.014 C 
ATOM      9  C   UNL     1       7.808  -3.707  23.110  0.00  0.00    +0.181 C 
ATOM     10  O   UNL     1       8.915  -2.714  23.198  0.00  0.00    -0.461 OA
ATOM     11  C   UNL     1       8.812  -1.426  22.757  0.00  0.00    +0.313 C 
ATOM     12  O   UNL     1       9.013  -1.153  21.583  0.00  0.00    -0.250 OA
ATOM     13  C   UNL     1       8.774  -0.391  23.913  0.00  0.00    +0.123 C 
ATOM     14  C   UNL     1       8.446  -1.041  25.255  0.00  0.00    +0.022 C 
ATOM     15  C   UNL     1       7.998   0.940  23.606  0.00  0.00    +0.133 C 
ATOM     16  C   UNL     1       7.009   1.540  24.677  0.00  0.00    +0.044 C 
ATOM     17  C   UNL     1       7.793   2.095  25.882  0.00  0.00    +0.013 C 
ATOM     18  C   UNL     1       5.671   0.730  24.908  0.00  0.00    +0.123 C 
ATOM     19  C   UNL     1       5.236   0.371  26.358  0.00  0.00    +0.015 C 
ATOM     20  C   UNL     1       4.613   1.627  27.008  0.00  0.00    +0.010 C 
ATOM     21  C   UNL     1       4.164  -0.769  26.474  0.00  0.00    +0.016 C 
ATOM     22  C   UNL     1       3.501  -2.815  27.748  0.00  0.00    +0.015 C 
ENDROOT
BRANCH   6  23
ATOM     23  O   UNL     1       5.922  -5.882  24.067  0.00  0.00    -0.391 OA
ATOM     24  H   UNL     1       5.293  -5.269  23.648  0.00  0.00    +0.210 HD
ENDBRANCH   6  23
BRANCH   9  25
ATOM     25  C   UNL     1       6.591  -3.088  22.406  0.00  0.00    +0.041 C 
ATOM     26  C   UNL     1       5.868  -3.840  21.303  0.00  0.00    +0.007 C 
ENDBRANCH   9  25
BRANCH  15  27
ATOM     27  O   UNL     1       7.369   0.905  22.324  0.00  0.00    -0.391 OA
ATOM     28  H   UNL     1       7.068   1.794  22.081  0.00  0.00    +0.210 HD
ENDBRANCH  15  27
BRANCH  18  29
ATOM     29  O   UNL     1       5.725  -0.424  24.103  0.00  0.00    -0.391 OA
ATOM     30  H   UNL     1       5.598  -1.241  24.619  0.00  0.00    +0.210 HD
ENDBRANCH  18  29
TORSDOF 4
ENDMDL
MODEL 8
REMARK VINA RESULT:      -6.0      2.069      5.618
REMARK  Name = 
REMARK  11 active torsions:
REMARK  status: ('A' for Active; 'I' for Inactive)
REMARK    1  A    between atoms: C_2  and  C_3
REMARK    2  A    between atoms: C_5  and  C_7
REMARK    3  A    between atoms: C_8  and  O_10
REMARK    4  A    between atoms: C_11  and  C_13
REMARK    5  A    between atoms: C_14  and  O_16
REMARK    6  A    between atoms: C_17  and  C_19
REMARK    7  A    between atoms: C_23  and  C_25
REMARK    8  A    between atoms: C_25  and  C_26
REMARK    9  A    between atoms: C_27  and  C_29
REMARK   10  A    between atoms: C_30  and  O_32
REMARK   11  A    between atoms: C_33  and  C_35
REMARK                            x       y       z     vdW  Elec       q    Type
REMARK                         _______ _______ _______ _____ _____    ______ ____
ROOT
ATOM      1  C   UNL     1       4.682  -0.419  26.707  0.00  0.00    +0.053 C 
ATOM      2  C   UNL     1       4.277  -1.862  26.343  0.00  0.00    +0.141 C 
ATOM      3  O   UNL     1       4.191  -2.155  25.148  0.00  0.00    -0.297 OA
ATOM      4  C   UNL     1       3.811  -2.846  27.466  0.00  0.00    +0.081 C 
ATOM      5  C   UNL     1       4.419  -2.484  28.842  0.00  0.00    +0.018 C 
ATOM      6  C   UNL     1       4.051  -4.384  27.232  0.00  0.00    +0.131 C 
ATOM      7  C   UNL     1       5.503  -4.756  26.867  0.00  0.00    +0.056 C 
ATOM      8  C   UNL     1       6.056  -5.706  27.971  0.00  0.00    +0.014 C 
ATOM      9  C   UNL     1       5.927  -5.319  25.470  0.00  0.00    +0.181 C 
ATOM     10  O   UNL     1       7.414  -5.296  25.557  0.00  0.00    -0.461 OA
ATOM     11  C   UNL     1       8.219  -4.729  24.611  0.00  0.00    +0.313 C 
ATOM     12  O   UNL     1       8.549  -5.360  23.618  0.00  0.00    -0.250 OA
ATOM     13  C   UNL     1       8.902  -3.424  25.098  0.00  0.00    +0.123 C 
ATOM     14  C   UNL     1       8.221  -2.848  26.338  0.00  0.00    +0.022 C 
ATOM     15  C   UNL     1       9.243  -2.379  23.976  0.00  0.00    +0.133 C 
ATOM     16  C   UNL     1       8.935  -0.849  24.204  0.00  0.00    +0.044 C 
ATOM     17  C   UNL     1       9.890  -0.258  25.259  0.00  0.00    +0.013 C 
ATOM     18  C   UNL     1       7.405  -0.449  24.208  0.00  0.00    +0.123 C 
ATOM     19  C   UNL     1       6.847   0.421  25.370  0.00  0.00    +0.015 C 
ATOM     20  C   UNL     1       7.252   1.891  25.120  0.00  0.00    +0.010 C 
ATOM     21  C   UNL     1       5.285   0.410  25.526  0.00  0.00    +0.016 C 
ATOM     22  C   UNL     1       3.406   0.304  27.170  0.00  0.00    +0.015 C 
ENDROOT
BRANCH   6  23
ATOM     23  O   UNL     1       3.066  -5.002  26.429  0.00  0.00    -0.391 OA
ATOM     24  H   UNL     1       2.942  -5.914  26.747  0.00  0.00    +0.210 HD
ENDBRANCH   6  23
BRANCH   9  25
ATOM     25  C   UNL     1       5.460  -4.680  24.154  0.00  0.00    +0.041 C 
ATOM     26  C   UNL     1       4.854  -5.530  23.052  0.00  0.00    +0.007 C 
ENDBRANCH   9  25
BRANCH  15  27
ATOM     27  O   UNL     1       8.757  -2.791  22.698  0.00  0.00    -0.391 OA
ATOM     28  H   UNL     1       7.788  -2.830  22.711  0.00  0.00    +0.210 HD
ENDBRANCH  15  27
BRANCH  18  29
ATOM     29  O   UNL     1       6.654  -1.631  24.063  0.00  0.00    -0.391 OA
ATOM     30  H   UNL     1       6.738  -2.016  23.171  0.00  0.00    +0.210 HD
ENDBRANCH  18  29
TORSDOF 4
ENDMDL
MODEL 9
REMARK VINA RESULT:      -5.9      3.016      6.345
REMARK  Name = 
REMARK  11 active torsions:
REMARK  status: ('A' for Active; 'I' for Inactive)
REMARK    1  A    between atoms: C_2  and  C_3
REMARK    2  A    between atoms: C_5  and  C_7
REMARK    3  A    between atoms: C_8  and  O_10
REMARK    4  A    between atoms: C_11  and  C_13
REMARK    5  A    between atoms: C_14  and  O_16
REMARK    6  A    between atoms: C_17  and  C_19
REMARK    7  A    between atoms: C_23  and  C_25
REMARK    8  A    between atoms: C_25  and  C_26
REMARK    9  A    between atoms: C_27  and  C_29
REMARK   10  A    between atoms: C_30  and  O_32
REMARK   11  A    between atoms: C_33  and  C_35
REMARK                            x       y       z     vdW  Elec       q    Type
REMARK                         _______ _______ _______ _____ _____    ______ ____
ROOT
ATOM      1  C   UNL     1       5.018  -1.391  26.823  0.00  0.00    +0.053 C 
ATOM      2  C   UNL     1       4.008  -2.521  26.539  0.00  0.00    +0.141 C 
ATOM      3  O   UNL     1       3.360  -2.469  25.490  0.00  0.00    -0.297 OA
ATOM      4  C   UNL     1       3.695  -3.582  27.646  0.00  0.00    +0.081 C 
ATOM      5  C   UNL     1       4.879  -3.764  28.625  0.00  0.00    +0.018 C 
ATOM      6  C   UNL     1       3.246  -5.015  27.174  0.00  0.00    +0.131 C 
ATOM      7  C   UNL     1       4.194  -5.679  26.155  0.00  0.00    +0.056 C 
ATOM      8  C   UNL     1       4.747  -6.992  26.786  0.00  0.00    +0.014 C 
ATOM      9  C   UNL     1       3.800  -5.970  24.668  0.00  0.00    +0.181 C 
ATOM     10  O   UNL     1       5.099  -6.391  24.073  0.00  0.00    -0.461 OA
ATOM     11  C   UNL     1       5.615  -5.857  22.927  0.00  0.00    +0.313 C 
ATOM     12  O   UNL     1       5.275  -6.285  21.835  0.00  0.00    -0.250 OA
ATOM     13  C   UNL     1       6.858  -4.964  23.180  0.00  0.00    +0.123 C 
ATOM     14  C   UNL     1       6.978  -4.549  24.645  0.00  0.00    +0.022 C 
ATOM     15  C   UNL     1       7.089  -3.812  22.138  0.00  0.00    +0.133 C 
ATOM     16  C   UNL     1       7.475  -2.366  22.634  0.00  0.00    +0.044 C 
ATOM     17  C   UNL     1       8.910  -2.354  23.194  0.00  0.00    +0.013 C 
ATOM     18  C   UNL     1       6.329  -1.564  23.372  0.00  0.00    +0.123 C 
ATOM     19  C   UNL     1       6.630  -0.892  24.742  0.00  0.00    +0.015 C 
ATOM     20  C   UNL     1       7.409   0.417  24.485  0.00  0.00    +0.010 C 
ATOM     21  C   UNL     1       5.367  -0.499  25.587  0.00  0.00    +0.016 C 
ATOM     22  C   UNL     1       4.385  -0.477  27.885  0.00  0.00    +0.015 C 
ENDROOT
BRANCH   6  23
ATOM     23  O   UNL     1       1.874  -5.107  26.848  0.00  0.00    -0.391 OA
ATOM     24  H   UNL     1       1.499  -5.870  27.321  0.00  0.00    +0.210 HD
ENDBRANCH   6  23
BRANCH   9  25
ATOM     25  C   UNL     1       3.123  -4.916  23.780  0.00  0.00    +0.041 C 
ATOM     26  C   UNL     1       1.701  -5.116  23.288  0.00  0.00    +0.007 C 
ENDBRANCH   9  25
BRANCH  15  27
ATOM     27  O   UNL     1       6.027  -3.736  21.185  0.00  0.00    -0.391 OA
ATOM     28  H   UNL     1       5.655  -2.841  21.178  0.00  0.00    +0.210 HD
ENDBRANCH  15  27
BRANCH  18  29
ATOM     29  O   UNL     1       5.207  -2.409  23.465  0.00  0.00    -0.391 OA
ATOM     30  H   UNL     1       5.402  -3.316  23.166  0.00  0.00    +0.210 HD
ENDBRANCH  18  29
TORSDOF 4
ENDMDL
