MODEL 1
REMARK VINA RESULT:      -7.6      0.000      0.000
REMARK  Name = 
REMARK  3 active torsions:
REMARK  status: ('A' for Active; 'I' for Inactive)
REMARK    1  A    between atoms: O_1  and  C_2
REMARK    2  A    between atoms: C_3  and  C_19
REMARK    3  A    between atoms: C_8  and  C_9
REMARK                            x       y       z     vdW  Elec       q    Type
REMARK                         _______ _______ _______ _____ _____    ______ ____
ROOT
ATOM      1  C   UNL     1       9.073  -0.495  23.789  0.00  0.00    +0.174 C 
ATOM      2  C   UNL     1       8.146  -1.511  23.404  0.00  0.00    +0.175 C 
ATOM      3  C   UNL     1       8.268  -2.833  23.616  0.00  0.00    +0.058 C 
ATOM      4  O   UNL     1       7.061  -0.916  22.783  0.00  0.00    -0.418 OA
ATOM      5  C   UNL     1       7.343   0.426  22.768  0.00  0.00    +0.349 C 
ATOM      6  O   UNL     1       6.609   1.267  22.271  0.00  0.00    -0.244 OA
ATOM      7  C   UNL     1       8.641   0.716  23.424  0.00  0.00    +0.111 C 
ENDROOT
BRANCH   3   8
ATOM      8  C   UNL     1       7.312  -3.902  23.237  0.00  0.00    -0.014 A 
ATOM      9  C   UNL     1       6.580  -4.639  24.222  0.00  0.00    -0.011 A 
ATOM     10  C   UNL     1       5.747  -5.709  23.798  0.00  0.00    -0.017 A 
ATOM     11  C   UNL     1       5.030  -6.470  24.737  0.00  0.00    +0.008 A 
ATOM     12  C   UNL     1       5.114  -6.196  26.099  0.00  0.00    +0.001 A 
ATOM     13  C   UNL     1       5.902  -5.145  26.539  0.00  0.00    +0.001 A 
ATOM     14  C   UNL     1       5.638  -6.017  22.437  0.00  0.00    +0.008 A 
ATOM     15  C   UNL     1       6.353  -5.300  21.485  0.00  0.00    +0.001 A 
ATOM     16  C   UNL     1       6.620  -4.375  25.616  0.00  0.00    +0.009 A 
ATOM     17  C   UNL     1       7.193  -4.265  21.883  0.00  0.00    +0.008 A 
ENDBRANCH   3   8
BRANCH   7  18
ATOM     18  C   UNL     1       9.230   2.044  23.640  0.00  0.00    -0.007 A 
ATOM     19  C   UNL     1      10.525   2.333  23.178  0.00  0.00    +0.010 A 
ATOM     20  C   UNL     1      11.094   3.598  23.360  0.00  0.00    +0.020 A 
ATOM     21  C   UNL     1      10.370   4.596  24.002  0.00  0.00    +0.041 A 
ATOM     22 CL   UNL     1      11.057   6.159  24.206  0.00  0.00    -0.084 Cl
ATOM     23  C   UNL     1       9.092   4.331  24.485  0.00  0.00    +0.020 A 
ATOM     24  C   UNL     1       8.533   3.057  24.319  0.00  0.00    +0.010 A 
ENDBRANCH   7  18
BRANCH   1  25
ATOM     25  O   UNL     1      10.193  -0.840  24.489  0.00  0.00    -0.503 OA
ATOM     26  H   UNL     1      10.706  -0.037  24.681  0.00  0.00    +0.292 HD
ENDBRANCH   1  25
TORSDOF 3
ENDMDL
MODEL 2
REMARK VINA RESULT:      -7.6      3.268      8.878
REMARK  Name = 
REMARK  3 active torsions:
REMARK  status: ('A' for Active; 'I' for Inactive)
REMARK    1  A    between atoms: O_1  and  C_2
REMARK    2  A    between atoms: C_3  and  C_19
REMARK    3  A    between atoms: C_8  and  C_9
REMARK                            x       y       z     vdW  Elec       q    Type
REMARK                         _______ _______ _______ _____ _____    ______ ____
ROOT
ATOM      1  C   UNL     1       9.308   0.360  22.708  0.00  0.00    +0.174 C 
ATOM      2  C   UNL     1       9.775   1.560  23.325  0.00  0.00    +0.175 C 
ATOM      3  C   UNL     1      10.281   2.639  22.703  0.00  0.00    +0.058 C 
ATOM      4  O   UNL     1       9.605   1.455  24.695  0.00  0.00    -0.418 OA
ATOM      5  C   UNL     1       9.075   0.208  24.900  0.00  0.00    +0.349 C 
ATOM      6  O   UNL     1       8.810  -0.242  26.006  0.00  0.00    -0.244 OA
ATOM      7  C   UNL     1       8.868  -0.512  23.620  0.00  0.00    +0.111 C 
ENDROOT
BRANCH   3   8
ATOM      8  C   UNL     1      10.759   3.899  23.322  0.00  0.00    -0.014 A 
ATOM      9  C   UNL     1       9.853   4.836  23.915  0.00  0.00    -0.011 A 
ATOM     10  C   UNL     1      10.365   6.064  24.413  0.00  0.00    -0.017 A 
ATOM     11  C   UNL     1       9.504   7.019  24.980  0.00  0.00    +0.008 A 
ATOM     12  C   UNL     1       8.135   6.787  25.072  0.00  0.00    +0.001 A 
ATOM     13  C   UNL     1       7.610   5.589  24.614  0.00  0.00    +0.001 A 
ATOM     14  C   UNL     1      11.737   6.336  24.336  0.00  0.00    +0.008 A 
ATOM     15  C   UNL     1      12.612   5.424  23.758  0.00  0.00    +0.001 A 
ATOM     16  C   UNL     1       8.455   4.627  24.048  0.00  0.00    +0.009 A 
ATOM     17  C   UNL     1      12.125   4.227  23.243  0.00  0.00    +0.008 A 
ENDBRANCH   3   8
BRANCH   7  18
ATOM     18  C   UNL     1       8.268  -1.842  23.457  0.00  0.00    -0.007 A 
ATOM     19  C   UNL     1       7.049  -1.995  22.776  0.00  0.00    +0.010 A 
ATOM     20  C   UNL     1       6.472  -3.258  22.597  0.00  0.00    +0.020 A 
ATOM     21  C   UNL     1       7.112  -4.387  23.093  0.00  0.00    +0.041 A 
ATOM     22 CL   UNL     1       6.418  -5.942  22.853  0.00  0.00    -0.084 Cl
ATOM     23  C   UNL     1       8.312  -4.261  23.787  0.00  0.00    +0.020 A 
ATOM     24  C   UNL     1       8.876  -2.994  23.983  0.00  0.00    +0.010 A 
ENDBRANCH   7  18
BRANCH   1  25
ATOM     25  O   UNL     1       9.308   0.262  21.347  0.00  0.00    -0.503 OA
ATOM     26  H   UNL     1      10.135  -0.161  21.061  0.00  0.00    +0.292 HD
ENDBRANCH   1  25
TORSDOF 3
ENDMDL
MODEL 3
REMARK VINA RESULT:      -7.4      1.365      2.260
REMARK  Name = 
REMARK  3 active torsions:
REMARK  status: ('A' for Active; 'I' for Inactive)
REMARK    1  A    between atoms: O_1  and  C_2
REMARK    2  A    between atoms: C_3  and  C_19
REMARK    3  A    between atoms: C_8  and  C_9
REMARK                            x       y       z     vdW  Elec       q    Type
REMARK                         _______ _______ _______ _____ _____    ______ ____
ROOT
ATOM      1  C   UNL     1       8.342   0.110  24.735  0.00  0.00    +0.174 C 
ATOM      2  C   UNL     1       7.286  -0.798  24.418  0.00  0.00    +0.175 C 
ATOM      3  C   UNL     1       7.015  -1.962  25.033  0.00  0.00    +0.058 C 
ATOM      4  O   UNL     1       6.547  -0.276  23.370  0.00  0.00    -0.418 OA
ATOM      5  C   UNL     1       7.163   0.904  23.043  0.00  0.00    +0.349 C 
ATOM      6  O   UNL     1       6.791   1.635  22.137  0.00  0.00    -0.244 OA
ATOM      7  C   UNL     1       8.325   1.173  23.925  0.00  0.00    +0.111 C 
ENDROOT
BRANCH   3   8
ATOM      8  C   UNL     1       5.916  -2.911  24.729  0.00  0.00    -0.014 A 
ATOM      9  C   UNL     1       6.084  -3.979  23.789  0.00  0.00    -0.011 A 
ATOM     10  C   UNL     1       4.966  -4.799  23.477  0.00  0.00    -0.017 A 
ATOM     11  C   UNL     1       5.085  -5.842  22.543  0.00  0.00    +0.008 A 
ATOM     12  C   UNL     1       6.295  -6.101  21.905  0.00  0.00    +0.001 A 
ATOM     13  C   UNL     1       7.407  -5.330  22.206  0.00  0.00    +0.001 A 
ATOM     14  C   UNL     1       3.732  -4.570  24.097  0.00  0.00    +0.008 A 
ATOM     15  C   UNL     1       3.574  -3.530  25.006  0.00  0.00    +0.001 A 
ATOM     16  C   UNL     1       7.305  -4.289  23.136  0.00  0.00    +0.009 A 
ATOM     17  C   UNL     1       4.650  -2.701  25.305  0.00  0.00    +0.008 A 
ENDBRANCH   3   8
BRANCH   7  18
ATOM     18  C   UNL     1       9.178   2.367  23.900  0.00  0.00    -0.007 A 
ATOM     19  C   UNL     1      10.493   2.293  23.412  0.00  0.00    +0.010 A 
ATOM     20  C   UNL     1      11.314   3.426  23.365  0.00  0.00    +0.020 A 
ATOM     21  C   UNL     1      10.826   4.652  23.801  0.00  0.00    +0.041 A 
ATOM     22 CL   UNL     1      11.824   6.050  23.722  0.00  0.00    -0.084 Cl
ATOM     23  C   UNL     1       9.533   4.749  24.306  0.00  0.00    +0.020 A 
ATOM     24  C   UNL     1       8.721   3.609  24.371  0.00  0.00    +0.010 A 
ENDBRANCH   7  18
BRANCH   1  25
ATOM     25  O   UNL     1       9.163  -0.161  25.791  0.00  0.00    -0.503 OA
ATOM     26  H   UNL     1       9.053   0.533  26.463  0.00  0.00    +0.292 HD
ENDBRANCH   1  25
TORSDOF 3
ENDMDL
MODEL 4
REMARK VINA RESULT:      -7.4      1.430      2.219
REMARK  Name = 
REMARK  3 active torsions:
REMARK  status: ('A' for Active; 'I' for Inactive)
REMARK    1  A    between atoms: O_1  and  C_2
REMARK    2  A    between atoms: C_3  and  C_19
REMARK    3  A    between atoms: C_8  and  C_9
REMARK                            x       y       z     vdW  Elec       q    Type
REMARK                         _______ _______ _______ _____ _____    ______ ____
ROOT
ATOM      1  C   UNL     1       8.534  -2.000  23.695  0.00  0.00    +0.174 C 
ATOM      2  C   UNL     1       7.413  -2.838  23.976  0.00  0.00    +0.175 C 
ATOM      3  C   UNL     1       7.409  -4.181  24.038  0.00  0.00    +0.058 C 
ATOM      4  O   UNL     1       6.304  -2.041  24.203  0.00  0.00    -0.418 OA
ATOM      5  C   UNL     1       6.742  -0.753  24.033  0.00  0.00    +0.349 C 
ATOM      6  O   UNL     1       6.020   0.227  24.137  0.00  0.00    -0.244 OA
ATOM      7  C   UNL     1       8.189  -0.710  23.711  0.00  0.00    +0.111 C 
ENDROOT
BRANCH   3   8
ATOM      8  C   UNL     1       6.259  -5.069  24.341  0.00  0.00    -0.014 A 
ATOM      9  C   UNL     1       6.021  -5.564  25.664  0.00  0.00    -0.011 A 
ATOM     10  C   UNL     1       4.955  -6.481  25.870  0.00  0.00    -0.017 A 
ATOM     11  C   UNL     1       4.704  -7.007  27.149  0.00  0.00    +0.008 A 
ATOM     12  C   UNL     1       5.486  -6.643  28.242  0.00  0.00    +0.001 A 
ATOM     13  C   UNL     1       6.520  -5.735  28.073  0.00  0.00    +0.001 A 
ATOM     14  C   UNL     1       4.147  -6.872  24.796  0.00  0.00    +0.008 A 
ATOM     15  C   UNL     1       4.384  -6.390  23.514  0.00  0.00    +0.001 A 
ATOM     16  C   UNL     1       6.780  -5.201  26.806  0.00  0.00    +0.009 A 
ATOM     17  C   UNL     1       5.439  -5.511  23.288  0.00  0.00    +0.008 A 
ENDBRANCH   3   8
BRANCH   7  18
ATOM     18  C   UNL     1       9.002   0.498  23.522  0.00  0.00    -0.007 A 
ATOM     19  C   UNL     1       9.178   1.412  24.575  0.00  0.00    +0.010 A 
ATOM     20  C   UNL     1       9.964   2.559  24.417  0.00  0.00    +0.020 A 
ATOM     21  C   UNL     1      10.591   2.804  23.201  0.00  0.00    +0.041 A 
ATOM     22 CL   UNL     1      11.577   4.200  23.010  0.00  0.00    -0.084 Cl
ATOM     23  C   UNL     1      10.419   1.925  22.137  0.00  0.00    +0.020 A 
ATOM     24  C   UNL     1       9.615   0.788  22.292  0.00  0.00    +0.010 A 
ENDBRANCH   7  18
BRANCH   1  25
ATOM     25  O   UNL     1       9.763  -2.565  23.508  0.00  0.00    -0.503 OA
ATOM     26  H   UNL     1       9.721  -3.503  23.761  0.00  0.00    +0.292 HD
ENDBRANCH   1  25
TORSDOF 3
ENDMDL
MODEL 5
REMARK VINA RESULT:      -7.3      1.159      2.125
REMARK  Name = 
REMARK  3 active torsions:
REMARK  status: ('A' for Active; 'I' for Inactive)
REMARK    1  A    between atoms: O_1  and  C_2
REMARK    2  A    between atoms: C_3  and  C_19
REMARK    3  A    between atoms: C_8  and  C_9
REMARK                            x       y       z     vdW  Elec       q    Type
REMARK                         _______ _______ _______ _____ _____    ______ ____
ROOT
ATOM      1  C   UNL     1       7.401   0.254  23.057  0.00  0.00    +0.174 C 
ATOM      2  C   UNL     1       7.273  -1.166  23.142  0.00  0.00    +0.175 C 
ATOM      3  C   UNL     1       6.260  -1.911  22.667  0.00  0.00    +0.058 C 
ATOM      4  O   UNL     1       8.386  -1.678  23.785  0.00  0.00    -0.418 OA
ATOM      5  C   UNL     1       9.154  -0.588  24.106  0.00  0.00    +0.349 C 
ATOM      6  O   UNL     1      10.216  -0.660  24.707  0.00  0.00    -0.244 OA
ATOM      7  C   UNL     1       8.532   0.672  23.632  0.00  0.00    +0.111 C 
ENDROOT
BRANCH   3   8
ATOM      8  C   UNL     1       6.114  -3.386  22.734  0.00  0.00    -0.014 A 
ATOM      9  C   UNL     1       5.239  -4.012  23.679  0.00  0.00    -0.011 A 
ATOM     10  C   UNL     1       5.211  -5.431  23.750  0.00  0.00    -0.017 A 
ATOM     11  C   UNL     1       4.384  -6.082  24.681  0.00  0.00    +0.008 A 
ATOM     12  C   UNL     1       3.571  -5.359  25.549  0.00  0.00    +0.001 A 
ATOM     13  C   UNL     1       3.563  -3.974  25.488  0.00  0.00    +0.001 A 
ATOM     14  C   UNL     1       6.015  -6.194  22.895  0.00  0.00    +0.008 A 
ATOM     15  C   UNL     1       6.864  -5.581  21.981  0.00  0.00    +0.001 A 
ATOM     16  C   UNL     1       4.380  -3.311  24.564  0.00  0.00    +0.009 A 
ATOM     17  C   UNL     1       6.924  -4.192  21.913  0.00  0.00    +0.008 A 
ENDBRANCH   3   8
BRANCH   7  18
ATOM     18  C   UNL     1       9.101   2.021  23.750  0.00  0.00    -0.007 A 
ATOM     19  C   UNL     1       8.427   3.018  24.475  0.00  0.00    +0.010 A 
ATOM     20  C   UNL     1       8.963   4.303  24.612  0.00  0.00    +0.020 A 
ATOM     21  C   UNL     1      10.188   4.606  24.029  0.00  0.00    +0.041 A 
ATOM     22 CL   UNL     1      10.862   6.177  24.215  0.00  0.00    -0.084 Cl
ATOM     23  C   UNL     1      10.868   3.642  23.291  0.00  0.00    +0.020 A 
ATOM     24  C   UNL     1      10.319   2.362  23.139  0.00  0.00    +0.010 A 
ENDBRANCH   7  18
BRANCH   1  25
ATOM     25  O   UNL     1       6.450   0.974  22.393  0.00  0.00    -0.503 OA
ATOM     26  H   UNL     1       6.502   0.769  21.445  0.00  0.00    +0.292 HD
ENDBRANCH   1  25
TORSDOF 3
ENDMDL
MODEL 6
REMARK VINA RESULT:      -7.2      3.884      8.648
REMARK  Name = 
REMARK  3 active torsions:
REMARK  status: ('A' for Active; 'I' for Inactive)
REMARK    1  A    between atoms: O_1  and  C_2
REMARK    2  A    between atoms: C_3  and  C_19
REMARK    3  A    between atoms: C_8  and  C_9
REMARK                            x       y       z     vdW  Elec       q    Type
REMARK                         _______ _______ _______ _____ _____    ______ ____
ROOT
ATOM      1  C   UNL     1       6.594  -3.354  23.222  0.00  0.00    +0.174 C 
ATOM      2  C   UNL     1       7.294  -2.192  23.667  0.00  0.00    +0.175 C 
ATOM      3  C   UNL     1       8.199  -1.482  22.972  0.00  0.00    +0.058 C 
ATOM      4  O   UNL     1       6.874  -1.880  24.949  0.00  0.00    -0.418 OA
ATOM      5  C   UNL     1       5.964  -2.852  25.279  0.00  0.00    +0.349 C 
ATOM      6  O   UNL     1       5.395  -2.909  26.359  0.00  0.00    -0.244 OA
ATOM      7  C   UNL     1       5.766  -3.811  24.165  0.00  0.00    +0.111 C 
ENDROOT
BRANCH   3   8
ATOM      8  C   UNL     1       8.926  -0.265  23.410  0.00  0.00    -0.014 A 
ATOM      9  C   UNL     1       8.440   1.048  23.112  0.00  0.00    -0.011 A 
ATOM     10  C   UNL     1       9.228   2.171  23.484  0.00  0.00    -0.017 A 
ATOM     11  C   UNL     1       8.796   3.475  23.188  0.00  0.00    +0.008 A 
ATOM     12  C   UNL     1       7.590   3.701  22.530  0.00  0.00    +0.001 A 
ATOM     13  C   UNL     1       6.792   2.626  22.174  0.00  0.00    +0.001 A 
ATOM     14  C   UNL     1      10.447   1.985  24.146  0.00  0.00    +0.008 A 
ATOM     15  C   UNL     1      10.915   0.708  24.431  0.00  0.00    +0.001 A 
ATOM     16  C   UNL     1       7.207   1.321  22.464  0.00  0.00    +0.009 A 
ATOM     17  C   UNL     1      10.170  -0.405  24.052  0.00  0.00    +0.008 A 
ENDBRANCH   3   8
BRANCH   7  18
ATOM     18  C   UNL     1       4.827  -4.940  24.145  0.00  0.00    -0.007 A 
ATOM     19  C   UNL     1       3.674  -4.894  23.343  0.00  0.00    +0.010 A 
ATOM     20  C   UNL     1       2.778  -5.968  23.300  0.00  0.00    +0.020 A 
ATOM     21  C   UNL     1       3.028  -7.108  24.055  0.00  0.00    +0.041 A 
ATOM     22 CL   UNL     1       1.942  -8.439  23.985  0.00  0.00    -0.084 Cl
ATOM     23  C   UNL     1       4.153  -7.172  24.871  0.00  0.00    +0.020 A 
ATOM     24  C   UNL     1       5.038  -6.087  24.929  0.00  0.00    +0.010 A 
ENDBRANCH   7  18
BRANCH   1  25
ATOM     25  O   UNL     1       6.793  -3.809  21.950  0.00  0.00    -0.503 OA
ATOM     26  H   UNL     1       6.489  -4.730  21.892  0.00  0.00    +0.292 HD
ENDBRANCH   1  25
TORSDOF 3
ENDMDL
MODEL 7
REMARK VINA RESULT:      -7.2      4.095      8.630
REMARK  Name = 
REMARK  3 active torsions:
REMARK  status: ('A' for Active; 'I' for Inactive)
REMARK    1  A    between atoms: O_1  and  C_2
REMARK    2  A    between atoms: C_3  and  C_19
REMARK    3  A    between atoms: C_8  and  C_9
REMARK                            x       y       z     vdW  Elec       q    Type
REMARK                         _______ _______ _______ _____ _____    ______ ____
ROOT
ATOM      1  C   UNL     1       5.090  -2.656  24.420  0.00  0.00    +0.174 C 
ATOM      2  C   UNL     1       5.867  -1.678  23.728  0.00  0.00    +0.175 C 
ATOM      3  C   UNL     1       6.264  -0.484  24.203  0.00  0.00    +0.058 C 
ATOM      4  O   UNL     1       6.180  -2.162  22.470  0.00  0.00    -0.418 OA
ATOM      5  C   UNL     1       5.580  -3.392  22.394  0.00  0.00    +0.349 C 
ATOM      6  O   UNL     1       5.626  -4.109  21.406  0.00  0.00    -0.244 OA
ATOM      7  C   UNL     1       4.875  -3.731  23.655  0.00  0.00    +0.111 C 
ENDROOT
BRANCH   3   8
ATOM      8  C   UNL     1       7.081   0.540  23.508  0.00  0.00    -0.014 A 
ATOM      9  C   UNL     1       8.473   0.712  23.795  0.00  0.00    -0.011 A 
ATOM     10  C   UNL     1       9.179   1.769  23.159  0.00  0.00    -0.017 A 
ATOM     11  C   UNL     1      10.540   1.984  23.433  0.00  0.00    +0.008 A 
ATOM     12  C   UNL     1      11.231   1.170  24.327  0.00  0.00    +0.001 A 
ATOM     13  C   UNL     1      10.573   0.120  24.947  0.00  0.00    +0.001 A 
ATOM     14  C   UNL     1       8.519   2.609  22.254  0.00  0.00    +0.008 A 
ATOM     15  C   UNL     1       7.168   2.439  21.980  0.00  0.00    +0.001 A 
ATOM     16  C   UNL     1       9.218  -0.109  24.682  0.00  0.00    +0.009 A 
ATOM     17  C   UNL     1       6.454   1.426  22.613  0.00  0.00    +0.008 A 
ENDBRANCH   3   8
BRANCH   7  18
ATOM     18  C   UNL     1       4.174  -4.987  23.949  0.00  0.00    -0.007 A 
ATOM     19  C   UNL     1       2.917  -5.251  23.382  0.00  0.00    +0.010 A 
ATOM     20  C   UNL     1       2.243  -6.451  23.638  0.00  0.00    +0.020 A 
ATOM     21  C   UNL     1       2.824  -7.407  24.462  0.00  0.00    +0.041 A 
ATOM     22 CL   UNL     1       2.010  -8.893  24.760  0.00  0.00    -0.084 Cl
ATOM     23  C   UNL     1       4.061  -7.163  25.051  0.00  0.00    +0.020 A 
ATOM     24  C   UNL     1       4.724  -5.952  24.809  0.00  0.00    +0.010 A 
ENDBRANCH   7  18
BRANCH   1  25
ATOM     25  O   UNL     1       4.724  -2.428  25.715  0.00  0.00    -0.503 OA
ATOM     26  H   UNL     1       5.156  -3.086  26.286  0.00  0.00    +0.292 HD
ENDBRANCH   1  25
TORSDOF 3
ENDMDL
MODEL 8
REMARK VINA RESULT:      -7.2      4.441      8.905
REMARK  Name = 
REMARK  3 active torsions:
REMARK  status: ('A' for Active; 'I' for Inactive)
REMARK    1  A    between atoms: O_1  and  C_2
REMARK    2  A    between atoms: C_3  and  C_19
REMARK    3  A    between atoms: C_8  and  C_9
REMARK                            x       y       z     vdW  Elec       q    Type
REMARK                         _______ _______ _______ _____ _____    ______ ____
ROOT
ATOM      1  C   UNL     1       5.312  -4.025  24.218  0.00  0.00    +0.174 C 
ATOM      2  C   UNL     1       6.362  -3.305  23.571  0.00  0.00    +0.175 C 
ATOM      3  C   UNL     1       7.037  -2.252  24.062  0.00  0.00    +0.058 C 
ATOM      4  O   UNL     1       6.605  -3.882  22.336  0.00  0.00    -0.418 OA
ATOM      5  C   UNL     1       5.701  -4.908  22.230  0.00  0.00    +0.349 C 
ATOM      6  O   UNL     1       5.611  -5.633  21.251  0.00  0.00    -0.244 OA
ATOM      7  C   UNL     1       4.860  -5.018  23.447  0.00  0.00    +0.111 C 
ENDROOT
BRANCH   3   8
ATOM      8  C   UNL     1       8.138  -1.500  23.413  0.00  0.00    -0.014 A 
ATOM      9  C   UNL     1       7.948  -0.173  22.911  0.00  0.00    -0.011 A 
ATOM     10  C   UNL     1       9.018   0.459  22.221  0.00  0.00    -0.017 A 
ATOM     11  C   UNL     1       8.862   1.752  21.693  0.00  0.00    +0.008 A 
ATOM     12  C   UNL     1       7.663   2.446  21.834  0.00  0.00    +0.001 A 
ATOM     13  C   UNL     1       6.610   1.863  22.520  0.00  0.00    +0.001 A 
ATOM     14  C   UNL     1      10.238  -0.207  22.057  0.00  0.00    +0.008 A 
ATOM     15  C   UNL     1      10.417  -1.496  22.545  0.00  0.00    +0.001 A 
ATOM     16  C   UNL     1       6.751   0.576  23.054  0.00  0.00    +0.009 A 
ATOM     17  C   UNL     1       9.372  -2.140  23.201  0.00  0.00    +0.008 A 
ENDBRANCH   3   8
BRANCH   7  18
ATOM     18  C   UNL     1       3.832  -6.034  23.705  0.00  0.00    -0.007 A 
ATOM     19  C   UNL     1       4.061  -7.060  24.636  0.00  0.00    +0.010 A 
ATOM     20  C   UNL     1       3.085  -8.026  24.906  0.00  0.00    +0.020 A 
ATOM     21  C   UNL     1       1.860  -7.973  24.251  0.00  0.00    +0.041 A 
ATOM     22 CL   UNL     1       0.649  -9.144  24.598  0.00  0.00    -0.084 Cl
ATOM     23  C   UNL     1       1.614  -6.977  23.310  0.00  0.00    +0.020 A 
ATOM     24  C   UNL     1       2.601  -6.024  23.027  0.00  0.00    +0.010 A 
ENDBRANCH   7  18
BRANCH   1  25
ATOM     25  O   UNL     1       4.946  -3.679  25.487  0.00  0.00    -0.503 OA
ATOM     26  H   UNL     1       4.020  -3.386  25.481  0.00  0.00    +0.292 HD
ENDBRANCH   1  25
TORSDOF 3
ENDMDL
MODEL 9
REMARK VINA RESULT:      -7.1      3.899      8.591
REMARK  Name = 
REMARK  3 active torsions:
REMARK  status: ('A' for Active; 'I' for Inactive)
REMARK    1  A    between atoms: O_1  and  C_2
REMARK    2  A    between atoms: C_3  and  C_19
REMARK    3  A    between atoms: C_8  and  C_9
REMARK                            x       y       z     vdW  Elec       q    Type
REMARK                         _______ _______ _______ _____ _____    ______ ____
ROOT
ATOM      1  C   UNL     1       6.058  -2.925  24.437  0.00  0.00    +0.174 C 
ATOM      2  C   UNL     1       6.843  -1.932  23.777  0.00  0.00    +0.175 C 
ATOM      3  C   UNL     1       7.591  -0.979  24.360  0.00  0.00    +0.058 C 
ATOM      4  O   UNL     1       6.736  -2.113  22.409  0.00  0.00    -0.418 OA
ATOM      5  C   UNL     1       5.882  -3.174  22.249  0.00  0.00    +0.349 C 
ATOM      6  O   UNL     1       5.536  -3.607  21.160  0.00  0.00    -0.244 OA
ATOM      7  C   UNL     1       5.440  -3.717  23.556  0.00  0.00    +0.111 C 
ENDROOT
BRANCH   3   8
ATOM      8  C   UNL     1       8.423   0.053  23.694  0.00  0.00    -0.014 A 
ATOM      9  C   UNL     1       8.452   1.408  24.156  0.00  0.00    -0.011 A 
ATOM     10  C   UNL     1       9.201   2.366  23.421  0.00  0.00    -0.017 A 
ATOM     11  C   UNL     1       9.236   3.710  23.829  0.00  0.00    +0.008 A 
ATOM     12  C   UNL     1       8.545   4.136  24.961  0.00  0.00    +0.001 A 
ATOM     13  C   UNL     1       7.824   3.219  25.709  0.00  0.00    +0.001 A 
ATOM     14  C   UNL     1       9.908   1.978  22.276  0.00  0.00    +0.008 A 
ATOM     15  C   UNL     1       9.873   0.662  21.831  0.00  0.00    +0.001 A 
ATOM     16  C   UNL     1       7.782   1.876  25.316  0.00  0.00    +0.009 A 
ATOM     17  C   UNL     1       9.126  -0.286  22.523  0.00  0.00    +0.008 A 
ENDBRANCH   3   8
BRANCH   7  18
ATOM     18  C   UNL     1       4.573  -4.883  23.766  0.00  0.00    -0.007 A 
ATOM     19  C   UNL     1       3.220  -4.842  23.390  0.00  0.00    +0.010 A 
ATOM     20  C   UNL     1       2.384  -5.950  23.566  0.00  0.00    +0.020 A 
ATOM     21  C   UNL     1       2.895  -7.120  24.116  0.00  0.00    +0.041 A 
ATOM     22 CL   UNL     1       1.877  -8.493  24.312  0.00  0.00    -0.084 Cl
ATOM     23  C   UNL     1       4.227  -7.182  24.513  0.00  0.00    +0.020 A 
ATOM     24  C   UNL     1       5.056  -6.064  24.354  0.00  0.00    +0.010 A 
ENDBRANCH   7  18
BRANCH   1  25
ATOM     25  O   UNL     1       6.068  -2.989  25.801  0.00  0.00    -0.503 OA
ATOM     26  H   UNL     1       5.156  -2.915  26.128  0.00  0.00    +0.292 HD
ENDBRANCH   1  25
TORSDOF 3
ENDMDL
