MODEL 1
REMARK VINA RESULT:      -5.1      0.000      0.000
REMARK  Name = 
REMARK  5 active torsions:
REMARK  status: ('A' for Active; 'I' for Inactive)
REMARK    1  A    between atoms: O_1  and  C_2
REMARK    2  A    between atoms: C_2  and  C_3
REMARK    3  A    between atoms: C_5  and  O_7
REMARK    4  A    between atoms: C_8  and  O_10
REMARK    5  A    between atoms: C_14  and  N_18
REMARK                            x       y       z     vdW  Elec       q    Type
REMARK                         _______ _______ _______ _____ _____    ______ ____
ROOT
ATOM      1  C   UNL     1       6.470  -4.642  26.094  0.00  0.00    +0.088 C 
ATOM      2  C   UNL     1       6.847  -4.097  24.705  0.00  0.00    +0.211 C 
ATOM      3  C   UNL     1       8.361  -4.290  24.558  0.00  0.00    +0.182 C 
ATOM      4  N   UNL     1       8.533  -5.210  23.420  0.00  0.00    -0.223 NA
ATOM      5  C   UNL     1       7.333  -5.420  23.003  0.00  0.00    +0.314 C 
ATOM      6  C   UNL     1       8.826  -4.897  25.889  0.00  0.00    +0.171 C 
ATOM      7  O   UNL     1       6.286  -4.857  23.643  0.00  0.00    -0.457 OA
ATOM      8  C   UNL     1       7.586  -5.632  26.407  0.00  0.00    +0.154 C 
ENDROOT
BRANCH   5   9
ATOM      9  N   UNL     1       6.978  -6.197  21.951  0.00  0.00    -0.211 NA
ATOM     10  C   UNL     1       6.175  -5.682  21.086  0.00  0.00    +0.146 C 
ENDBRANCH   5   9
BRANCH   6  11
ATOM     11  O   UNL     1       9.954  -5.752  25.783  0.00  0.00    -0.387 OA
ATOM     12  H   UNL     1       9.684  -6.626  26.117  0.00  0.00    +0.210 HD
ENDBRANCH   6  11
BRANCH   8  13
ATOM     13  O   UNL     1       7.695  -5.912  27.798  0.00  0.00    -0.389 OA
ATOM     14  H   UNL     1       8.327  -6.644  27.925  0.00  0.00    +0.210 HD
ENDBRANCH   8  13
BRANCH   1  15
ATOM     15  C   UNL     1       5.087  -5.265  26.199  0.00  0.00    +0.165 C 
BRANCH  15  16
ATOM     16  O   UNL     1       5.193  -6.663  25.962  0.00  0.00    -0.395 OA
ATOM     17  H   UNL     1       5.377  -6.774  25.012  0.00  0.00    +0.209 HD
ENDBRANCH  15  16
ENDBRANCH   1  15
TORSDOF 5
ENDMDL
MODEL 2
REMARK VINA RESULT:      -5.0      4.704      5.858
REMARK  Name = 
REMARK  5 active torsions:
REMARK  status: ('A' for Active; 'I' for Inactive)
REMARK    1  A    between atoms: O_1  and  C_2
REMARK    2  A    between atoms: C_2  and  C_3
REMARK    3  A    between atoms: C_5  and  O_7
REMARK    4  A    between atoms: C_8  and  O_10
REMARK    5  A    between atoms: C_14  and  N_18
REMARK                            x       y       z     vdW  Elec       q    Type
REMARK                         _______ _______ _______ _____ _____    ______ ____
ROOT
ATOM      1  C   UNL     1      10.027   0.114  22.683  0.00  0.00    +0.088 C 
ATOM      2  C   UNL     1      10.015  -1.417  22.515  0.00  0.00    +0.211 C 
ATOM      3  C   UNL     1       9.838  -2.008  23.918  0.00  0.00    +0.182 C 
ATOM      4  N   UNL     1       8.561  -2.741  23.880  0.00  0.00    -0.223 NA
ATOM      5  C   UNL     1       8.162  -2.612  22.663  0.00  0.00    +0.314 C 
ATOM      6  C   UNL     1       9.803  -0.802  24.868  0.00  0.00    +0.171 C 
ATOM      7  O   UNL     1       8.886  -1.883  21.787  0.00  0.00    -0.457 OA
ATOM      8  C   UNL     1       9.276   0.337  23.991  0.00  0.00    +0.154 C 
ENDROOT
BRANCH   5   9
ATOM      9  N   UNL     1       7.029  -3.134  22.134  0.00  0.00    -0.211 NA
ATOM     10  C   UNL     1       6.936  -4.419  22.100  0.00  0.00    +0.146 C 
ENDBRANCH   5   9
BRANCH   6  11
ATOM     11  O   UNL     1       9.017  -0.994  26.034  0.00  0.00    -0.387 OA
ATOM     12  H   UNL     1       9.634  -1.129  26.776  0.00  0.00    +0.210 HD
ENDBRANCH   6  11
BRANCH   8  13
ATOM     13  O   UNL     1       9.552   1.606  24.571  0.00  0.00    -0.389 OA
ATOM     14  H   UNL     1       8.717   2.000  24.884  0.00  0.00    +0.210 HD
ENDBRANCH   8  13
BRANCH   1  15
ATOM     15  C   UNL     1       9.439   0.904  21.526  0.00  0.00    +0.165 C 
BRANCH  15  16
ATOM     16  O   UNL     1       9.967   2.223  21.555  0.00  0.00    -0.395 OA
ATOM     17  H   UNL     1      10.299   2.413  20.660  0.00  0.00    +0.209 HD
ENDBRANCH  15  16
ENDBRANCH   1  15
TORSDOF 5
ENDMDL
MODEL 3
REMARK VINA RESULT:      -4.9      2.621      3.781
REMARK  Name = 
REMARK  5 active torsions:
REMARK  status: ('A' for Active; 'I' for Inactive)
REMARK    1  A    between atoms: O_1  and  C_2
REMARK    2  A    between atoms: C_2  and  C_3
REMARK    3  A    between atoms: C_5  and  O_7
REMARK    4  A    between atoms: C_8  and  O_10
REMARK    5  A    between atoms: C_14  and  N_18
REMARK                            x       y       z     vdW  Elec       q    Type
REMARK                         _______ _______ _______ _____ _____    ______ ____
ROOT
ATOM      1  C   UNL     1       6.656  -3.489  23.711  0.00  0.00    +0.088 C 
ATOM      2  C   UNL     1       7.727  -2.508  24.222  0.00  0.00    +0.211 C 
ATOM      3  C   UNL     1       8.876  -3.363  24.768  0.00  0.00    +0.182 C 
ATOM      4  N   UNL     1      10.044  -3.034  23.931  0.00  0.00    -0.223 NA
ATOM      5  C   UNL     1       9.608  -2.128  23.127  0.00  0.00    +0.314 C 
ATOM      6  C   UNL     1       8.416  -4.818  24.602  0.00  0.00    +0.171 C 
ATOM      7  O   UNL     1       8.316  -1.742  23.180  0.00  0.00    -0.457 OA
ATOM      8  C   UNL     1       7.444  -4.761  23.420  0.00  0.00    +0.154 C 
ENDROOT
BRANCH   5   9
ATOM      9  N   UNL     1      10.330  -1.496  22.170  0.00  0.00    -0.211 NA
ATOM     10  C   UNL     1       9.897  -0.351  21.770  0.00  0.00    +0.146 C 
ENDBRANCH   5   9
BRANCH   6  11
ATOM     11  O   UNL     1       9.468  -5.747  24.391  0.00  0.00    -0.387 OA
ATOM     12  H   UNL     1       9.436  -6.009  23.453  0.00  0.00    +0.210 HD
ENDBRANCH   6  11
BRANCH   8  13
ATOM     13  O   UNL     1       6.619  -5.919  23.374  0.00  0.00    -0.389 OA
ATOM     14  H   UNL     1       6.987  -6.595  23.973  0.00  0.00    +0.210 HD
ENDBRANCH   8  13
BRANCH   1  15
ATOM     15  C   UNL     1       5.850  -3.012  22.514  0.00  0.00    +0.165 C 
BRANCH  15  16
ATOM     16  O   UNL     1       4.840  -3.971  22.228  0.00  0.00    -0.395 OA
ATOM     17  H   UNL     1       4.566  -4.353  23.081  0.00  0.00    +0.209 HD
ENDBRANCH  15  16
ENDBRANCH   1  15
TORSDOF 5
ENDMDL
MODEL 4
REMARK VINA RESULT:      -4.8      5.988      7.467
REMARK  Name = 
REMARK  5 active torsions:
REMARK  status: ('A' for Active; 'I' for Inactive)
REMARK    1  A    between atoms: O_1  and  C_2
REMARK    2  A    between atoms: C_2  and  C_3
REMARK    3  A    between atoms: C_5  and  O_7
REMARK    4  A    between atoms: C_8  and  O_10
REMARK    5  A    between atoms: C_14  and  N_18
REMARK                            x       y       z     vdW  Elec       q    Type
REMARK                         _______ _______ _______ _____ _____    ______ ____
ROOT
ATOM      1  C   UNL     1      10.334  -0.726  23.351  0.00  0.00    +0.088 C 
ATOM      2  C   UNL     1      10.413   0.437  24.358  0.00  0.00    +0.211 C 
ATOM      3  C   UNL     1      10.200   1.724  23.554  0.00  0.00    +0.182 C 
ATOM      4  N   UNL     1       8.968   2.327  24.093  0.00  0.00    -0.223 NA
ATOM      5  C   UNL     1       8.623   1.534  25.047  0.00  0.00    +0.314 C 
ATOM      6  C   UNL     1      10.052   1.274  22.094  0.00  0.00    +0.171 C 
ATOM      7  O   UNL     1       9.349   0.424  25.300  0.00  0.00    -0.457 OA
ATOM      8  C   UNL     1       9.507  -0.153  22.205  0.00  0.00    +0.154 C 
ENDROOT
BRANCH   5   9
ATOM      9  N   UNL     1       7.548   1.681  25.859  0.00  0.00    -0.211 NA
ATOM     10  C   UNL     1       7.328   2.858  26.332  0.00  0.00    +0.146 C 
ENDBRANCH   5   9
BRANCH   6  11
ATOM     11  O   UNL     1       9.221   2.108  21.302  0.00  0.00    -0.387 OA
ATOM     12  H   UNL     1       8.395   2.246  21.800  0.00  0.00    +0.210 HD
ENDBRANCH   6  11
BRANCH   8  13
ATOM     13  O   UNL     1       9.685  -0.870  20.990  0.00  0.00    -0.389 OA
ATOM     14  H   UNL     1       8.810  -1.117  20.637  0.00  0.00    +0.210 HD
ENDBRANCH   8  13
BRANCH   1  15
ATOM     15  C   UNL     1       9.762  -2.024  23.895  0.00  0.00    +0.165 C 
BRANCH  15  16
ATOM     16  O   UNL     1       8.359  -2.041  23.666  0.00  0.00    -0.395 OA
ATOM     17  H   UNL     1       8.212  -2.564  22.858  0.00  0.00    +0.209 HD
ENDBRANCH  15  16
ENDBRANCH   1  15
TORSDOF 5
ENDMDL
MODEL 5
REMARK VINA RESULT:      -4.7      5.872      6.882
REMARK  Name = 
REMARK  5 active torsions:
REMARK  status: ('A' for Active; 'I' for Inactive)
REMARK    1  A    between atoms: O_1  and  C_2
REMARK    2  A    between atoms: C_2  and  C_3
REMARK    3  A    between atoms: C_5  and  O_7
REMARK    4  A    between atoms: C_8  and  O_10
REMARK    5  A    between atoms: C_14  and  N_18
REMARK                            x       y       z     vdW  Elec       q    Type
REMARK                         _______ _______ _______ _____ _____    ______ ____
ROOT
ATOM      1  C   UNL     1       7.829   1.406  23.929  0.00  0.00    +0.088 C 
ATOM      2  C   UNL     1       7.760   0.334  22.825  0.00  0.00    +0.211 C 
ATOM      3  C   UNL     1       8.677   0.813  21.695  0.00  0.00    +0.182 C 
ATOM      4  N   UNL     1       9.733  -0.209  21.583  0.00  0.00    -0.223 NA
ATOM      5  C   UNL     1       9.403  -1.097  22.456  0.00  0.00    +0.314 C 
ATOM      6  C   UNL     1       9.215   2.175  22.155  0.00  0.00    +0.171 C 
ATOM      7  O   UNL     1       8.312  -0.911  23.230  0.00  0.00    -0.457 OA
ATOM      8  C   UNL     1       9.170   2.087  23.684  0.00  0.00    +0.154 C 
ENDROOT
BRANCH   5   9
ATOM      9  N   UNL     1      10.068  -2.249  22.714  0.00  0.00    -0.211 NA
ATOM     10  C   UNL     1       9.968  -2.729  23.905  0.00  0.00    +0.146 C 
ENDBRANCH   5   9
BRANCH   6  11
ATOM     11  O   UNL     1      10.511   2.491  21.671  0.00  0.00    -0.387 OA
ATOM     12  H   UNL     1      11.083   2.628  22.448  0.00  0.00    +0.210 HD
ENDBRANCH   6  11
BRANCH   8  13
ATOM     13  O   UNL     1       9.245   3.378  24.278  0.00  0.00    -0.389 OA
ATOM     14  H   UNL     1       8.919   4.040  23.640  0.00  0.00    +0.210 HD
ENDBRANCH   8  13
BRANCH   1  15
ATOM     15  C   UNL     1       7.684   0.890  25.351  0.00  0.00    +0.165 C 
BRANCH  15  16
ATOM     16  O   UNL     1       8.974   0.581  25.862  0.00  0.00    -0.395 OA
ATOM     17  H   UNL     1       9.418   0.031  25.191  0.00  0.00    +0.209 HD
ENDBRANCH  15  16
ENDBRANCH   1  15
TORSDOF 5
ENDMDL
MODEL 6
REMARK VINA RESULT:      -4.7      5.831      7.353
REMARK  Name = 
REMARK  5 active torsions:
REMARK  status: ('A' for Active; 'I' for Inactive)
REMARK    1  A    between atoms: O_1  and  C_2
REMARK    2  A    between atoms: C_2  and  C_3
REMARK    3  A    between atoms: C_5  and  O_7
REMARK    4  A    between atoms: C_8  and  O_10
REMARK    5  A    between atoms: C_14  and  N_18
REMARK                            x       y       z     vdW  Elec       q    Type
REMARK                         _______ _______ _______ _____ _____    ______ ____
ROOT
ATOM      1  C   UNL     1      10.040   0.594  22.230  0.00  0.00    +0.088 C 
ATOM      2  C   UNL     1      10.538  -0.050  23.537  0.00  0.00    +0.211 C 
ATOM      3  C   UNL     1      10.381   1.011  24.633  0.00  0.00    +0.182 C 
ATOM      4  N   UNL     1       9.420   0.444  25.596  0.00  0.00    -0.223 NA
ATOM      5  C   UNL     1       9.160  -0.726  25.127  0.00  0.00    +0.314 C 
ATOM      6  C   UNL     1       9.841   2.258  23.918  0.00  0.00    +0.171 C 
ATOM      7  O   UNL     1       9.720  -1.130  23.967  0.00  0.00    -0.457 OA
ATOM      8  C   UNL     1       9.095   1.691  22.707  0.00  0.00    +0.154 C 
ENDROOT
BRANCH   5   9
ATOM      9  N   UNL     1       8.331  -1.643  25.683  0.00  0.00    -0.211 NA
ATOM     10  C   UNL     1       7.649  -1.270  26.710  0.00  0.00    +0.146 C 
ENDBRANCH   5   9
BRANCH   6  11
ATOM     11  O   UNL     1       9.015   3.086  24.723  0.00  0.00    -0.387 OA
ATOM     12  H   UNL     1       8.442   2.496  25.246  0.00  0.00    +0.210 HD
ENDBRANCH   6  11
BRANCH   8  13
ATOM     13  O   UNL     1       8.875   2.692  21.721  0.00  0.00    -0.389 OA
ATOM     14  H   UNL     1       7.961   3.022  21.802  0.00  0.00    +0.210 HD
ENDBRANCH   8  13
BRANCH   1  15
ATOM     15  C   UNL     1       9.384  -0.356  21.242  0.00  0.00    +0.165 C 
BRANCH  15  16
ATOM     16  O   UNL     1      10.022  -1.623  21.329  0.00  0.00    -0.395 OA
ATOM     17  H   UNL     1      10.493  -1.643  22.181  0.00  0.00    +0.209 HD
ENDBRANCH  15  16
ENDBRANCH   1  15
TORSDOF 5
ENDMDL
MODEL 7
REMARK VINA RESULT:      -4.7      2.046      3.623
REMARK  Name = 
REMARK  5 active torsions:
REMARK  status: ('A' for Active; 'I' for Inactive)
REMARK    1  A    between atoms: O_1  and  C_2
REMARK    2  A    between atoms: C_2  and  C_3
REMARK    3  A    between atoms: C_5  and  O_7
REMARK    4  A    between atoms: C_8  and  O_10
REMARK    5  A    between atoms: C_14  and  N_18
REMARK                            x       y       z     vdW  Elec       q    Type
REMARK                         _______ _______ _______ _____ _____    ______ ____
ROOT
ATOM      1  C   UNL     1       7.523  -5.204  25.420  0.00  0.00    +0.088 C 
ATOM      2  C   UNL     1       8.329  -4.939  24.135  0.00  0.00    +0.211 C 
ATOM      3  C   UNL     1       7.360  -4.295  23.137  0.00  0.00    +0.182 C 
ATOM      4  N   UNL     1       7.907  -2.954  22.865  0.00  0.00    -0.223 NA
ATOM      5  C   UNL     1       8.998  -2.916  23.549  0.00  0.00    +0.314 C 
ATOM      6  C   UNL     1       6.004  -4.249  23.856  0.00  0.00    +0.171 C 
ATOM      7  O   UNL     1       9.352  -3.969  24.316  0.00  0.00    -0.457 OA
ATOM      8  C   UNL     1       6.380  -4.197  25.340  0.00  0.00    +0.154 C 
ENDROOT
BRANCH   5   9
ATOM      9  N   UNL     1       9.869  -1.880  23.606  0.00  0.00    -0.211 NA
ATOM     10  C   UNL     1      10.370  -1.473  22.491  0.00  0.00    +0.146 C 
ENDBRANCH   5   9
BRANCH   6  11
ATOM     11  O   UNL     1       5.171  -3.167  23.472  0.00  0.00    -0.387 OA
ATOM     12  H   UNL     1       5.071  -2.591  24.252  0.00  0.00    +0.210 HD
ENDBRANCH   6  11
BRANCH   8  13
ATOM     13  O   UNL     1       5.278  -4.554  26.165  0.00  0.00    -0.389 OA
ATOM     14  H   UNL     1       5.593  -5.136  26.881  0.00  0.00    +0.210 HD
ENDBRANCH   8  13
BRANCH   1  15
ATOM     15  C   UNL     1       8.307  -5.099  26.717  0.00  0.00    +0.165 C 
BRANCH  15  16
ATOM     16  O   UNL     1       7.687  -5.923  27.696  0.00  0.00    -0.395 OA
ATOM     17  H   UNL     1       8.399  -6.421  28.136  0.00  0.00    +0.209 HD
ENDBRANCH  15  16
ENDBRANCH   1  15
TORSDOF 5
ENDMDL
MODEL 8
REMARK VINA RESULT:      -4.6      2.066      3.022
REMARK  Name = 
REMARK  5 active torsions:
REMARK  status: ('A' for Active; 'I' for Inactive)
REMARK    1  A    between atoms: O_1  and  C_2
REMARK    2  A    between atoms: C_2  and  C_3
REMARK    3  A    between atoms: C_5  and  O_7
REMARK    4  A    between atoms: C_8  and  O_10
REMARK    5  A    between atoms: C_14  and  N_18
REMARK                            x       y       z     vdW  Elec       q    Type
REMARK                         _______ _______ _______ _____ _____    ______ ____
ROOT
ATOM      1  C   UNL     1       5.551  -4.562  25.258  0.00  0.00    +0.088 C 
ATOM      2  C   UNL     1       6.542  -3.419  25.545  0.00  0.00    +0.211 C 
ATOM      3  C   UNL     1       7.337  -3.832  26.789  0.00  0.00    +0.182 C 
ATOM      4  N   UNL     1       8.738  -3.935  26.345  0.00  0.00    -0.223 NA
ATOM      5  C   UNL     1       8.702  -3.583  25.108  0.00  0.00    +0.314 C 
ATOM      6  C   UNL     1       6.749  -5.185  27.217  0.00  0.00    +0.171 C 
ATOM      7  O   UNL     1       7.523  -3.271  24.528  0.00  0.00    -0.457 OA
ATOM      8  C   UNL     1       6.202  -5.774  25.914  0.00  0.00    +0.154 C 
ENDROOT
BRANCH   5   9
ATOM      9  N   UNL     1       9.763  -3.502  24.269  0.00  0.00    -0.211 NA
ATOM     10  C   UNL     1       9.929  -2.391  23.640  0.00  0.00    +0.146 C 
ENDBRANCH   5   9
BRANCH   6  11
ATOM     11  O   UNL     1       7.672  -6.052  27.857  0.00  0.00    -0.387 OA
ATOM     12  H   UNL     1       8.270  -5.494  28.387  0.00  0.00    +0.210 HD
ENDBRANCH   6  11
BRANCH   8  13
ATOM     13  O   UNL     1       5.275  -6.822  26.170  0.00  0.00    -0.389 OA
ATOM     14  H   UNL     1       5.603  -7.361  26.914  0.00  0.00    +0.210 HD
ENDBRANCH   8  13
BRANCH   1  15
ATOM     15  C   UNL     1       5.224  -4.792  23.792  0.00  0.00    +0.165 C 
BRANCH  15  16
ATOM     16  O   UNL     1       6.116  -5.768  23.270  0.00  0.00    -0.395 OA
ATOM     17  H   UNL     1       5.682  -6.158  22.491  0.00  0.00    +0.209 HD
ENDBRANCH  15  16
ENDBRANCH   1  15
TORSDOF 5
ENDMDL
MODEL 9
REMARK VINA RESULT:      -4.6      1.995      3.146
REMARK  Name = 
REMARK  5 active torsions:
REMARK  status: ('A' for Active; 'I' for Inactive)
REMARK    1  A    between atoms: O_1  and  C_2
REMARK    2  A    between atoms: C_2  and  C_3
REMARK    3  A    between atoms: C_5  and  O_7
REMARK    4  A    between atoms: C_8  and  O_10
REMARK    5  A    between atoms: C_14  and  N_18
REMARK                            x       y       z     vdW  Elec       q    Type
REMARK                         _______ _______ _______ _____ _____    ______ ____
ROOT
ATOM      1  C   UNL     1       7.328  -4.294  25.455  0.00  0.00    +0.088 C 
ATOM      2  C   UNL     1       5.899  -4.416  24.894  0.00  0.00    +0.211 C 
ATOM      3  C   UNL     1       6.040  -4.860  23.433  0.00  0.00    +0.182 C 
ATOM      4  N   UNL     1       5.383  -6.176  23.355  0.00  0.00    -0.223 NA
ATOM      5  C   UNL     1       4.925  -6.369  24.543  0.00  0.00    +0.314 C 
ATOM      6  C   UNL     1       7.552  -4.934  23.175  0.00  0.00    +0.171 C 
ATOM      7  O   UNL     1       5.151  -5.455  25.511  0.00  0.00    -0.457 OA
ATOM      8  C   UNL     1       8.146  -5.216  24.558  0.00  0.00    +0.154 C 
ENDROOT
BRANCH   5   9
ATOM      9  N   UNL     1       4.220  -7.448  24.962  0.00  0.00    -0.211 NA
ATOM     10  C   UNL     1       2.986  -7.518  24.601  0.00  0.00    +0.146 C 
ENDBRANCH   5   9
BRANCH   6  11
ATOM     11  O   UNL     1       7.937  -5.906  22.214  0.00  0.00    -0.387 OA
ATOM     12  H   UNL     1       8.329  -5.425  21.462  0.00  0.00    +0.210 HD
ENDBRANCH   6  11
BRANCH   8  13
ATOM     13  O   UNL     1       9.537  -4.922  24.593  0.00  0.00    -0.389 OA
ATOM     14  H   UNL     1       9.987  -5.437  23.899  0.00  0.00    +0.210 HD
ENDBRANCH   8  13
BRANCH   1  15
ATOM     15  C   UNL     1       7.481  -4.623  26.931  0.00  0.00    +0.165 C 
BRANCH  15  16
ATOM     16  O   UNL     1       7.904  -5.974  27.059  0.00  0.00    -0.395 OA
ATOM     17  H   UNL     1       8.228  -6.251  26.184  0.00  0.00    +0.209 HD
ENDBRANCH  15  16
ENDBRANCH   1  15
TORSDOF 5
ENDMDL
