MODEL 1
REMARK VINA RESULT:      -6.5      0.000      0.000
REMARK  Name = 
REMARK  14 active torsions:
REMARK  status: ('A' for Active; 'I' for Inactive)
REMARK    1  A    between atoms: C_2  and  C_3
REMARK    2  A    between atoms: C_3  and  N_4
REMARK    3  A    between atoms: N_4  and  C_5
REMARK    4  A    between atoms: N_4  and  C_6
REMARK    5  A    between atoms: C_6  and  C_7
REMARK    6  A    between atoms: C_7  and  C_8
REMARK    7  A    between atoms: C_8  and  C_9
REMARK    8  A    between atoms: C_9  and  O_10
REMARK    9  A    between atoms: O_10  and  N_11
REMARK   10  A    between atoms: C_13  and  N_15
REMARK   11  A    between atoms: C_16  and  C_17
REMARK   12  A    between atoms: C_21  and  N_22
REMARK   13  A    between atoms: C_27  and  O_29
REMARK   14  A    between atoms: C_30  and  O_32
REMARK                            x       y       z     vdW  Elec       q    Type
REMARK                         _______ _______ _______ _____ _____    ______ ____
ROOT
ATOM      1  C   UNL     1       8.341  -2.281  25.057  0.00  0.00    +0.166 C 
ATOM      2  C   UNL     1       8.845  -3.212  23.953  0.00  0.00    +0.177 C 
ATOM      3  C   UNL     1       8.497  -4.624  24.425  0.00  0.00    +0.195 C 
ATOM      4  C   UNL     1       7.698  -4.394  25.718  0.00  0.00    +0.254 C 
ATOM      5  O   UNL     1       7.319  -3.012  25.755  0.00  0.00    -0.347 OA
ENDROOT
BRANCH   4   6
ATOM      6  N   UNL     1       6.522  -5.205  25.955  0.00  0.00    -0.279 N 
ATOM      7  C   UNL     1       6.207  -5.836  27.142  0.00  0.00    +0.168 A 
ATOM      8  C   UNL     1       4.935  -6.343  26.958  0.00  0.00    +0.148 A 
ATOM      9  C   UNL     1       4.327  -6.971  28.057  0.00  0.00    +0.147 A 
ATOM     10  N   UNL     1       5.024  -7.071  29.210  0.00  0.00    -0.219 NA
ATOM     11  C   UNL     1       6.267  -6.547  29.249  0.00  0.00    +0.225 A 
ATOM     12  N   UNL     1       4.493  -6.099  25.686  0.00  0.00    -0.223 NA
ATOM     13  N   UNL     1       6.938  -5.906  28.270  0.00  0.00    -0.216 NA
ATOM     14  C   UNL     1       5.475  -5.458  25.071  0.00  0.00    +0.137 A 
BRANCH   9  15
ATOM     15  N   UNL     1       3.038  -7.486  28.015  0.00  0.00    -0.341 N 
ATOM     16  H   UNL     1       2.567  -7.412  28.907  0.00  0.00    +0.144 HD
ATOM     17  H   UNL     1       2.979  -8.370  27.521  0.00  0.00    +0.144 HD
ENDBRANCH   9  15
BRANCH  14  18
ATOM     18  C   UNL     1       5.408  -5.003  23.726  0.00  0.00    +0.039 C 
ATOM     19  C   UNL     1       4.907  -3.838  23.298  0.00  0.00    +0.012 C 
ENDBRANCH  14  18
ENDBRANCH   4   6
BRANCH   2  20
ATOM     20  O   UNL     1      10.247  -3.043  23.741  0.00  0.00    -0.386 OA
ATOM     21  H   UNL     1      10.669  -3.835  24.139  0.00  0.00    +0.210 HD
ENDBRANCH   2  20
BRANCH   3  22
ATOM     22  O   UNL     1       9.705  -5.370  24.664  0.00  0.00    -0.385 OA
ATOM     23  H   UNL     1       9.464  -6.113  25.249  0.00  0.00    +0.210 HD
ENDBRANCH   3  22
BRANCH   1  24
ATOM     24  C   UNL     1       7.760  -0.984  24.455  0.00  0.00    +0.118 C 
BRANCH  24  25
ATOM     25  N   UNL     1       8.336   0.296  24.933  0.00  0.00    -0.303 NA
ATOM     26  C   UNL     1       7.505   0.892  25.985  0.00  0.00    +0.105 C 
BRANCH  25  27
ATOM     27  C   UNL     1       9.715   0.114  25.440  0.00  0.00    +0.084 C 
BRANCH  27  28
ATOM     28  C   UNL     1      10.774   0.595  24.442  0.00  0.00    +0.018 C 
BRANCH  28  29
ATOM     29  C   UNL     1      10.256   1.646  23.463  0.00  0.00    +0.031 C 
BRANCH  29  30
ATOM     30  C   UNL     1      10.028   0.990  22.104  0.00  0.00    +0.185 C 
BRANCH  30  31
ATOM     31  O   UNL     1      10.372  -0.395  22.169  0.00  0.00    -0.302 OA
BRANCH  31  32
ATOM     32  N   UNL     1       9.530  -1.106  21.213  0.00  0.00    -0.215 NA
ATOM     33  H   UNL     1       8.654  -1.180  21.733  0.00  0.00    +0.150 HD
ATOM     34  H   UNL     1       9.375  -0.381  20.510  0.00  0.00    +0.150 HD
ENDBRANCH  31  32
ENDBRANCH  30  31
ENDBRANCH  29  30
ENDBRANCH  28  29
ENDBRANCH  27  28
ENDBRANCH  25  27
ENDBRANCH  24  25
ENDBRANCH   1  24
TORSDOF 13
ENDMDL
MODEL 2
REMARK VINA RESULT:      -6.4      3.097      4.885
REMARK  Name = 
REMARK  14 active torsions:
REMARK  status: ('A' for Active; 'I' for Inactive)
REMARK    1  A    between atoms: C_2  and  C_3
REMARK    2  A    between atoms: C_3  and  N_4
REMARK    3  A    between atoms: N_4  and  C_5
REMARK    4  A    between atoms: N_4  and  C_6
REMARK    5  A    between atoms: C_6  and  C_7
REMARK    6  A    between atoms: C_7  and  C_8
REMARK    7  A    between atoms: C_8  and  C_9
REMARK    8  A    between atoms: C_9  and  O_10
REMARK    9  A    between atoms: O_10  and  N_11
REMARK   10  A    between atoms: C_13  and  N_15
REMARK   11  A    between atoms: C_16  and  C_17
REMARK   12  A    between atoms: C_21  and  N_22
REMARK   13  A    between atoms: C_27  and  O_29
REMARK   14  A    between atoms: C_30  and  O_32
REMARK                            x       y       z     vdW  Elec       q    Type
REMARK                         _______ _______ _______ _____ _____    ______ ____
ROOT
ATOM      1  C   UNL     1       9.612   1.415  23.860  0.00  0.00    +0.166 C 
ATOM      2  C   UNL     1       9.004   1.291  22.461  0.00  0.00    +0.177 C 
ATOM      3  C   UNL     1       8.758  -0.205  22.259  0.00  0.00    +0.195 C 
ATOM      4  C   UNL     1       9.128  -0.826  23.616  0.00  0.00    +0.254 C 
ATOM      5  O   UNL     1       9.203   0.237  24.575  0.00  0.00    -0.347 OA
ENDROOT
BRANCH   4   6
ATOM      6  N   UNL     1       8.281  -1.874  24.148  0.00  0.00    -0.279 N 
ATOM      7  C   UNL     1       8.702  -3.131  24.531  0.00  0.00    +0.168 A 
ATOM      8  C   UNL     1       7.601  -3.719  25.123  0.00  0.00    +0.148 A 
ATOM      9  C   UNL     1       7.777  -4.992  25.687  0.00  0.00    +0.147 A 
ATOM     10  N   UNL     1       8.991  -5.578  25.593  0.00  0.00    -0.219 NA
ATOM     11  C   UNL     1       9.978  -4.899  24.972  0.00  0.00    +0.225 A 
ATOM     12  N   UNL     1       6.514  -2.892  25.057  0.00  0.00    -0.223 NA
ATOM     13  N   UNL     1       9.930  -3.670  24.417  0.00  0.00    -0.216 NA
ATOM     14  C   UNL     1       6.916  -1.802  24.422  0.00  0.00    +0.137 A 
BRANCH   9  15
ATOM     15  N   UNL     1       6.762  -5.674  26.346  0.00  0.00    -0.341 N 
ATOM     16  H   UNL     1       7.121  -6.355  27.003  0.00  0.00    +0.144 HD
ATOM     17  H   UNL     1       6.012  -5.964  25.728  0.00  0.00    +0.144 HD
ENDBRANCH   9  15
BRANCH  14  18
ATOM     18  C   UNL     1       6.084  -0.679  24.163  0.00  0.00    +0.039 C 
ATOM     19  C   UNL     1       5.694   0.250  25.043  0.00  0.00    +0.012 C 
ENDBRANCH  14  18
ENDBRANCH   4   6
BRANCH   2  20
ATOM     20  O   UNL     1       9.880   1.833  21.473  0.00  0.00    -0.386 OA
ATOM     21  H   UNL     1      10.545   2.356  21.972  0.00  0.00    +0.210 HD
ENDBRANCH   2  20
BRANCH   3  22
ATOM     22  O   UNL     1       9.596  -0.697  21.196  0.00  0.00    -0.385 OA
ATOM     23  H   UNL     1       9.365  -0.185  20.398  0.00  0.00    +0.210 HD
ENDBRANCH   3  22
BRANCH   1  24
ATOM     24  C   UNL     1       9.093   2.683  24.570  0.00  0.00    +0.118 C 
BRANCH  24  25
ATOM     25  N   UNL     1       8.158   3.545  23.807  0.00  0.00    -0.303 NA
ATOM     26  C   UNL     1       6.923   3.786  24.561  0.00  0.00    +0.105 C 
BRANCH  25  27
ATOM     27  C   UNL     1       8.780   4.842  23.456  0.00  0.00    +0.084 C 
BRANCH  27  28
ATOM     28  C   UNL     1       9.472   5.503  24.653  0.00  0.00    +0.018 C 
BRANCH  28  29
ATOM     29  C   UNL     1      10.682   6.350  24.265  0.00  0.00    +0.031 C 
BRANCH  29  30
ATOM     30  C   UNL     1      11.660   5.487  23.472  0.00  0.00    +0.185 C 
BRANCH  30  31
ATOM     31  O   UNL     1      12.940   5.497  24.105  0.00  0.00    -0.302 OA
BRANCH  31  32
ATOM     32  N   UNL     1      13.934   5.136  23.100  0.00  0.00    -0.215 NA
ATOM     33  H   UNL     1      14.668   5.820  23.289  0.00  0.00    +0.150 HD
ATOM     34  H   UNL     1      14.278   4.250  23.472  0.00  0.00    +0.150 HD
ENDBRANCH  31  32
ENDBRANCH  30  31
ENDBRANCH  29  30
ENDBRANCH  28  29
ENDBRANCH  27  28
ENDBRANCH  25  27
ENDBRANCH  24  25
ENDBRANCH   1  24
TORSDOF 13
ENDMDL
MODEL 3
REMARK VINA RESULT:      -6.2      1.585      2.056
REMARK  Name = 
REMARK  14 active torsions:
REMARK  status: ('A' for Active; 'I' for Inactive)
REMARK    1  A    between atoms: C_2  and  C_3
REMARK    2  A    between atoms: C_3  and  N_4
REMARK    3  A    between atoms: N_4  and  C_5
REMARK    4  A    between atoms: N_4  and  C_6
REMARK    5  A    between atoms: C_6  and  C_7
REMARK    6  A    between atoms: C_7  and  C_8
REMARK    7  A    between atoms: C_8  and  C_9
REMARK    8  A    between atoms: C_9  and  O_10
REMARK    9  A    between atoms: O_10  and  N_11
REMARK   10  A    between atoms: C_13  and  N_15
REMARK   11  A    between atoms: C_16  and  C_17
REMARK   12  A    between atoms: C_21  and  N_22
REMARK   13  A    between atoms: C_27  and  O_29
REMARK   14  A    between atoms: C_30  and  O_32
REMARK                            x       y       z     vdW  Elec       q    Type
REMARK                         _______ _______ _______ _____ _____    ______ ____
ROOT
ATOM      1  C   UNL     1       7.815  -1.746  23.821  0.00  0.00    +0.166 C 
ATOM      2  C   UNL     1       8.940  -2.648  23.308  0.00  0.00    +0.177 C 
ATOM      3  C   UNL     1       8.721  -3.996  23.996  0.00  0.00    +0.195 C 
ATOM      4  C   UNL     1       7.403  -3.809  24.764  0.00  0.00    +0.254 C 
ATOM      5  O   UNL     1       6.768  -2.628  24.257  0.00  0.00    -0.347 OA
ENDROOT
BRANCH   4   6
ATOM      6  N   UNL     1       6.443  -4.893  24.759  0.00  0.00    -0.279 N 
ATOM      7  C   UNL     1       5.884  -5.476  25.878  0.00  0.00    +0.168 A 
ATOM      8  C   UNL     1       4.915  -6.335  25.395  0.00  0.00    +0.148 A 
ATOM      9  C   UNL     1       4.121  -7.006  26.339  0.00  0.00    +0.147 A 
ATOM     10  N   UNL     1       4.366  -6.801  27.651  0.00  0.00    -0.219 NA
ATOM     11  C   UNL     1       5.356  -5.948  27.987  0.00  0.00    +0.225 A 
ATOM     12  N   UNL     1       4.909  -6.342  24.027  0.00  0.00    -0.223 NA
ATOM     13  N   UNL     1       6.162  -5.235  27.173  0.00  0.00    -0.216 NA
ATOM     14  C   UNL     1       5.867  -5.509  23.649  0.00  0.00    +0.137 A 
BRANCH   9  15
ATOM     15  N   UNL     1       3.088  -7.864  25.984  0.00  0.00    -0.341 N 
ATOM     16  H   UNL     1       2.756  -8.410  26.769  0.00  0.00    +0.144 HD
ATOM     17  H   UNL     1       3.258  -8.350  25.109  0.00  0.00    +0.144 HD
ENDBRANCH   9  15
BRANCH  14  18
ATOM     18  C   UNL     1       6.177  -5.215  22.294  0.00  0.00    +0.039 C 
ATOM     19  C   UNL     1       6.806  -6.014  21.424  0.00  0.00    +0.012 C 
ENDBRANCH  14  18
ENDBRANCH   4   6
BRANCH   2  20
ATOM     20  O   UNL     1      10.220  -2.089  23.606  0.00  0.00    -0.386 OA
ATOM     21  H   UNL     1      10.462  -1.557  22.817  0.00  0.00    +0.210 HD
ENDBRANCH   2  20
BRANCH   3  22
ATOM     22  O   UNL     1       9.824  -4.276  24.879  0.00  0.00    -0.385 OA
ATOM     23  H   UNL     1      10.538  -3.655  24.641  0.00  0.00    +0.210 HD
ENDBRANCH   3  22
BRANCH   1  24
ATOM     24  C   UNL     1       7.305  -0.817  22.699  0.00  0.00    +0.118 C 
BRANCH  24  25
ATOM     25  N   UNL     1       6.870   0.543  23.099  0.00  0.00    -0.303 NA
ATOM     26  C   UNL     1       6.967   0.727  24.550  0.00  0.00    +0.105 C 
BRANCH  25  27
ATOM     27  C   UNL     1       7.665   1.589  22.416  0.00  0.00    +0.084 C 
BRANCH  27  28
ATOM     28  C   UNL     1       8.994   1.053  21.871  0.00  0.00    +0.018 C 
BRANCH  28  29
ATOM     29  C   UNL     1      10.192   1.935  22.216  0.00  0.00    +0.031 C 
BRANCH  29  30
ATOM     30  C   UNL     1      10.425   1.891  23.724  0.00  0.00    +0.185 C 
BRANCH  30  31
ATOM     31  O   UNL     1      10.799   0.570  24.119  0.00  0.00    -0.302 OA
BRANCH  31  32
ATOM     32  N   UNL     1      10.313   0.360  25.479  0.00  0.00    -0.215 NA
ATOM     33  H   UNL     1       9.644   1.125  25.573  0.00  0.00    +0.150 HD
ATOM     34  H   UNL     1       9.754  -0.485  25.359  0.00  0.00    +0.150 HD
ENDBRANCH  31  32
ENDBRANCH  30  31
ENDBRANCH  29  30
ENDBRANCH  28  29
ENDBRANCH  27  28
ENDBRANCH  25  27
ENDBRANCH  24  25
ENDBRANCH   1  24
TORSDOF 13
ENDMDL
MODEL 4
REMARK VINA RESULT:      -6.2      2.062      3.192
REMARK  Name = 
REMARK  14 active torsions:
REMARK  status: ('A' for Active; 'I' for Inactive)
REMARK    1  A    between atoms: C_2  and  C_3
REMARK    2  A    between atoms: C_3  and  N_4
REMARK    3  A    between atoms: N_4  and  C_5
REMARK    4  A    between atoms: N_4  and  C_6
REMARK    5  A    between atoms: C_6  and  C_7
REMARK    6  A    between atoms: C_7  and  C_8
REMARK    7  A    between atoms: C_8  and  C_9
REMARK    8  A    between atoms: C_9  and  O_10
REMARK    9  A    between atoms: O_10  and  N_11
REMARK   10  A    between atoms: C_13  and  N_15
REMARK   11  A    between atoms: C_16  and  C_17
REMARK   12  A    between atoms: C_21  and  N_22
REMARK   13  A    between atoms: C_27  and  O_29
REMARK   14  A    between atoms: C_30  and  O_32
REMARK                            x       y       z     vdW  Elec       q    Type
REMARK                         _______ _______ _______ _____ _____    ______ ____
ROOT
ATOM      1  C   UNL     1       6.612  -1.839  23.012  0.00  0.00    +0.166 C 
ATOM      2  C   UNL     1       6.718  -0.979  24.273  0.00  0.00    +0.177 C 
ATOM      3  C   UNL     1       5.678  -1.548  25.239  0.00  0.00    +0.195 C 
ATOM      4  C   UNL     1       5.131  -2.784  24.506  0.00  0.00    +0.254 C 
ATOM      5  O   UNL     1       6.030  -3.085  23.431  0.00  0.00    -0.347 OA
ENDROOT
BRANCH   4   6
ATOM      6  N   UNL     1       4.898  -3.992  25.270  0.00  0.00    -0.279 N 
ATOM      7  C   UNL     1       5.826  -4.627  26.070  0.00  0.00    +0.168 A 
ATOM      8  C   UNL     1       5.124  -5.621  26.724  0.00  0.00    +0.148 A 
ATOM      9  C   UNL     1       5.819  -6.379  27.679  0.00  0.00    +0.147 A 
ATOM     10  N   UNL     1       7.129  -6.119  27.882  0.00  0.00    -0.219 NA
ATOM     11  C   UNL     1       7.698  -5.129  27.162  0.00  0.00    +0.225 A 
ATOM     12  N   UNL     1       3.822  -5.654  26.303  0.00  0.00    -0.223 NA
ATOM     13  N   UNL     1       7.127  -4.326  26.241  0.00  0.00    -0.216 NA
ATOM     14  C   UNL     1       3.705  -4.702  25.390  0.00  0.00    +0.137 A 
BRANCH   9  15
ATOM     15  N   UNL     1       5.218  -7.380  28.433  0.00  0.00    -0.341 N 
ATOM     16  H   UNL     1       4.994  -8.196  27.878  0.00  0.00    +0.144 HD
ATOM     17  H   UNL     1       4.506  -7.029  29.065  0.00  0.00    +0.144 HD
ENDBRANCH   9  15
BRANCH  14  18
ATOM     18  C   UNL     1       2.494  -4.392  24.714  0.00  0.00    +0.039 C 
ATOM     19  C   UNL     1       1.945  -5.073  23.701  0.00  0.00    +0.012 C 
ENDBRANCH  14  18
ENDBRANCH   4   6
BRANCH   2  20
ATOM     20  O   UNL     1       6.484   0.397  23.975  0.00  0.00    -0.386 OA
ATOM     21  H   UNL     1       7.215   0.663  23.376  0.00  0.00    +0.210 HD
ENDBRANCH   2  20
BRANCH   3  22
ATOM     22  O   UNL     1       4.651  -0.569  25.482  0.00  0.00    -0.385 OA
ATOM     23  H   UNL     1       4.723   0.095  24.769  0.00  0.00    +0.210 HD
ENDBRANCH   3  22
BRANCH   1  24
ATOM     24  C   UNL     1       8.005  -2.076  22.394  0.00  0.00    +0.118 C 
BRANCH  24  25
ATOM     25  N   UNL     1       9.170  -1.534  23.135  0.00  0.00    -0.303 NA
ATOM     26  C   UNL     1       9.913  -2.602  23.811  0.00  0.00    +0.105 C 
BRANCH  25  27
ATOM     27  C   UNL     1      10.085  -0.791  22.238  0.00  0.00    +0.084 C 
BRANCH  27  28
ATOM     28  C   UNL     1       9.391   0.380  21.532  0.00  0.00    +0.018 C 
BRANCH  28  29
ATOM     29  C   UNL     1       9.877   1.748  22.003  0.00  0.00    +0.031 C 
BRANCH  29  30
ATOM     30  C   UNL     1      10.331   1.642  23.457  0.00  0.00    +0.185 C 
BRANCH  30  31
ATOM     31  O   UNL     1       9.214   1.820  24.329  0.00  0.00    -0.302 OA
BRANCH  31  32
ATOM     32  N   UNL     1       9.349   0.864  25.423  0.00  0.00    -0.215 NA
ATOM     33  H   UNL     1       9.392  -0.020  24.913  0.00  0.00    +0.150 HD
ATOM     34  H   UNL     1      10.303   1.053  25.732  0.00  0.00    +0.150 HD
ENDBRANCH  31  32
ENDBRANCH  30  31
ENDBRANCH  29  30
ENDBRANCH  28  29
ENDBRANCH  27  28
ENDBRANCH  25  27
ENDBRANCH  24  25
ENDBRANCH   1  24
TORSDOF 13
ENDMDL
MODEL 5
REMARK VINA RESULT:      -6.0      2.408      3.272
REMARK  Name = 
REMARK  14 active torsions:
REMARK  status: ('A' for Active; 'I' for Inactive)
REMARK    1  A    between atoms: C_2  and  C_3
REMARK    2  A    between atoms: C_3  and  N_4
REMARK    3  A    between atoms: N_4  and  C_5
REMARK    4  A    between atoms: N_4  and  C_6
REMARK    5  A    between atoms: C_6  and  C_7
REMARK    6  A    between atoms: C_7  and  C_8
REMARK    7  A    between atoms: C_8  and  C_9
REMARK    8  A    between atoms: C_9  and  O_10
REMARK    9  A    between atoms: O_10  and  N_11
REMARK   10  A    between atoms: C_13  and  N_15
REMARK   11  A    between atoms: C_16  and  C_17
REMARK   12  A    between atoms: C_21  and  N_22
REMARK   13  A    between atoms: C_27  and  O_29
REMARK   14  A    between atoms: C_30  and  O_32
REMARK                            x       y       z     vdW  Elec       q    Type
REMARK                         _______ _______ _______ _____ _____    ______ ____
ROOT
ATOM      1  C   UNL     1       8.724  -3.423  25.078  0.00  0.00    +0.166 C 
ATOM      2  C   UNL     1       8.971  -4.832  25.622  0.00  0.00    +0.177 C 
ATOM      3  C   UNL     1       7.581  -5.423  25.859  0.00  0.00    +0.195 C 
ATOM      4  C   UNL     1       6.626  -4.349  25.312  0.00  0.00    +0.254 C 
ATOM      5  O   UNL     1       7.401  -3.442  24.518  0.00  0.00    -0.347 OA
ENDROOT
BRANCH   4   6
ATOM      6  N   UNL     1       5.477  -4.778  24.541  0.00  0.00    -0.279 N 
ATOM      7  C   UNL     1       4.162  -4.707  24.953  0.00  0.00    +0.168 A 
ATOM      8  C   UNL     1       3.414  -5.063  23.847  0.00  0.00    +0.148 A 
ATOM      9  C   UNL     1       2.017  -4.993  23.964  0.00  0.00    +0.147 A 
ATOM     10  N   UNL     1       1.486  -4.616  25.148  0.00  0.00    -0.219 NA
ATOM     11  C   UNL     1       2.332  -4.312  26.155  0.00  0.00    +0.225 A 
ATOM     12  N   UNL     1       4.227  -5.408  22.802  0.00  0.00    -0.223 NA
ATOM     13  N   UNL     1       3.681  -4.321  26.150  0.00  0.00    -0.216 NA
ATOM     14  C   UNL     1       5.469  -5.283  23.242  0.00  0.00    +0.137 A 
BRANCH   9  15
ATOM     15  N   UNL     1       1.155  -5.285  22.915  0.00  0.00    -0.341 N 
ATOM     16  H   UNL     1       1.615  -5.234  22.015  0.00  0.00    +0.144 HD
ATOM     17  H   UNL     1       0.249  -4.837  23.008  0.00  0.00    +0.144 HD
ENDBRANCH   9  15
BRANCH  14  18
ATOM     18  C   UNL     1       6.623  -5.530  22.450  0.00  0.00    +0.039 C 
ATOM     19  C   UNL     1       6.654  -5.785  21.137  0.00  0.00    +0.012 C 
ENDBRANCH  14  18
ENDBRANCH   4   6
BRANCH   2  20
ATOM     20  O   UNL     1       9.752  -4.790  26.816  0.00  0.00    -0.386 OA
ATOM     21  H   UNL     1       9.173  -4.374  27.492  0.00  0.00    +0.210 HD
ENDBRANCH   2  20
BRANCH   3  22
ATOM     22  O   UNL     1       7.383  -5.652  27.267  0.00  0.00    -0.385 OA
ATOM     23  H   UNL     1       7.450  -6.616  27.405  0.00  0.00    +0.210 HD
ENDBRANCH   3  22
BRANCH   1  24
ATOM     24  C   UNL     1       9.763  -3.066  23.995  0.00  0.00    +0.118 C 
BRANCH  24  25
ATOM     25  N   UNL     1       9.782  -1.662  23.518  0.00  0.00    -0.303 NA
ATOM     26  C   UNL     1       8.889  -1.479  22.368  0.00  0.00    +0.105 C 
BRANCH  25  27
ATOM     27  C   UNL     1       9.397  -0.719  24.593  0.00  0.00    +0.084 C 
BRANCH  27  28
ATOM     28  C   UNL     1      10.514   0.276  24.929  0.00  0.00    +0.018 C 
BRANCH  28  29
ATOM     29  C   UNL     1      10.478   1.540  24.074  0.00  0.00    +0.031 C 
BRANCH  29  30
ATOM     30  C   UNL     1       9.024   1.941  23.838  0.00  0.00    +0.185 C 
BRANCH  30  31
ATOM     31  O   UNL     1       8.779   2.080  22.438  0.00  0.00    -0.302 OA
BRANCH  31  32
ATOM     32  N   UNL     1      10.071   2.077  21.760  0.00  0.00    -0.215 NA
ATOM     33  H   UNL     1      10.115   3.033  21.405  0.00  0.00    +0.150 HD
ATOM     34  H   UNL     1      10.711   2.047  22.555  0.00  0.00    +0.150 HD
ENDBRANCH  31  32
ENDBRANCH  30  31
ENDBRANCH  29  30
ENDBRANCH  28  29
ENDBRANCH  27  28
ENDBRANCH  25  27
ENDBRANCH  24  25
ENDBRANCH   1  24
TORSDOF 13
ENDMDL
MODEL 6
REMARK VINA RESULT:      -6.0      2.616      7.033
REMARK  Name = 
REMARK  14 active torsions:
REMARK  status: ('A' for Active; 'I' for Inactive)
REMARK    1  A    between atoms: C_2  and  C_3
REMARK    2  A    between atoms: C_3  and  N_4
REMARK    3  A    between atoms: N_4  and  C_5
REMARK    4  A    between atoms: N_4  and  C_6
REMARK    5  A    between atoms: C_6  and  C_7
REMARK    6  A    between atoms: C_7  and  C_8
REMARK    7  A    between atoms: C_8  and  C_9
REMARK    8  A    between atoms: C_9  and  O_10
REMARK    9  A    between atoms: O_10  and  N_11
REMARK   10  A    between atoms: C_13  and  N_15
REMARK   11  A    between atoms: C_16  and  C_17
REMARK   12  A    between atoms: C_21  and  N_22
REMARK   13  A    between atoms: C_27  and  O_29
REMARK   14  A    between atoms: C_30  and  O_32
REMARK                            x       y       z     vdW  Elec       q    Type
REMARK                         _______ _______ _______ _____ _____    ______ ____
ROOT
ATOM      1  C   UNL     1       5.832  -5.394  26.443  0.00  0.00    +0.166 C 
ATOM      2  C   UNL     1       7.160  -5.104  27.145  0.00  0.00    +0.177 C 
ATOM      3  C   UNL     1       8.165  -4.855  26.021  0.00  0.00    +0.195 C 
ATOM      4  C   UNL     1       7.309  -4.897  24.744  0.00  0.00    +0.254 C 
ATOM      5  O   UNL     1       5.935  -4.798  25.139  0.00  0.00    -0.347 OA
ENDROOT
BRANCH   4   6
ATOM      6  N   UNL     1       7.568  -3.917  23.709  0.00  0.00    -0.279 N 
ATOM      7  C   UNL     1       8.383  -2.811  23.836  0.00  0.00    +0.168 A 
ATOM      8  C   UNL     1       8.463  -2.270  22.568  0.00  0.00    +0.148 A 
ATOM      9  C   UNL     1       9.310  -1.165  22.391  0.00  0.00    +0.147 A 
ATOM     10  N   UNL     1       9.970  -0.678  23.465  0.00  0.00    -0.219 NA
ATOM     11  C   UNL     1       9.788  -1.292  24.653  0.00  0.00    +0.225 A 
ATOM     12  N   UNL     1       7.677  -2.967  21.691  0.00  0.00    -0.223 NA
ATOM     13  N   UNL     1       9.023  -2.366  24.934  0.00  0.00    -0.216 NA
ATOM     14  C   UNL     1       7.101  -3.929  22.396  0.00  0.00    +0.137 A 
BRANCH   9  15
ATOM     15  N   UNL     1       9.509  -0.554  21.159  0.00  0.00    -0.341 N 
ATOM     16  H   UNL     1       8.695  -0.039  20.850  0.00  0.00    +0.144 HD
ATOM     17  H   UNL     1       9.969  -1.158  20.486  0.00  0.00    +0.144 HD
ENDBRANCH   9  15
BRANCH  14  18
ATOM     18  C   UNL     1       6.215  -4.895  21.848  0.00  0.00    +0.039 C 
ATOM     19  C   UNL     1       6.514  -6.154  21.505  0.00  0.00    +0.012 C 
ENDBRANCH  14  18
ENDBRANCH   4   6
BRANCH   2  20
ATOM     20  O   UNL     1       7.544  -6.194  27.984  0.00  0.00    -0.386 OA
ATOM     21  H   UNL     1       7.940  -6.860  27.381  0.00  0.00    +0.210 HD
ENDBRANCH   2  20
BRANCH   3  22
ATOM     22  O   UNL     1       9.170  -5.887  26.028  0.00  0.00    -0.385 OA
ATOM     23  H   UNL     1       9.553  -5.898  26.926  0.00  0.00    +0.210 HD
ENDBRANCH   3  22
BRANCH   1  24
ATOM     24  C   UNL     1       4.654  -4.778  27.225  0.00  0.00    +0.118 C 
BRANCH  24  25
ATOM     25  N   UNL     1       3.287  -5.135  26.774  0.00  0.00    -0.303 NA
ATOM     26  C   UNL     1       2.383  -5.321  27.914  0.00  0.00    +0.105 C 
BRANCH  25  27
ATOM     27  C   UNL     1       2.729  -4.106  25.867  0.00  0.00    +0.084 C 
BRANCH  27  28
ATOM     28  C   UNL     1       1.986  -4.717  24.674  0.00  0.00    +0.018 C 
BRANCH  28  29
ATOM     29  C   UNL     1       2.915  -5.237  23.580  0.00  0.00    +0.031 C 
BRANCH  29  30
ATOM     30  C   UNL     1       2.807  -6.758  23.517  0.00  0.00    +0.185 C 
BRANCH  30  31
ATOM     31  O   UNL     1       3.910  -7.352  24.203  0.00  0.00    -0.302 OA
BRANCH  31  32
ATOM     32  N   UNL     1       3.385  -8.023  25.388  0.00  0.00    -0.215 NA
ATOM     33  H   UNL     1       2.782  -8.732  24.966  0.00  0.00    +0.150 HD
ATOM     34  H   UNL     1       4.213  -8.522  25.715  0.00  0.00    +0.150 HD
ENDBRANCH  31  32
ENDBRANCH  30  31
ENDBRANCH  29  30
ENDBRANCH  28  29
ENDBRANCH  27  28
ENDBRANCH  25  27
ENDBRANCH  24  25
ENDBRANCH   1  24
TORSDOF 13
ENDMDL
MODEL 7
REMARK VINA RESULT:      -6.0      1.636      3.238
REMARK  Name = 
REMARK  14 active torsions:
REMARK  status: ('A' for Active; 'I' for Inactive)
REMARK    1  A    between atoms: C_2  and  C_3
REMARK    2  A    between atoms: C_3  and  N_4
REMARK    3  A    between atoms: N_4  and  C_5
REMARK    4  A    between atoms: N_4  and  C_6
REMARK    5  A    between atoms: C_6  and  C_7
REMARK    6  A    between atoms: C_7  and  C_8
REMARK    7  A    between atoms: C_8  and  C_9
REMARK    8  A    between atoms: C_9  and  O_10
REMARK    9  A    between atoms: O_10  and  N_11
REMARK   10  A    between atoms: C_13  and  N_15
REMARK   11  A    between atoms: C_16  and  C_17
REMARK   12  A    between atoms: C_21  and  N_22
REMARK   13  A    between atoms: C_27  and  O_29
REMARK   14  A    between atoms: C_30  and  O_32
REMARK                            x       y       z     vdW  Elec       q    Type
REMARK                         _______ _______ _______ _____ _____    ______ ____
ROOT
ATOM      1  C   UNL     1       8.018  -2.754  24.816  0.00  0.00    +0.166 C 
ATOM      2  C   UNL     1       8.816  -3.891  24.174  0.00  0.00    +0.177 C 
ATOM      3  C   UNL     1       8.451  -5.143  24.973  0.00  0.00    +0.195 C 
ATOM      4  C   UNL     1       7.364  -4.655  25.946  0.00  0.00    +0.254 C 
ATOM      5  O   UNL     1       6.908  -3.378  25.483  0.00  0.00    -0.347 OA
ENDROOT
BRANCH   4   6
ATOM      6  N   UNL     1       6.215  -5.505  26.177  0.00  0.00    -0.279 N 
ATOM      7  C   UNL     1       5.273  -5.857  25.231  0.00  0.00    +0.168 A 
ATOM      8  C   UNL     1       4.472  -6.799  25.848  0.00  0.00    +0.148 A 
ATOM      9  C   UNL     1       3.467  -7.397  25.071  0.00  0.00    +0.147 A 
ATOM     10  N   UNL     1       3.321  -7.001  23.788  0.00  0.00    -0.219 NA
ATOM     11  C   UNL     1       4.161  -6.057  23.315  0.00  0.00    +0.225 A 
ATOM     12  N   UNL     1       4.852  -6.983  27.149  0.00  0.00    -0.223 NA
ATOM     13  N   UNL     1       5.170  -5.434  23.957  0.00  0.00    -0.216 NA
ATOM     14  C   UNL     1       5.871  -6.164  27.356  0.00  0.00    +0.137 A 
BRANCH   9  15
ATOM     15  N   UNL     1       2.622  -8.386  25.560  0.00  0.00    -0.341 N 
ATOM     16  H   UNL     1       1.919  -8.657  24.885  0.00  0.00    +0.144 HD
ATOM     17  H   UNL     1       2.320  -8.214  26.513  0.00  0.00    +0.144 HD
ENDBRANCH   9  15
BRANCH  14  18
ATOM     18  C   UNL     1       6.573  -6.062  28.587  0.00  0.00    +0.039 C 
ATOM     19  C   UNL     1       6.130  -6.431  29.796  0.00  0.00    +0.012 C 
ENDBRANCH  14  18
ENDBRANCH   4   6
BRANCH   2  20
ATOM     20  O   UNL     1      10.216  -3.617  24.208  0.00  0.00    -0.386 OA
ATOM     21  H   UNL     1      10.622  -4.387  24.663  0.00  0.00    +0.210 HD
ENDBRANCH   2  20
BRANCH   3  22
ATOM     22  O   UNL     1       9.613  -5.634  25.667  0.00  0.00    -0.385 OA
ATOM     23  H   UNL     1      10.235  -4.885  25.736  0.00  0.00    +0.210 HD
ENDBRANCH   3  22
BRANCH   1  24
ATOM     24  C   UNL     1       7.516  -1.766  23.743  0.00  0.00    +0.118 C 
BRANCH  24  25
ATOM     25  N   UNL     1       8.541  -0.939  23.059  0.00  0.00    -0.303 NA
ATOM     26  C   UNL     1       8.950  -1.546  21.788  0.00  0.00    +0.105 C 
BRANCH  25  27
ATOM     27  C   UNL     1       8.051   0.436  22.812  0.00  0.00    +0.084 C 
BRANCH  27  28
ATOM     28  C   UNL     1       8.812   1.135  21.680  0.00  0.00    +0.018 C 
BRANCH  28  29
ATOM     29  C   UNL     1      10.132   1.758  22.129  0.00  0.00    +0.031 C 
BRANCH  29  30
ATOM     30  C   UNL     1      10.049   2.080  23.619  0.00  0.00    +0.185 C 
BRANCH  30  31
ATOM     31  O   UNL     1      11.075   1.381  24.325  0.00  0.00    -0.302 OA
BRANCH  31  32
ATOM     32  N   UNL     1      10.427   0.495  25.286  0.00  0.00    -0.215 NA
ATOM     33  H   UNL     1       9.444   0.734  25.148  0.00  0.00    +0.150 HD
ATOM     34  H   UNL     1      10.558  -0.412  24.836  0.00  0.00    +0.150 HD
ENDBRANCH  31  32
ENDBRANCH  30  31
ENDBRANCH  29  30
ENDBRANCH  28  29
ENDBRANCH  27  28
ENDBRANCH  25  27
ENDBRANCH  24  25
ENDBRANCH   1  24
TORSDOF 13
ENDMDL
MODEL 8
REMARK VINA RESULT:      -6.0      2.429      2.765
REMARK  Name = 
REMARK  14 active torsions:
REMARK  status: ('A' for Active; 'I' for Inactive)
REMARK    1  A    between atoms: C_2  and  C_3
REMARK    2  A    between atoms: C_3  and  N_4
REMARK    3  A    between atoms: N_4  and  C_5
REMARK    4  A    between atoms: N_4  and  C_6
REMARK    5  A    between atoms: C_6  and  C_7
REMARK    6  A    between atoms: C_7  and  C_8
REMARK    7  A    between atoms: C_8  and  C_9
REMARK    8  A    between atoms: C_9  and  O_10
REMARK    9  A    between atoms: O_10  and  N_11
REMARK   10  A    between atoms: C_13  and  N_15
REMARK   11  A    between atoms: C_16  and  C_17
REMARK   12  A    between atoms: C_21  and  N_22
REMARK   13  A    between atoms: C_27  and  O_29
REMARK   14  A    between atoms: C_30  and  O_32
REMARK                            x       y       z     vdW  Elec       q    Type
REMARK                         _______ _______ _______ _____ _____    ______ ____
ROOT
ATOM      1  C   UNL     1       8.252  -0.722  24.973  0.00  0.00    +0.166 C 
ATOM      2  C   UNL     1       8.957  -1.306  23.747  0.00  0.00    +0.177 C 
ATOM      3  C   UNL     1       8.862  -2.824  23.912  0.00  0.00    +0.195 C 
ATOM      4  C   UNL     1       7.992  -3.005  25.166  0.00  0.00    +0.254 C 
ATOM      5  O   UNL     1       7.362  -1.748  25.444  0.00  0.00    -0.347 OA
ENDROOT
BRANCH   4   6
ATOM      6  N   UNL     1       6.981  -4.042  25.160  0.00  0.00    -0.279 N 
ATOM      7  C   UNL     1       6.748  -4.942  26.179  0.00  0.00    +0.168 A 
ATOM      8  C   UNL     1       5.600  -5.619  25.811  0.00  0.00    +0.148 A 
ATOM      9  C   UNL     1       5.082  -6.551  26.724  0.00  0.00    +0.147 A 
ATOM     10  N   UNL     1       5.743  -6.756  27.883  0.00  0.00    -0.219 NA
ATOM     11  C   UNL     1       6.864  -6.040  28.110  0.00  0.00    +0.225 A 
ATOM     12  N   UNL     1       5.166  -5.207  24.581  0.00  0.00    -0.223 NA
ATOM     13  N   UNL     1       7.439  -5.107  27.322  0.00  0.00    -0.216 NA
ATOM     14  C   UNL     1       6.032  -4.292  24.171  0.00  0.00    +0.137 A 
BRANCH   9  15
ATOM     15  N   UNL     1       3.914  -7.266  26.492  0.00  0.00    -0.341 N 
ATOM     16  H   UNL     1       4.016  -8.248  26.712  0.00  0.00    +0.144 HD
ATOM     17  H   UNL     1       3.467  -7.023  25.614  0.00  0.00    +0.144 HD
ENDBRANCH   9  15
BRANCH  14  18
ATOM     18  C   UNL     1       5.929  -3.596  22.936  0.00  0.00    +0.039 C 
ATOM     19  C   UNL     1       6.137  -4.098  21.713  0.00  0.00    +0.012 C 
ENDBRANCH  14  18
ENDBRANCH   4   6
BRANCH   2  20
ATOM     20  O   UNL     1      10.309  -0.854  23.670  0.00  0.00    -0.386 OA
ATOM     21  H   UNL     1      10.860  -1.659  23.778  0.00  0.00    +0.210 HD
ENDBRANCH   2  20
BRANCH   3  22
ATOM     22  O   UNL     1      10.180  -3.378  24.086  0.00  0.00    -0.385 OA
ATOM     23  H   UNL     1      10.525  -3.564  23.192  0.00  0.00    +0.210 HD
ENDBRANCH   3  22
BRANCH   1  24
ATOM     24  C   UNL     1       7.459   0.546  24.594  0.00  0.00    +0.118 C 
BRANCH  24  25
ATOM     25  N   UNL     1       7.914   1.289  23.393  0.00  0.00    -0.303 NA
ATOM     26  C   UNL     1       6.813   1.494  22.446  0.00  0.00    +0.105 C 
BRANCH  25  27
ATOM     27  C   UNL     1       8.500   2.600  23.756  0.00  0.00    +0.084 C 
BRANCH  27  28
ATOM     28  C   UNL     1       9.969   2.722  23.336  0.00  0.00    +0.018 C 
BRANCH  28  29
ATOM     29  C   UNL     1      10.547   4.120  23.547  0.00  0.00    +0.031 C 
BRANCH  29  30
ATOM     30  C   UNL     1      12.067   4.052  23.426  0.00  0.00    +0.185 C 
BRANCH  30  31
ATOM     31  O   UNL     1      12.591   5.351  23.147  0.00  0.00    -0.302 OA
BRANCH  31  32
ATOM     32  N   UNL     1      14.044   5.239  23.083  0.00  0.00    -0.215 NA
ATOM     33  H   UNL     1      14.262   5.890  22.326  0.00  0.00    +0.150 HD
ATOM     34  H   UNL     1      14.316   5.714  23.945  0.00  0.00    +0.150 HD
ENDBRANCH  31  32
ENDBRANCH  30  31
ENDBRANCH  29  30
ENDBRANCH  28  29
ENDBRANCH  27  28
ENDBRANCH  25  27
ENDBRANCH  24  25
ENDBRANCH   1  24
TORSDOF 13
ENDMDL
MODEL 9
REMARK VINA RESULT:      -5.9      2.409      3.538
REMARK  Name = 
REMARK  14 active torsions:
REMARK  status: ('A' for Active; 'I' for Inactive)
REMARK    1  A    between atoms: C_2  and  C_3
REMARK    2  A    between atoms: C_3  and  N_4
REMARK    3  A    between atoms: N_4  and  C_5
REMARK    4  A    between atoms: N_4  and  C_6
REMARK    5  A    between atoms: C_6  and  C_7
REMARK    6  A    between atoms: C_7  and  C_8
REMARK    7  A    between atoms: C_8  and  C_9
REMARK    8  A    between atoms: C_9  and  O_10
REMARK    9  A    between atoms: O_10  and  N_11
REMARK   10  A    between atoms: C_13  and  N_15
REMARK   11  A    between atoms: C_16  and  C_17
REMARK   12  A    between atoms: C_21  and  N_22
REMARK   13  A    between atoms: C_27  and  O_29
REMARK   14  A    between atoms: C_30  and  O_32
REMARK                            x       y       z     vdW  Elec       q    Type
REMARK                         _______ _______ _______ _____ _____    ______ ____
ROOT
ATOM      1  C   UNL     1       7.759  -0.824  24.588  0.00  0.00    +0.166 C 
ATOM      2  C   UNL     1       8.971  -0.596  25.494  0.00  0.00    +0.177 C 
ATOM      3  C   UNL     1       8.649  -1.337  26.793  0.00  0.00    +0.195 C 
ATOM      4  C   UNL     1       7.319  -2.049  26.492  0.00  0.00    +0.254 C 
ATOM      5  O   UNL     1       7.121  -2.018  25.072  0.00  0.00    -0.347 OA
ENDROOT
BRANCH   4   6
ATOM      6  N   UNL     1       7.145  -3.409  26.957  0.00  0.00    -0.279 N 
ATOM      7  C   UNL     1       6.016  -3.908  27.574  0.00  0.00    +0.168 A 
ATOM      8  C   UNL     1       6.233  -5.268  27.684  0.00  0.00    +0.148 A 
ATOM      9  C   UNL     1       5.190  -6.047  28.209  0.00  0.00    +0.147 A 
ATOM     10  N   UNL     1       4.055  -5.427  28.601  0.00  0.00    -0.219 NA
ATOM     11  C   UNL     1       3.981  -4.087  28.453  0.00  0.00    +0.225 A 
ATOM     12  N   UNL     1       7.475  -5.602  27.217  0.00  0.00    -0.223 NA
ATOM     13  N   UNL     1       4.904  -3.246  27.945  0.00  0.00    -0.216 NA
ATOM     14  C   UNL     1       8.040  -4.470  26.826  0.00  0.00    +0.137 A 
BRANCH   9  15
ATOM     15  N   UNL     1       5.266  -7.428  28.334  0.00  0.00    -0.341 N 
ATOM     16  H   UNL     1       5.879  -7.842  27.644  0.00  0.00    +0.144 HD
ATOM     17  H   UNL     1       4.363  -7.864  28.486  0.00  0.00    +0.144 HD
ENDBRANCH   9  15
BRANCH  14  18
ATOM     18  C   UNL     1       9.338  -4.383  26.256  0.00  0.00    +0.039 C 
ATOM     19  C   UNL     1       9.732  -4.885  25.080  0.00  0.00    +0.012 C 
ENDBRANCH  14  18
ENDBRANCH   4   6
BRANCH   2  20
ATOM     20  O   UNL     1       9.195   0.797  25.708  0.00  0.00    -0.386 OA
ATOM     21  H   UNL     1       9.859   0.847  26.430  0.00  0.00    +0.210 HD
ENDBRANCH   2  20
BRANCH   3  22
ATOM     22  O   UNL     1       8.521  -0.394  27.873  0.00  0.00    -0.385 OA
ATOM     23  H   UNL     1       7.918  -0.796  28.526  0.00  0.00    +0.210 HD
ENDBRANCH   3  22
BRANCH   1  24
ATOM     24  C   UNL     1       8.201  -1.006  23.121  0.00  0.00    +0.118 C 
BRANCH  24  25
ATOM     25  N   UNL     1       9.563  -0.538  22.766  0.00  0.00    -0.303 NA
ATOM     26  C   UNL     1      10.433  -1.661  22.403  0.00  0.00    +0.105 C 
BRANCH  25  27
ATOM     27  C   UNL     1       9.528   0.437  21.653  0.00  0.00    +0.084 C 
BRANCH  27  28
ATOM     28  C   UNL     1       9.149   1.847  22.119  0.00  0.00    +0.018 C 
BRANCH  28  29
ATOM     29  C   UNL     1      10.278   2.568  22.853  0.00  0.00    +0.031 C 
BRANCH  29  30
ATOM     30  C   UNL     1       9.681   3.665  23.730  0.00  0.00    +0.185 C 
BRANCH  30  31
ATOM     31  O   UNL     1      10.529   4.814  23.717  0.00  0.00    -0.302 OA
BRANCH  31  32
ATOM     32  N   UNL     1      11.716   4.479  22.937  0.00  0.00    -0.215 NA
ATOM     33  H   UNL     1      11.456   4.831  22.014  0.00  0.00    +0.150 HD
ATOM     34  H   UNL     1      12.392   5.148  23.310  0.00  0.00    +0.150 HD
ENDBRANCH  31  32
ENDBRANCH  30  31
ENDBRANCH  29  30
ENDBRANCH  28  29
ENDBRANCH  27  28
ENDBRANCH  25  27
ENDBRANCH  24  25
ENDBRANCH   1  24
TORSDOF 13
ENDMDL
