MODEL 1
REMARK VINA RESULT:      -6.9      0.000      0.000
REMARK  Name = 
REMARK  9 active torsions:
REMARK  status: ('A' for Active; 'I' for Inactive)
REMARK    1  A    between atoms: C_2  and  N_3
REMARK    2  A    between atoms: C_2  and  C_4
REMARK    3  A    between atoms: C_2  and  C_11
REMARK    4  A    between atoms: C_4  and  C_5
REMARK    5  A    between atoms: C_11  and  O_13
REMARK    6  A    between atoms: C_11  and  C_14
REMARK    7  A    between atoms: N_16  and  N_17
REMARK    8  A    between atoms: N_17  and  C_18
REMARK    9  A    between atoms: C_21  and  C_22
REMARK                            x       y       z     vdW  Elec       q    Type
REMARK                         _______ _______ _______ _____ _____    ______ ____
ROOT
ATOM      1  C   UNL     1       8.472  -3.523  26.144  0.00  0.00    +0.218 C 
ENDROOT
BRANCH   1   2
ATOM      2  C   UNL     1       9.248  -3.347  24.835  0.00  0.00    +0.259 C 
ATOM      3  N   UNL     1       8.794  -2.281  24.072  0.00  0.00    -0.234 N 
ATOM      4  H   UNL     1       8.342  -1.523  24.583  0.00  0.00    +0.173 HD
ATOM      5  O   UNL     1      10.151  -4.098  24.478  0.00  0.00    -0.271 OA
BRANCH   3   6
ATOM      6  N   UNL     1       9.611  -1.903  22.992  0.00  0.00    -0.264 N 
ATOM      7  H   UNL     1       9.170  -2.159  22.102  0.00  0.00    +0.170 HD
BRANCH   6   8
ATOM      8  C   UNL     1       9.994  -0.537  23.005  0.00  0.00    +0.044 A 
ATOM      9  C   UNL     1      10.473   0.017  24.201  0.00  0.00    +0.025 A 
ATOM     10  C   UNL     1      10.762   1.383  24.298  0.00  0.00    +0.005 A 
ATOM     11  C   UNL     1      10.554   2.232  23.207  0.00  0.00    -0.050 A 
ATOM     12  C   UNL     1      10.835   3.701  23.332  0.00  0.00    +0.044 C 
ATOM     13  C   UNL     1      10.048   1.694  22.023  0.00  0.00    +0.005 A 
ATOM     14  C   UNL     1       9.768   0.325  21.926  0.00  0.00    +0.025 A 
ENDBRANCH   6   8
ENDBRANCH   3   6
ENDBRANCH   1   2
BRANCH   1  15
ATOM     15  O   UNL     1       7.730  -2.309  26.417  0.00  0.00    -0.381 OA
ATOM     16  H   UNL     1       7.717  -2.209  27.387  0.00  0.00    +0.210 HD
ENDBRANCH   1  15
BRANCH   1  17
ATOM     17  C   UNL     1       7.465  -4.698  26.053  0.00  0.00    +0.089 C 
BRANCH  17  18
ATOM     18  N   UNL     1       7.910  -5.760  26.986  0.00  0.00    -0.325 NA
ATOM     19  H   UNL     1       8.754  -5.421  27.457  0.00  0.00    +0.119 HD
ATOM     20  H   UNL     1       7.213  -5.874  27.720  0.00  0.00    +0.119 HD
ENDBRANCH  17  18
BRANCH  17  21
ATOM     21  C   UNL     1       7.324  -5.267  24.621  0.00  0.00    +0.025 C 
BRANCH  21  22
ATOM     22  C   UNL     1       5.892  -5.224  24.022  0.00  0.00    -0.009 C 
ATOM     23  C   UNL     1       5.833  -5.928  22.651  0.00  0.00    +0.003 C 
ATOM     24  C   UNL     1       6.428  -5.100  21.515  0.00  0.00    +0.000 C 
ATOM     25  C   UNL     1       5.767  -3.729  21.429  0.00  0.00    +0.000 C 
ATOM     26  C   UNL     1       5.872  -2.986  22.753  0.00  0.00    +0.000 C 
ATOM     27  C   UNL     1       5.307  -3.803  23.915  0.00  0.00    +0.003 C 
ENDBRANCH  21  22
ENDBRANCH  17  21
ENDBRANCH   1  17
TORSDOF 8
ENDMDL
MODEL 2
REMARK VINA RESULT:      -6.8      1.517      2.172
REMARK  Name = 
REMARK  9 active torsions:
REMARK  status: ('A' for Active; 'I' for Inactive)
REMARK    1  A    between atoms: C_2  and  N_3
REMARK    2  A    between atoms: C_2  and  C_4
REMARK    3  A    between atoms: C_2  and  C_11
REMARK    4  A    between atoms: C_4  and  C_5
REMARK    5  A    between atoms: C_11  and  O_13
REMARK    6  A    between atoms: C_11  and  C_14
REMARK    7  A    between atoms: N_16  and  N_17
REMARK    8  A    between atoms: N_17  and  C_18
REMARK    9  A    between atoms: C_21  and  C_22
REMARK                            x       y       z     vdW  Elec       q    Type
REMARK                         _______ _______ _______ _____ _____    ______ ____
ROOT
ATOM      1  C   UNL     1       7.768  -5.414  26.137  0.00  0.00    +0.218 C 
ENDROOT
BRANCH   1   2
ATOM      2  C   UNL     1       8.663  -4.970  24.975  0.00  0.00    +0.259 C 
ATOM      3  N   UNL     1       8.981  -3.620  25.021  0.00  0.00    -0.234 N 
ATOM      4  H   UNL     1       8.973  -3.187  25.944  0.00  0.00    +0.173 HD
ATOM      5  O   UNL     1       9.026  -5.720  24.075  0.00  0.00    -0.271 OA
BRANCH   3   6
ATOM      6  N   UNL     1       9.995  -3.195  24.143  0.00  0.00    -0.264 N 
ATOM      7  H   UNL     1      10.068  -3.836  23.344  0.00  0.00    +0.170 HD
BRANCH   6   8
ATOM      8  C   UNL     1       9.866  -1.849  23.716  0.00  0.00    +0.044 A 
ATOM      9  C   UNL     1       9.977  -1.563  22.349  0.00  0.00    +0.025 A 
ATOM     10  C   UNL     1       9.965  -0.242  21.885  0.00  0.00    +0.005 A 
ATOM     11  C   UNL     1       9.869   0.825  22.783  0.00  0.00    -0.050 A 
ATOM     12  C   UNL     1       9.891   2.238  22.279  0.00  0.00    +0.044 C 
ATOM     13  C   UNL     1       9.790   0.550  24.149  0.00  0.00    +0.005 A 
ATOM     14  C   UNL     1       9.793  -0.773  24.609  0.00  0.00    +0.025 A 
ENDBRANCH   6   8
ENDBRANCH   3   6
ENDBRANCH   1   2
BRANCH   1  15
ATOM     15  O   UNL     1       8.028  -4.566  27.282  0.00  0.00    -0.381 OA
ATOM     16  H   UNL     1       8.023  -5.151  28.062  0.00  0.00    +0.210 HD
ENDBRANCH   1  15
BRANCH   1  17
ATOM     17  C   UNL     1       6.266  -5.295  25.774  0.00  0.00    +0.089 C 
BRANCH  17  18
ATOM     18  N   UNL     1       5.563  -6.479  26.320  0.00  0.00    -0.325 NA
ATOM     19  H   UNL     1       4.817  -6.725  25.662  0.00  0.00    +0.119 HD
ATOM     20  H   UNL     1       6.200  -7.275  26.322  0.00  0.00    +0.119 HD
ENDBRANCH  17  18
BRANCH  17  21
ATOM     21  C   UNL     1       6.017  -5.180  24.251  0.00  0.00    +0.025 C 
BRANCH  21  22
ATOM     22  C   UNL     1       5.000  -4.088  23.820  0.00  0.00    -0.009 C 
ATOM     23  C   UNL     1       5.331  -3.528  22.422  0.00  0.00    +0.003 C 
ATOM     24  C   UNL     1       6.509  -2.557  22.418  0.00  0.00    +0.000 C 
ATOM     25  C   UNL     1       6.280  -1.414  23.400  0.00  0.00    +0.000 C 
ATOM     26  C   UNL     1       6.018  -1.941  24.804  0.00  0.00    +0.000 C 
ATOM     27  C   UNL     1       4.859  -2.937  24.834  0.00  0.00    +0.003 C 
ENDBRANCH  21  22
ENDBRANCH  17  21
ENDBRANCH   1  17
TORSDOF 8
ENDMDL
MODEL 3
REMARK VINA RESULT:      -6.8      1.895      2.627
REMARK  Name = 
REMARK  9 active torsions:
REMARK  status: ('A' for Active; 'I' for Inactive)
REMARK    1  A    between atoms: C_2  and  N_3
REMARK    2  A    between atoms: C_2  and  C_4
REMARK    3  A    between atoms: C_2  and  C_11
REMARK    4  A    between atoms: C_4  and  C_5
REMARK    5  A    between atoms: C_11  and  O_13
REMARK    6  A    between atoms: C_11  and  C_14
REMARK    7  A    between atoms: N_16  and  N_17
REMARK    8  A    between atoms: N_17  and  C_18
REMARK    9  A    between atoms: C_21  and  C_22
REMARK                            x       y       z     vdW  Elec       q    Type
REMARK                         _______ _______ _______ _____ _____    ______ ____
ROOT
ATOM      1  C   UNL     1       8.195  -4.959  26.481  0.00  0.00    +0.218 C 
ENDROOT
BRANCH   1   2
ATOM      2  C   UNL     1       7.609  -3.546  26.564  0.00  0.00    +0.259 C 
ATOM      3  N   UNL     1       8.575  -2.567  26.751  0.00  0.00    -0.234 N 
ATOM      4  H   UNL     1       9.509  -2.786  26.407  0.00  0.00    +0.173 HD
ATOM      5  O   UNL     1       6.406  -3.309  26.514  0.00  0.00    -0.271 OA
BRANCH   3   6
ATOM      6  N   UNL     1       8.146  -1.238  26.583  0.00  0.00    -0.264 N 
ATOM      7  H   UNL     1       8.395  -0.675  27.404  0.00  0.00    +0.170 HD
BRANCH   6   8
ATOM      8  C   UNL     1       8.597  -0.631  25.383  0.00  0.00    +0.044 A 
ATOM      9  C   UNL     1       9.894  -0.103  25.342  0.00  0.00    +0.025 A 
ATOM     10  C   UNL     1      10.352   0.602  24.222  0.00  0.00    +0.005 A 
ATOM     11  C   UNL     1       9.510   0.816  23.126  0.00  0.00    -0.050 A 
ATOM     12  C   UNL     1       9.999   1.601  21.944  0.00  0.00    +0.044 C 
ATOM     13  C   UNL     1       8.207   0.320  23.171  0.00  0.00    +0.005 A 
ATOM     14  C   UNL     1       7.755  -0.391  24.291  0.00  0.00    +0.025 A 
ENDBRANCH   6   8
ENDBRANCH   3   6
ENDBRANCH   1   2
BRANCH   1  15
ATOM     15  O   UNL     1       7.158  -5.919  26.795  0.00  0.00    -0.381 OA
ATOM     16  H   UNL     1       7.606  -6.684  27.200  0.00  0.00    +0.210 HD
ENDBRANCH   1  15
BRANCH   1  17
ATOM     17  C   UNL     1       8.729  -5.268  25.058  0.00  0.00    +0.089 C 
BRANCH  17  18
ATOM     18  N   UNL     1      10.190  -5.495  25.152  0.00  0.00    -0.325 NA
ATOM     19  H   UNL     1      10.345  -6.196  25.883  0.00  0.00    +0.119 HD
ATOM     20  H   UNL     1      10.518  -5.923  24.288  0.00  0.00    +0.119 HD
ENDBRANCH  17  18
BRANCH  17  21
ATOM     21  C   UNL     1       8.426  -4.144  24.039  0.00  0.00    +0.025 C 
BRANCH  21  22
ATOM     22  C   UNL     1       7.601  -4.573  22.795  0.00  0.00    -0.009 C 
ATOM     23  C   UNL     1       6.839  -3.381  22.184  0.00  0.00    +0.003 C 
ATOM     24  C   UNL     1       5.597  -2.981  22.978  0.00  0.00    +0.000 C 
ATOM     25  C   UNL     1       4.657  -4.167  23.161  0.00  0.00    +0.000 C 
ATOM     26  C   UNL     1       5.371  -5.335  23.825  0.00  0.00    +0.000 C 
ATOM     27  C   UNL     1       6.634  -5.742  23.065  0.00  0.00    +0.003 C 
ENDBRANCH  21  22
ENDBRANCH  17  21
ENDBRANCH   1  17
TORSDOF 8
ENDMDL
MODEL 4
REMARK VINA RESULT:      -6.8      1.766      2.695
REMARK  Name = 
REMARK  9 active torsions:
REMARK  status: ('A' for Active; 'I' for Inactive)
REMARK    1  A    between atoms: C_2  and  N_3
REMARK    2  A    between atoms: C_2  and  C_4
REMARK    3  A    between atoms: C_2  and  C_11
REMARK    4  A    between atoms: C_4  and  C_5
REMARK    5  A    between atoms: C_11  and  O_13
REMARK    6  A    between atoms: C_11  and  C_14
REMARK    7  A    between atoms: N_16  and  N_17
REMARK    8  A    between atoms: N_17  and  C_18
REMARK    9  A    between atoms: C_21  and  C_22
REMARK                            x       y       z     vdW  Elec       q    Type
REMARK                         _______ _______ _______ _____ _____    ______ ____
ROOT
ATOM      1  C   UNL     1       8.592  -5.136  24.743  0.00  0.00    +0.218 C 
ENDROOT
BRANCH   1   2
ATOM      2  C   UNL     1       8.342  -4.154  23.594  0.00  0.00    +0.259 C 
ATOM      3  N   UNL     1       9.058  -2.973  23.723  0.00  0.00    -0.234 N 
ATOM      4  H   UNL     1       9.924  -3.028  24.259  0.00  0.00    +0.173 HD
ATOM      5  O   UNL     1       7.558  -4.373  22.676  0.00  0.00    -0.271 OA
BRANCH   3   6
ATOM      6  N   UNL     1       9.079  -2.137  22.592  0.00  0.00    -0.264 N 
ATOM      7  H   UNL     1       8.181  -2.182  22.097  0.00  0.00    +0.170 HD
BRANCH   6   8
ATOM      8  C   UNL     1       9.452  -0.797  22.868  0.00  0.00    +0.044 A 
ATOM      9  C   UNL     1       9.423   0.138  21.824  0.00  0.00    +0.025 A 
ATOM     10  C   UNL     1       9.882   1.447  22.015  0.00  0.00    +0.005 A 
ATOM     11  C   UNL     1      10.406   1.843  23.250  0.00  0.00    -0.050 A 
ATOM     12  C   UNL     1      10.926   3.238  23.434  0.00  0.00    +0.044 C 
ATOM     13  C   UNL     1      10.467   0.909  24.285  0.00  0.00    +0.005 A 
ATOM     14  C   UNL     1       9.999  -0.398  24.092  0.00  0.00    +0.025 A 
ENDBRANCH   6   8
ENDBRANCH   3   6
ENDBRANCH   1   2
BRANCH   1  15
ATOM     15  O   UNL     1      10.016  -5.200  25.006  0.00  0.00    -0.381 OA
ATOM     16  H   UNL     1      10.161  -6.012  25.526  0.00  0.00    +0.210 HD
ENDBRANCH   1  15
BRANCH   1  17
ATOM     17  C   UNL     1       7.878  -4.683  26.042  0.00  0.00    +0.089 C 
BRANCH  17  18
ATOM     18  N   UNL     1       8.275  -5.604  27.132  0.00  0.00    -0.325 NA
ATOM     19  H   UNL     1       9.065  -6.161  26.792  0.00  0.00    +0.119 HD
ATOM     20  H   UNL     1       8.639  -5.061  27.914  0.00  0.00    +0.119 HD
ENDBRANCH  17  18
BRANCH  17  21
ATOM     21  C   UNL     1       6.338  -4.646  25.905  0.00  0.00    +0.025 C 
BRANCH  21  22
ATOM     22  C   UNL     1       5.652  -6.022  25.688  0.00  0.00    -0.009 C 
ATOM     23  C   UNL     1       4.943  -6.090  24.320  0.00  0.00    +0.003 C 
ATOM     24  C   UNL     1       3.622  -5.326  24.280  0.00  0.00    +0.000 C 
ATOM     25  C   UNL     1       2.681  -5.799  25.382  0.00  0.00    +0.000 C 
ATOM     26  C   UNL     1       3.335  -5.678  26.751  0.00  0.00    +0.000 C 
ATOM     27  C   UNL     1       4.674  -6.412  26.813  0.00  0.00    +0.003 C 
ENDBRANCH  21  22
ENDBRANCH  17  21
ENDBRANCH   1  17
TORSDOF 8
ENDMDL
MODEL 5
REMARK VINA RESULT:      -6.8      2.157      3.243
REMARK  Name = 
REMARK  9 active torsions:
REMARK  status: ('A' for Active; 'I' for Inactive)
REMARK    1  A    between atoms: C_2  and  N_3
REMARK    2  A    between atoms: C_2  and  C_4
REMARK    3  A    between atoms: C_2  and  C_11
REMARK    4  A    between atoms: C_4  and  C_5
REMARK    5  A    between atoms: C_11  and  O_13
REMARK    6  A    between atoms: C_11  and  C_14
REMARK    7  A    between atoms: N_16  and  N_17
REMARK    8  A    between atoms: N_17  and  C_18
REMARK    9  A    between atoms: C_21  and  C_22
REMARK                            x       y       z     vdW  Elec       q    Type
REMARK                         _______ _______ _______ _____ _____    ______ ____
ROOT
ATOM      1  C   UNL     1       8.825  -4.334  24.890  0.00  0.00    +0.218 C 
ENDROOT
BRANCH   1   2
ATOM      2  C   UNL     1       8.914  -3.327  23.740  0.00  0.00    +0.259 C 
ATOM      3  N   UNL     1      10.075  -2.568  23.771  0.00  0.00    -0.234 N 
ATOM      4  H   UNL     1      10.879  -2.995  24.230  0.00  0.00    +0.173 HD
ATOM      5  O   UNL     1       8.031  -3.177  22.901  0.00  0.00    -0.271 OA
BRANCH   3   6
ATOM      6  N   UNL     1      10.347  -1.809  22.618  0.00  0.00    -0.264 N 
ATOM      7  H   UNL     1       9.753  -2.115  21.840  0.00  0.00    +0.170 HD
BRANCH   6   8
ATOM      8  C   UNL     1      10.262  -0.407  22.814  0.00  0.00    +0.044 A 
ATOM      9  C   UNL     1      10.554   0.116  24.082  0.00  0.00    +0.025 A 
ATOM     10  C   UNL     1      10.382   1.477  24.358  0.00  0.00    +0.005 A 
ATOM     11  C   UNL     1       9.888   2.344  23.378  0.00  0.00    -0.050 A 
ATOM     12  C   UNL     1       9.676   3.795  23.694  0.00  0.00    +0.044 C 
ATOM     13  C   UNL     1       9.567   1.826  22.123  0.00  0.00    +0.005 A 
ATOM     14  C   UNL     1       9.748   0.465  21.847  0.00  0.00    +0.025 A 
ENDBRANCH   6   8
ENDBRANCH   3   6
ENDBRANCH   1   2
BRANCH   1  15
ATOM     15  O   UNL     1      10.089  -5.032  25.004  0.00  0.00    -0.381 OA
ATOM     16  H   UNL     1      10.608  -4.789  24.215  0.00  0.00    +0.210 HD
ENDBRANCH   1  15
BRANCH   1  17
ATOM     17  C   UNL     1       8.535  -3.629  26.240  0.00  0.00    +0.089 C 
BRANCH  17  18
ATOM     18  N   UNL     1       7.289  -4.201  26.801  0.00  0.00    -0.325 NA
ATOM     19  H   UNL     1       7.279  -5.200  26.572  0.00  0.00    +0.119 HD
ATOM     20  H   UNL     1       7.327  -4.154  27.818  0.00  0.00    +0.119 HD
ENDBRANCH  17  18
BRANCH  17  21
ATOM     21  C   UNL     1       8.407  -2.093  26.107  0.00  0.00    +0.025 C 
BRANCH  21  22
ATOM     22  C   UNL     1       6.987  -1.516  26.354  0.00  0.00    -0.009 C 
ATOM     23  C   UNL     1       6.252  -1.239  25.028  0.00  0.00    +0.003 C 
ATOM     24  C   UNL     1       6.736   0.021  24.314  0.00  0.00    +0.000 C 
ATOM     25  C   UNL     1       6.645   1.238  25.227  0.00  0.00    +0.000 C 
ATOM     26  C   UNL     1       7.421   1.014  26.517  0.00  0.00    +0.000 C 
ATOM     27  C   UNL     1       6.975  -0.256  27.241  0.00  0.00    +0.003 C 
ENDBRANCH  21  22
ENDBRANCH  17  21
ENDBRANCH   1  17
TORSDOF 8
ENDMDL
MODEL 6
REMARK VINA RESULT:      -6.8      2.730      7.753
REMARK  Name = 
REMARK  9 active torsions:
REMARK  status: ('A' for Active; 'I' for Inactive)
REMARK    1  A    between atoms: C_2  and  N_3
REMARK    2  A    between atoms: C_2  and  C_4
REMARK    3  A    between atoms: C_2  and  C_11
REMARK    4  A    between atoms: C_4  and  C_5
REMARK    5  A    between atoms: C_11  and  O_13
REMARK    6  A    between atoms: C_11  and  C_14
REMARK    7  A    between atoms: N_16  and  N_17
REMARK    8  A    between atoms: N_17  and  C_18
REMARK    9  A    between atoms: C_21  and  C_22
REMARK                            x       y       z     vdW  Elec       q    Type
REMARK                         _______ _______ _______ _____ _____    ______ ____
ROOT
ATOM      1  C   UNL     1       9.911   1.061  22.540  0.00  0.00    +0.218 C 
ENDROOT
BRANCH   1   2
ATOM      2  C   UNL     1       8.632   0.316  22.931  0.00  0.00    +0.259 C 
ATOM      3  N   UNL     1       8.880  -0.906  23.540  0.00  0.00    -0.234 N 
ATOM      4  H   UNL     1       9.773  -0.994  24.025  0.00  0.00    +0.173 HD
ATOM      5  O   UNL     1       7.504   0.736  22.693  0.00  0.00    -0.271 OA
BRANCH   3   6
ATOM      6  N   UNL     1       7.776  -1.526  24.152  0.00  0.00    -0.264 N 
ATOM      7  H   UNL     1       7.035  -0.839  24.334  0.00  0.00    +0.170 HD
BRANCH   6   8
ATOM      8  C   UNL     1       7.277  -2.650  23.446  0.00  0.00    +0.044 A 
ATOM      9  C   UNL     1       7.914  -3.887  23.612  0.00  0.00    +0.025 A 
ATOM     10  C   UNL     1       7.531  -5.004  22.859  0.00  0.00    +0.005 A 
ATOM     11  C   UNL     1       6.517  -4.900  21.901  0.00  0.00    -0.050 A 
ATOM     12  C   UNL     1       6.136  -6.093  21.076  0.00  0.00    +0.044 C 
ATOM     13  C   UNL     1       5.898  -3.664  21.708  0.00  0.00    +0.005 A 
ATOM     14  C   UNL     1       6.279  -2.551  22.469  0.00  0.00    +0.025 A 
ENDBRANCH   6   8
ENDBRANCH   3   6
ENDBRANCH   1   2
BRANCH   1  15
ATOM     15  O   UNL     1       9.625   1.929  21.415  0.00  0.00    -0.381 OA
ATOM     16  H   UNL     1       8.847   1.548  20.967  0.00  0.00    +0.210 HD
ENDBRANCH   1  15
BRANCH   1  17
ATOM     17  C   UNL     1      10.438   1.936  23.706  0.00  0.00    +0.089 C 
BRANCH  17  18
ATOM     18  N   UNL     1       9.740   1.520  24.946  0.00  0.00    -0.325 NA
ATOM     19  H   UNL     1       8.940   0.944  24.669  0.00  0.00    +0.119 HD
ATOM     20  H   UNL     1      10.349   0.905  25.483  0.00  0.00    +0.119 HD
ENDBRANCH  17  18
BRANCH  17  21
ATOM     21  C   UNL     1      10.244   3.451  23.464  0.00  0.00    +0.025 C 
BRANCH  21  22
ATOM     22  C   UNL     1       9.115   4.122  24.294  0.00  0.00    -0.009 C 
ATOM     23  C   UNL     1       7.767   4.085  23.547  0.00  0.00    +0.003 C 
ATOM     24  C   UNL     1       7.667   5.108  22.418  0.00  0.00    +0.000 C 
ATOM     25  C   UNL     1       7.944   6.517  22.929  0.00  0.00    +0.000 C 
ATOM     26  C   UNL     1       9.302   6.596  23.611  0.00  0.00    +0.000 C 
ATOM     27  C   UNL     1       9.440   5.564  24.731  0.00  0.00    +0.003 C 
ENDBRANCH  21  22
ENDBRANCH  17  21
ENDBRANCH   1  17
TORSDOF 8
ENDMDL
MODEL 7
REMARK VINA RESULT:      -6.8      2.521      7.148
REMARK  Name = 
REMARK  9 active torsions:
REMARK  status: ('A' for Active; 'I' for Inactive)
REMARK    1  A    between atoms: C_2  and  N_3
REMARK    2  A    between atoms: C_2  and  C_4
REMARK    3  A    between atoms: C_2  and  C_11
REMARK    4  A    between atoms: C_4  and  C_5
REMARK    5  A    between atoms: C_11  and  O_13
REMARK    6  A    between atoms: C_11  and  C_14
REMARK    7  A    between atoms: N_16  and  N_17
REMARK    8  A    between atoms: N_17  and  C_18
REMARK    9  A    between atoms: C_21  and  C_22
REMARK                            x       y       z     vdW  Elec       q    Type
REMARK                         _______ _______ _______ _____ _____    ______ ____
ROOT
ATOM      1  C   UNL     1       8.555  -4.379  26.400  0.00  0.00    +0.218 C 
ENDROOT
BRANCH   1   2
ATOM      2  C   UNL     1       7.412  -5.319  26.796  0.00  0.00    +0.259 C 
ATOM      3  N   UNL     1       6.467  -5.477  25.793  0.00  0.00    -0.234 N 
ATOM      4  H   UNL     1       6.797  -5.337  24.838  0.00  0.00    +0.173 HD
ATOM      5  O   UNL     1       7.320  -5.844  27.901  0.00  0.00    -0.271 OA
BRANCH   3   6
ATOM      6  N   UNL     1       5.534  -6.513  25.983  0.00  0.00    -0.264 N 
ATOM      7  H   UNL     1       5.290  -6.597  26.976  0.00  0.00    +0.170 HD
BRANCH   6   8
ATOM      8  C   UNL     1       4.374  -6.403  25.174  0.00  0.00    +0.044 A 
ATOM      9  C   UNL     1       3.519  -7.509  25.069  0.00  0.00    +0.025 A 
ATOM     10  C   UNL     1       2.421  -7.492  24.201  0.00  0.00    +0.005 A 
ATOM     11  C   UNL     1       2.167  -6.376  23.398  0.00  0.00    -0.050 A 
ATOM     12  C   UNL     1       1.006  -6.381  22.447  0.00  0.00    +0.044 C 
ATOM     13  C   UNL     1       3.031  -5.283  23.474  0.00  0.00    +0.005 A 
ATOM     14  C   UNL     1       4.124  -5.300  24.350  0.00  0.00    +0.025 A 
ENDBRANCH   6   8
ENDBRANCH   3   6
ENDBRANCH   1   2
BRANCH   1  15
ATOM     15  O   UNL     1       9.760  -4.783  27.096  0.00  0.00    -0.381 OA
ATOM     16  H   UNL     1      10.440  -4.916  26.410  0.00  0.00    +0.210 HD
ENDBRANCH   1  15
BRANCH   1  17
ATOM     17  C   UNL     1       8.832  -4.433  24.876  0.00  0.00    +0.089 C 
BRANCH  17  18
ATOM     18  N   UNL     1       9.595  -5.671  24.590  0.00  0.00    -0.325 NA
ATOM     19  H   UNL     1       9.180  -6.423  25.147  0.00  0.00    +0.119 HD
ATOM     20  H   UNL     1       9.448  -5.937  23.617  0.00  0.00    +0.119 HD
ENDBRANCH  17  18
BRANCH  17  21
ATOM     21  C   UNL     1       9.602  -3.197  24.355  0.00  0.00    +0.025 C 
BRANCH  21  22
ATOM     22  C   UNL     1       8.766  -1.895  24.220  0.00  0.00    -0.009 C 
ATOM     23  C   UNL     1       8.161  -1.757  22.809  0.00  0.00    +0.003 C 
ATOM     24  C   UNL     1       9.173  -1.321  21.752  0.00  0.00    +0.000 C 
ATOM     25  C   UNL     1       9.864  -0.023  22.156  0.00  0.00    +0.000 C 
ATOM     26  C   UNL     1      10.528  -0.157  23.519  0.00  0.00    +0.000 C 
ATOM     27  C   UNL     1       9.542  -0.618  24.593  0.00  0.00    +0.003 C 
ENDBRANCH  21  22
ENDBRANCH  17  21
ENDBRANCH   1  17
TORSDOF 8
ENDMDL
MODEL 8
REMARK VINA RESULT:      -6.7      3.151      6.037
REMARK  Name = 
REMARK  9 active torsions:
REMARK  status: ('A' for Active; 'I' for Inactive)
REMARK    1  A    between atoms: C_2  and  N_3
REMARK    2  A    between atoms: C_2  and  C_4
REMARK    3  A    between atoms: C_2  and  C_11
REMARK    4  A    between atoms: C_4  and  C_5
REMARK    5  A    between atoms: C_11  and  O_13
REMARK    6  A    between atoms: C_11  and  C_14
REMARK    7  A    between atoms: N_16  and  N_17
REMARK    8  A    between atoms: N_17  and  C_18
REMARK    9  A    between atoms: C_21  and  C_22
REMARK                            x       y       z     vdW  Elec       q    Type
REMARK                         _______ _______ _______ _____ _____    ______ ____
ROOT
ATOM      1  C   UNL     1      10.099   2.270  22.815  0.00  0.00    +0.218 C 
ENDROOT
BRANCH   1   2
ATOM      2  C   UNL     1       9.375   1.206  21.984  0.00  0.00    +0.259 C 
ATOM      3  N   UNL     1      10.103   0.032  21.851  0.00  0.00    -0.234 N 
ATOM      4  H   UNL     1      10.770  -0.170  22.596  0.00  0.00    +0.173 HD
ATOM      5  O   UNL     1       8.283   1.388  21.454  0.00  0.00    -0.271 OA
BRANCH   3   6
ATOM      6  N   UNL     1       9.405  -1.070  21.326  0.00  0.00    -0.264 N 
ATOM      7  H   UNL     1       9.919  -1.476  20.536  0.00  0.00    +0.170 HD
BRANCH   6   8
ATOM      8  C   UNL     1       9.071  -2.058  22.288  0.00  0.00    +0.044 A 
ATOM      9  C   UNL     1       7.790  -2.624  22.255  0.00  0.00    +0.025 A 
ATOM     10  C   UNL     1       7.372  -3.522  23.244  0.00  0.00    +0.005 A 
ATOM     11  C   UNL     1       8.220  -3.854  24.305  0.00  0.00    -0.050 A 
ATOM     12  C   UNL     1       7.751  -4.792  25.378  0.00  0.00    +0.044 C 
ATOM     13  C   UNL     1       9.486  -3.271  24.362  0.00  0.00    +0.005 A 
ATOM     14  C   UNL     1       9.904  -2.379  23.366  0.00  0.00    +0.025 A 
ENDBRANCH   6   8
ENDBRANCH   3   6
ENDBRANCH   1   2
BRANCH   1  15
ATOM     15  O   UNL     1       9.426   3.541  22.641  0.00  0.00    -0.381 OA
ATOM     16  H   UNL     1       8.486   3.383  22.844  0.00  0.00    +0.210 HD
ENDBRANCH   1  15
BRANCH   1  17
ATOM     17  C   UNL     1      10.088   1.916  24.324  0.00  0.00    +0.089 C 
BRANCH  17  18
ATOM     18  N   UNL     1      10.896   0.689  24.516  0.00  0.00    -0.325 NA
ATOM     19  H   UNL     1      11.354   0.480  23.624  0.00  0.00    +0.119 HD
ATOM     20  H   UNL     1      11.651   0.885  25.173  0.00  0.00    +0.119 HD
ENDBRANCH  17  18
BRANCH  17  21
ATOM     21  C   UNL     1       8.662   1.712  24.888  0.00  0.00    +0.025 C 
BRANCH  21  22
ATOM     22  C   UNL     1       8.228   0.235  25.093  0.00  0.00    -0.009 C 
ATOM     23  C   UNL     1       6.829  -0.030  24.503  0.00  0.00    +0.003 C 
ATOM     24  C   UNL     1       5.691   0.516  25.363  0.00  0.00    +0.000 C 
ATOM     25  C   UNL     1       5.771  -0.026  26.786  0.00  0.00    +0.000 C 
ATOM     26  C   UNL     1       7.122   0.283  27.415  0.00  0.00    +0.000 C 
ATOM     27  C   UNL     1       8.282  -0.230  26.561  0.00  0.00    +0.003 C 
ENDBRANCH  21  22
ENDBRANCH  17  21
ENDBRANCH   1  17
TORSDOF 8
ENDMDL
MODEL 9
REMARK VINA RESULT:      -6.7      1.629      2.335
REMARK  Name = 
REMARK  9 active torsions:
REMARK  status: ('A' for Active; 'I' for Inactive)
REMARK    1  A    between atoms: C_2  and  N_3
REMARK    2  A    between atoms: C_2  and  C_4
REMARK    3  A    between atoms: C_2  and  C_11
REMARK    4  A    between atoms: C_4  and  C_5
REMARK    5  A    between atoms: C_11  and  O_13
REMARK    6  A    between atoms: C_11  and  C_14
REMARK    7  A    between atoms: N_16  and  N_17
REMARK    8  A    between atoms: N_17  and  C_18
REMARK    9  A    between atoms: C_21  and  C_22
REMARK                            x       y       z     vdW  Elec       q    Type
REMARK                         _______ _______ _______ _____ _____    ______ ____
ROOT
ATOM      1  C   UNL     1       8.629  -5.439  25.740  0.00  0.00    +0.218 C 
ENDROOT
BRANCH   1   2
ATOM      2  C   UNL     1       8.573  -4.738  24.379  0.00  0.00    +0.259 C 
ATOM      3  N   UNL     1       8.876  -3.386  24.450  0.00  0.00    -0.234 N 
ATOM      4  H   UNL     1       9.476  -3.101  25.224  0.00  0.00    +0.173 HD
ATOM      5  O   UNL     1       8.251  -5.305  23.339  0.00  0.00    -0.271 OA
BRANCH   3   6
ATOM      6  N   UNL     1       9.094  -2.737  23.222  0.00  0.00    -0.264 N 
ATOM      7  H   UNL     1       8.294  -2.880  22.595  0.00  0.00    +0.170 HD
BRANCH   6   8
ATOM      8  C   UNL     1       9.417  -1.361  23.342  0.00  0.00    +0.044 A 
ATOM      9  C   UNL     1       9.528  -0.591  22.176  0.00  0.00    +0.025 A 
ATOM     10  C   UNL     1       9.949   0.743  22.230  0.00  0.00    +0.005 A 
ATOM     11  C   UNL     1      10.294   1.330  23.451  0.00  0.00    -0.050 A 
ATOM     12  C   UNL     1      10.776   2.750  23.495  0.00  0.00    +0.044 C 
ATOM     13  C   UNL     1      10.216   0.561  24.613  0.00  0.00    +0.005 A 
ATOM     14  C   UNL     1       9.786  -0.772  24.556  0.00  0.00    +0.025 A 
ENDBRANCH   6   8
ENDBRANCH   3   6
ENDBRANCH   1   2
BRANCH   1  15
ATOM     15  O   UNL     1       9.744  -4.908  26.497  0.00  0.00    -0.381 OA
ATOM     16  H   UNL     1       9.401  -4.137  26.985  0.00  0.00    +0.210 HD
ENDBRANCH   1  15
BRANCH   1  17
ATOM     17  C   UNL     1       7.332  -5.201  26.554  0.00  0.00    +0.089 C 
BRANCH  17  18
ATOM     18  N   UNL     1       7.467  -5.903  27.852  0.00  0.00    -0.325 NA
ATOM     19  H   UNL     1       8.214  -6.596  27.750  0.00  0.00    +0.119 HD
ATOM     20  H   UNL     1       7.797  -5.245  28.556  0.00  0.00    +0.119 HD
ENDBRANCH  17  18
BRANCH  17  21
ATOM     21  C   UNL     1       6.058  -5.678  25.817  0.00  0.00    +0.025 C 
BRANCH  21  22
ATOM     22  C   UNL     1       4.909  -4.636  25.725  0.00  0.00    -0.009 C 
ATOM     23  C   UNL     1       3.527  -5.306  25.857  0.00  0.00    +0.003 C 
ATOM     24  C   UNL     1       3.082  -6.040  24.594  0.00  0.00    +0.000 C 
ATOM     25  C   UNL     1       3.101  -5.112  23.385  0.00  0.00    +0.000 C 
ATOM     26  C   UNL     1       4.477  -4.489  23.193  0.00  0.00    +0.000 C 
ATOM     27  C   UNL     1       4.960  -3.769  24.452  0.00  0.00    +0.003 C 
ENDBRANCH  21  22
ENDBRANCH  17  21
ENDBRANCH   1  17
TORSDOF 8
ENDMDL
