MODEL 1
REMARK VINA RESULT:      -5.5      0.000      0.000
REMARK  Name = 
REMARK  9 active torsions:
REMARK  status: ('A' for Active; 'I' for Inactive)
REMARK    1  A    between atoms: O_1  and  C_2
REMARK    2  A    between atoms: C_5  and  C_7
REMARK    3  A    between atoms: C_7  and  O_8
REMARK    4  A    between atoms: O_8  and  P_9
REMARK    5  A    between atoms: P_9  and  O_10
REMARK    6  A    between atoms: P_9  and  O_11
REMARK    7  A    between atoms: C_13  and  O_15
REMARK    8  A    between atoms: C_16  and  O_18
REMARK    9  A    between atoms: C_19  and  O_21
REMARK                            x       y       z     vdW  Elec       q    Type
REMARK                         _______ _______ _______ _____ _____    ______ ____
ROOT
ATOM      1  C   UNL     1       9.461  -0.903  21.526  0.00  0.00    +0.279 C 
ATOM      2  C   UNL     1       9.645   0.624  21.697  0.00  0.00    +0.201 C 
ATOM      3  C   UNL     1       9.645   1.026  23.185  0.00  0.00    +0.179 C 
ATOM      4  C   UNL     1       8.461   0.384  23.917  0.00  0.00    +0.177 C 
ATOM      5  C   UNL     1       8.407  -1.141  23.700  0.00  0.00    +0.179 C 
ATOM      6  O   UNL     1       8.413  -1.471  22.304  0.00  0.00    -0.341 OA
ENDROOT
BRANCH   1   7
ATOM      7  O   UNL     1      10.679  -1.569  21.830  0.00  0.00    -0.365 OA
ATOM      8  H   UNL     1      11.126  -1.687  20.971  0.00  0.00    +0.213 HD
ENDBRANCH   1   7
BRANCH   2   9
ATOM      9  O   UNL     1       8.644   1.345  20.963  0.00  0.00    -0.384 OA
ATOM     10  H   UNL     1       8.402   0.806  20.183  0.00  0.00    +0.210 HD
ENDBRANCH   2   9
BRANCH   3  11
ATOM     11  O   UNL     1      10.870   0.709  23.838  0.00  0.00    -0.386 OA
ATOM     12  H   UNL     1      11.240   1.529  24.220  0.00  0.00    +0.210 HD
ENDBRANCH   3  11
BRANCH   4  13
ATOM     13  O   UNL     1       7.249   0.980  23.405  0.00  0.00    -0.386 OA
ATOM     14  H   UNL     1       6.525   0.342  23.572  0.00  0.00    +0.210 HD
ENDBRANCH   4  13
BRANCH   5  15
ATOM     15  C   UNL     1       9.421  -1.954  24.523  0.00  0.00    +0.206 C 
BRANCH  15  16
ATOM     16  O   UNL     1       9.549  -3.248  23.956  0.00  0.00    -0.284 OA
BRANCH  16  17
ATOM     17  P   UNL     1       9.040  -4.490  24.813  0.00  0.00    +0.472 P 
ATOM     18  O   UNL     1       8.130  -4.232  25.955  0.00  0.00    -0.228 OA
BRANCH  17  19
ATOM     19  O   UNL     1      10.368  -5.319  25.131  0.00  0.00    -0.303 OA
ATOM     20  H   UNL     1      11.045  -5.120  24.461  0.00  0.00    +0.222 HD
ENDBRANCH  17  19
BRANCH  17  21
ATOM     21  O   UNL     1       8.389  -5.440  23.701  0.00  0.00    -0.303 OA
ATOM     22  H   UNL     1       8.122  -4.911  22.925  0.00  0.00    +0.222 HD
ENDBRANCH  17  21
ENDBRANCH  16  17
ENDBRANCH  15  16
ENDBRANCH   5  15
TORSDOF 9
ENDMDL
MODEL 2
REMARK VINA RESULT:      -5.5      2.668      5.756
REMARK  Name = 
REMARK  9 active torsions:
REMARK  status: ('A' for Active; 'I' for Inactive)
REMARK    1  A    between atoms: O_1  and  C_2
REMARK    2  A    between atoms: C_5  and  C_7
REMARK    3  A    between atoms: C_7  and  O_8
REMARK    4  A    between atoms: O_8  and  P_9
REMARK    5  A    between atoms: P_9  and  O_10
REMARK    6  A    between atoms: P_9  and  O_11
REMARK    7  A    between atoms: C_13  and  O_15
REMARK    8  A    between atoms: C_16  and  O_18
REMARK    9  A    between atoms: C_19  and  O_21
REMARK                            x       y       z     vdW  Elec       q    Type
REMARK                         _______ _______ _______ _____ _____    ______ ____
ROOT
ATOM      1  C   UNL     1       6.542  -4.866  25.738  0.00  0.00    +0.279 C 
ATOM      2  C   UNL     1       7.497  -4.739  26.950  0.00  0.00    +0.201 C 
ATOM      3  C   UNL     1       8.816  -4.048  26.555  0.00  0.00    +0.179 C 
ATOM      4  C   UNL     1       9.393  -4.675  25.280  0.00  0.00    +0.177 C 
ATOM      5  C   UNL     1       8.360  -4.711  24.136  0.00  0.00    +0.179 C 
ATOM      6  O   UNL     1       7.147  -5.359  24.547  0.00  0.00    -0.341 OA
ENDROOT
BRANCH   1   7
ATOM      7  O   UNL     1       5.940  -3.607  25.468  0.00  0.00    -0.365 OA
ATOM      8  H   UNL     1       5.395  -3.751  24.674  0.00  0.00    +0.213 HD
ENDBRANCH   1   7
BRANCH   2   9
ATOM      9  O   UNL     1       7.740  -6.022  27.546  0.00  0.00    -0.384 OA
ATOM     10  H   UNL     1       8.325  -5.884  28.319  0.00  0.00    +0.210 HD
ENDBRANCH   2   9
BRANCH   3  11
ATOM     11  O   UNL     1       8.671  -2.639  26.399  0.00  0.00    -0.386 OA
ATOM     12  H   UNL     1       9.394  -2.315  25.827  0.00  0.00    +0.210 HD
ENDBRANCH   3  11
BRANCH   4  13
ATOM     13  O   UNL     1       9.799  -6.025  25.595  0.00  0.00    -0.386 OA
ATOM     14  H   UNL     1       9.017  -6.597  25.457  0.00  0.00    +0.210 HD
ENDBRANCH   4  13
BRANCH   5  15
ATOM     15  C   UNL     1       8.122  -3.366  23.428  0.00  0.00    +0.206 C 
BRANCH  15  16
ATOM     16  O   UNL     1       9.297  -2.577  23.522  0.00  0.00    -0.284 OA
BRANCH  16  17
ATOM     17  P   UNL     1       9.341  -1.205  22.714  0.00  0.00    +0.472 P 
ATOM     18  O   UNL     1       8.089  -0.421  22.590  0.00  0.00    -0.228 OA
BRANCH  17  19
ATOM     19  O   UNL     1      10.089  -1.575  21.353  0.00  0.00    -0.303 OA
ATOM     20  H   UNL     1      10.732  -0.877  21.134  0.00  0.00    +0.222 HD
ENDBRANCH  17  19
BRANCH  17  21
ATOM     21  O   UNL     1      10.509  -0.399  23.454  0.00  0.00    -0.303 OA
ATOM     22  H   UNL     1      10.709   0.423  22.964  0.00  0.00    +0.222 HD
ENDBRANCH  17  21
ENDBRANCH  16  17
ENDBRANCH  15  16
ENDBRANCH   5  15
TORSDOF 9
ENDMDL
MODEL 3
REMARK VINA RESULT:      -5.4      1.186      2.440
REMARK  Name = 
REMARK  9 active torsions:
REMARK  status: ('A' for Active; 'I' for Inactive)
REMARK    1  A    between atoms: O_1  and  C_2
REMARK    2  A    between atoms: C_5  and  C_7
REMARK    3  A    between atoms: C_7  and  O_8
REMARK    4  A    between atoms: O_8  and  P_9
REMARK    5  A    between atoms: P_9  and  O_10
REMARK    6  A    between atoms: P_9  and  O_11
REMARK    7  A    between atoms: C_13  and  O_15
REMARK    8  A    between atoms: C_16  and  O_18
REMARK    9  A    between atoms: C_19  and  O_21
REMARK                            x       y       z     vdW  Elec       q    Type
REMARK                         _______ _______ _______ _____ _____    ______ ____
ROOT
ATOM      1  C   UNL     1      10.263   0.945  23.776  0.00  0.00    +0.279 C 
ATOM      2  C   UNL     1       9.095   1.436  22.887  0.00  0.00    +0.201 C 
ATOM      3  C   UNL     1       8.129   0.285  22.545  0.00  0.00    +0.179 C 
ATOM      4  C   UNL     1       8.904  -0.944  22.055  0.00  0.00    +0.177 C 
ATOM      5  C   UNL     1      10.014  -1.356  23.042  0.00  0.00    +0.179 C 
ATOM      6  O   UNL     1      10.888  -0.256  23.336  0.00  0.00    -0.341 OA
ENDROOT
BRANCH   1   7
ATOM      7  O   UNL     1       9.808   0.772  25.111  0.00  0.00    -0.365 OA
ATOM      8  H   UNL     1       8.839   0.862  25.063  0.00  0.00    +0.213 HD
ENDBRANCH   1   7
BRANCH   2   9
ATOM      9  O   UNL     1       9.589   2.070  21.697  0.00  0.00    -0.384 OA
ATOM     10  H   UNL     1       9.593   3.036  21.857  0.00  0.00    +0.210 HD
ENDBRANCH   2   9
BRANCH   3  11
ATOM     11  O   UNL     1       7.279  -0.059  23.635  0.00  0.00    -0.386 OA
ATOM     12  H   UNL     1       7.838  -0.313  24.395  0.00  0.00    +0.210 HD
ENDBRANCH   3  11
BRANCH   4  13
ATOM     13  O   UNL     1       9.501  -0.612  20.782  0.00  0.00    -0.386 OA
ATOM     14  H   UNL     1       9.388   0.352  20.657  0.00  0.00    +0.210 HD
ENDBRANCH   4  13
BRANCH   5  15
ATOM     15  C   UNL     1       9.528  -2.100  24.298  0.00  0.00    +0.206 C 
BRANCH  15  16
ATOM     16  O   UNL     1       9.960  -3.449  24.237  0.00  0.00    -0.284 OA
BRANCH  16  17
ATOM     17  P   UNL     1       9.141  -4.533  25.068  0.00  0.00    +0.472 P 
ATOM     18  O   UNL     1       7.949  -5.150  24.437  0.00  0.00    -0.228 OA
BRANCH  17  19
ATOM     19  O   UNL     1       8.921  -3.851  26.495  0.00  0.00    -0.303 OA
ATOM     20  H   UNL     1       9.298  -2.954  26.489  0.00  0.00    +0.222 HD
ENDBRANCH  17  19
BRANCH  17  21
ATOM     21  O   UNL     1      10.266  -5.605  25.452  0.00  0.00    -0.303 OA
ATOM     22  H   UNL     1      10.596  -5.433  26.355  0.00  0.00    +0.222 HD
ENDBRANCH  17  21
ENDBRANCH  16  17
ENDBRANCH  15  16
ENDBRANCH   5  15
TORSDOF 9
ENDMDL
MODEL 4
REMARK VINA RESULT:      -5.4      1.862      3.421
REMARK  Name = 
REMARK  9 active torsions:
REMARK  status: ('A' for Active; 'I' for Inactive)
REMARK    1  A    between atoms: O_1  and  C_2
REMARK    2  A    between atoms: C_5  and  C_7
REMARK    3  A    between atoms: C_7  and  O_8
REMARK    4  A    between atoms: O_8  and  P_9
REMARK    5  A    between atoms: P_9  and  O_10
REMARK    6  A    between atoms: P_9  and  O_11
REMARK    7  A    between atoms: C_13  and  O_15
REMARK    8  A    between atoms: C_16  and  O_18
REMARK    9  A    between atoms: C_19  and  O_21
REMARK                            x       y       z     vdW  Elec       q    Type
REMARK                         _______ _______ _______ _____ _____    ______ ____
ROOT
ATOM      1  C   UNL     1       8.886   2.655  24.579  0.00  0.00    +0.279 C 
ATOM      2  C   UNL     1       8.002   2.685  23.309  0.00  0.00    +0.201 C 
ATOM      3  C   UNL     1       8.210   1.423  22.451  0.00  0.00    +0.179 C 
ATOM      4  C   UNL     1       9.705   1.147  22.249  0.00  0.00    +0.177 C 
ATOM      5  C   UNL     1      10.469   1.105  23.588  0.00  0.00    +0.179 C 
ATOM      6  O   UNL     1      10.245   2.295  24.356  0.00  0.00    -0.341 OA
ENDROOT
BRANCH   1   7
ATOM      7  O   UNL     1       8.320   1.767  25.535  0.00  0.00    -0.365 OA
ATOM      8  H   UNL     1       7.959   1.028  25.012  0.00  0.00    +0.213 HD
ENDBRANCH   1   7
BRANCH   2   9
ATOM      9  O   UNL     1       8.243   3.878  22.547  0.00  0.00    -0.384 OA
ATOM     10  H   UNL     1       8.030   4.643  23.119  0.00  0.00    +0.210 HD
ENDBRANCH   2   9
BRANCH   3  11
ATOM     11  O   UNL     1       7.558   0.278  22.992  0.00  0.00    -0.386 OA
ATOM     12  H   UNL     1       7.917  -0.519  22.556  0.00  0.00    +0.210 HD
ENDBRANCH   3  11
BRANCH   4  13
ATOM     13  O   UNL     1      10.244   2.207  21.429  0.00  0.00    -0.386 OA
ATOM     14  H   UNL     1       9.486   2.753  21.134  0.00  0.00    +0.210 HD
ENDBRANCH   4  13
BRANCH   5  15
ATOM     15  C   UNL     1      10.288  -0.189  24.401  0.00  0.00    +0.206 C 
BRANCH  15  16
ATOM     16  O   UNL     1      10.251  -1.295  23.514  0.00  0.00    -0.284 OA
BRANCH  16  17
ATOM     17  P   UNL     1       9.316  -2.526  23.897  0.00  0.00    +0.472 P 
ATOM     18  O   UNL     1       9.958  -3.779  24.363  0.00  0.00    -0.228 OA
BRANCH  17  19
ATOM     19  O   UNL     1       8.311  -2.655  22.663  0.00  0.00    -0.303 OA
ATOM     20  H   UNL     1       8.639  -2.122  21.918  0.00  0.00    +0.222 HD
ENDBRANCH  17  19
BRANCH  17  21
ATOM     21  O   UNL     1       8.328  -1.892  24.985  0.00  0.00    -0.303 OA
ATOM     22  H   UNL     1       7.456  -1.716  24.581  0.00  0.00    +0.222 HD
ENDBRANCH  17  21
ENDBRANCH  16  17
ENDBRANCH  15  16
ENDBRANCH   5  15
TORSDOF 9
ENDMDL
MODEL 5
REMARK VINA RESULT:      -5.3      3.217      5.831
REMARK  Name = 
REMARK  9 active torsions:
REMARK  status: ('A' for Active; 'I' for Inactive)
REMARK    1  A    between atoms: O_1  and  C_2
REMARK    2  A    between atoms: C_5  and  C_7
REMARK    3  A    between atoms: C_7  and  O_8
REMARK    4  A    between atoms: O_8  and  P_9
REMARK    5  A    between atoms: P_9  and  O_10
REMARK    6  A    between atoms: P_9  and  O_11
REMARK    7  A    between atoms: C_13  and  O_15
REMARK    8  A    between atoms: C_16  and  O_18
REMARK    9  A    between atoms: C_19  and  O_21
REMARK                            x       y       z     vdW  Elec       q    Type
REMARK                         _______ _______ _______ _____ _____    ______ ____
ROOT
ATOM      1  C   UNL     1       9.931   0.969  21.838  0.00  0.00    +0.279 C 
ATOM      2  C   UNL     1       9.204  -0.382  21.632  0.00  0.00    +0.201 C 
ATOM      3  C   UNL     1       8.113  -0.600  22.697  0.00  0.00    +0.179 C 
ATOM      4  C   UNL     1       8.663  -0.316  24.100  0.00  0.00    +0.177 C 
ATOM      5  C   UNL     1       9.329   1.071  24.188  0.00  0.00    +0.179 C 
ATOM      6  O   UNL     1      10.335   1.234  23.178  0.00  0.00    -0.341 OA
ENDROOT
BRANCH   1   7
ATOM      7  O   UNL     1       9.105   2.032  21.381  0.00  0.00    -0.365 OA
ATOM      8  H   UNL     1       8.450   1.611  20.795  0.00  0.00    +0.213 HD
ENDBRANCH   1   7
BRANCH   2   9
ATOM      9  O   UNL     1      10.141  -1.470  21.617  0.00  0.00    -0.384 OA
ATOM     10  H   UNL     1      10.966  -1.156  22.040  0.00  0.00    +0.210 HD
ENDBRANCH   2   9
BRANCH   3  11
ATOM     11  O   UNL     1       6.944   0.175  22.451  0.00  0.00    -0.386 OA
ATOM     12  H   UNL     1       7.026   0.590  21.571  0.00  0.00    +0.210 HD
ENDBRANCH   3  11
BRANCH   4  13
ATOM     13  O   UNL     1       9.643  -1.333  24.405  0.00  0.00    -0.386 OA
ATOM     14  H   UNL     1      10.206  -0.979  25.123  0.00  0.00    +0.210 HD
ENDBRANCH   4  13
BRANCH   5  15
ATOM     15  C   UNL     1       8.355   2.259  24.274  0.00  0.00    +0.206 C 
BRANCH  15  16
ATOM     16  O   UNL     1       9.023   3.367  24.855  0.00  0.00    -0.284 OA
BRANCH  16  17
ATOM     17  P   UNL     1       9.332   4.623  23.924  0.00  0.00    +0.472 P 
ATOM     18  O   UNL     1       9.452   5.957  24.559  0.00  0.00    -0.228 OA
BRANCH  17  19
ATOM     19  O   UNL     1       8.282   4.492  22.728  0.00  0.00    -0.303 OA
ATOM     20  H   UNL     1       8.185   5.353  22.284  0.00  0.00    +0.222 HD
ENDBRANCH  17  19
BRANCH  17  21
ATOM     21  O   UNL     1      10.666   4.174  23.162  0.00  0.00    -0.303 OA
ATOM     22  H   UNL     1      10.446   3.545  22.447  0.00  0.00    +0.222 HD
ENDBRANCH  17  21
ENDBRANCH  16  17
ENDBRANCH  15  16
ENDBRANCH   5  15
TORSDOF 9
ENDMDL
MODEL 6
REMARK VINA RESULT:      -5.2      3.296      5.589
REMARK  Name = 
REMARK  9 active torsions:
REMARK  status: ('A' for Active; 'I' for Inactive)
REMARK    1  A    between atoms: O_1  and  C_2
REMARK    2  A    between atoms: C_5  and  C_7
REMARK    3  A    between atoms: C_7  and  O_8
REMARK    4  A    between atoms: O_8  and  P_9
REMARK    5  A    between atoms: P_9  and  O_10
REMARK    6  A    between atoms: P_9  and  O_11
REMARK    7  A    between atoms: C_13  and  O_15
REMARK    8  A    between atoms: C_16  and  O_18
REMARK    9  A    between atoms: C_19  and  O_21
REMARK                            x       y       z     vdW  Elec       q    Type
REMARK                         _______ _______ _______ _____ _____    ______ ____
ROOT
ATOM      1  C   UNL     1       5.145  -4.511  24.047  0.00  0.00    +0.279 C 
ATOM      2  C   UNL     1       5.859  -5.830  23.663  0.00  0.00    +0.201 C 
ATOM      3  C   UNL     1       7.112  -5.562  22.808  0.00  0.00    +0.179 C 
ATOM      4  C   UNL     1       6.789  -4.591  21.666  0.00  0.00    +0.177 C 
ATOM      5  C   UNL     1       6.116  -3.302  22.178  0.00  0.00    +0.179 C 
ATOM      6  O   UNL     1       4.957  -3.596  22.972  0.00  0.00    -0.341 OA
ENDROOT
BRANCH   1   7
ATOM      7  O   UNL     1       5.864  -3.863  25.089  0.00  0.00    -0.365 OA
ATOM      8  H   UNL     1       6.768  -3.752  24.742  0.00  0.00    +0.213 HD
ENDBRANCH   1   7
BRANCH   2   9
ATOM      9  O   UNL     1       4.956  -6.724  22.996  0.00  0.00    -0.384 OA
ATOM     10  H   UNL     1       4.047  -6.486  23.270  0.00  0.00    +0.210 HD
ENDBRANCH   2   9
BRANCH   3  11
ATOM     11  O   UNL     1       8.209  -5.081  23.579  0.00  0.00    -0.386 OA
ATOM     12  H   UNL     1       7.882  -4.838  24.467  0.00  0.00    +0.210 HD
ENDBRANCH   3  11
BRANCH   4  13
ATOM     13  O   UNL     1       5.894  -5.263  20.754  0.00  0.00    -0.386 OA
ATOM     14  H   UNL     1       5.101  -4.696  20.662  0.00  0.00    +0.210 HD
ENDBRANCH   4  13
BRANCH   5  15
ATOM     15  C   UNL     1       7.065  -2.288  22.840  0.00  0.00    +0.206 C 
BRANCH  15  16
ATOM     16  O   UNL     1       8.326  -2.341  22.192  0.00  0.00    -0.284 OA
BRANCH  16  17
ATOM     17  P   UNL     1       9.578  -1.707  22.946  0.00  0.00    +0.472 P 
ATOM     18  O   UNL     1       9.367  -0.485  23.758  0.00  0.00    -0.228 OA
BRANCH  17  19
ATOM     19  O   UNL     1      10.715  -1.635  21.828  0.00  0.00    -0.303 OA
ATOM     20  H   UNL     1      10.994  -0.710  21.705  0.00  0.00    +0.222 HD
ENDBRANCH  17  19
BRANCH  17  21
ATOM     21  O   UNL     1      10.128  -2.939  23.809  0.00  0.00    -0.303 OA
ATOM     22  H   UNL     1       9.631  -3.750  23.587  0.00  0.00    +0.222 HD
ENDBRANCH  17  21
ENDBRANCH  16  17
ENDBRANCH  15  16
ENDBRANCH   5  15
TORSDOF 9
ENDMDL
MODEL 7
REMARK VINA RESULT:      -5.2      1.341      2.127
REMARK  Name = 
REMARK  9 active torsions:
REMARK  status: ('A' for Active; 'I' for Inactive)
REMARK    1  A    between atoms: O_1  and  C_2
REMARK    2  A    between atoms: C_5  and  C_7
REMARK    3  A    between atoms: C_7  and  O_8
REMARK    4  A    between atoms: O_8  and  P_9
REMARK    5  A    between atoms: P_9  and  O_10
REMARK    6  A    between atoms: P_9  and  O_11
REMARK    7  A    between atoms: C_13  and  O_15
REMARK    8  A    between atoms: C_16  and  O_18
REMARK    9  A    between atoms: C_19  and  O_21
REMARK                            x       y       z     vdW  Elec       q    Type
REMARK                         _______ _______ _______ _____ _____    ______ ____
ROOT
ATOM      1  C   UNL     1       7.557  -1.110  22.960  0.00  0.00    +0.279 C 
ATOM      2  C   UNL     1       8.548  -0.158  22.248  0.00  0.00    +0.201 C 
ATOM      3  C   UNL     1      10.009  -0.517  22.581  0.00  0.00    +0.179 C 
ATOM      4  C   UNL     1      10.188  -0.699  24.093  0.00  0.00    +0.177 C 
ATOM      5  C   UNL     1       9.169  -1.697  24.679  0.00  0.00    +0.179 C 
ATOM      6  O   UNL     1       7.824  -1.329  24.342  0.00  0.00    -0.341 OA
ENDROOT
BRANCH   1   7
ATOM      7  O   UNL     1       7.528  -2.362  22.288  0.00  0.00    -0.365 OA
ATOM      8  H   UNL     1       7.829  -2.170  21.381  0.00  0.00    +0.213 HD
ENDBRANCH   1   7
BRANCH   2   9
ATOM      9  O   UNL     1       8.262   1.212  22.570  0.00  0.00    -0.384 OA
ATOM     10  H   UNL     1       7.823   1.225  23.445  0.00  0.00    +0.210 HD
ENDBRANCH   2   9
BRANCH   3  11
ATOM     11  O   UNL     1      10.464  -1.669  21.880  0.00  0.00    -0.386 OA
ATOM     12  H   UNL     1      10.266  -2.459  22.420  0.00  0.00    +0.210 HD
ENDBRANCH   3  11
BRANCH   4  13
ATOM     13  O   UNL     1      10.004   0.589  24.719  0.00  0.00    -0.386 OA
ATOM     14  H   UNL     1       9.040   0.719  24.826  0.00  0.00    +0.210 HD
ENDBRANCH   4  13
BRANCH   5  15
ATOM     15  C   UNL     1       9.479  -3.180  24.411  0.00  0.00    +0.206 C 
BRANCH  15  16
ATOM     16  O   UNL     1       8.363  -3.966  24.795  0.00  0.00    -0.284 OA
BRANCH  16  17
ATOM     17  P   UNL     1       8.606  -5.150  25.831  0.00  0.00    +0.472 P 
ATOM     18  O   UNL     1       7.441  -5.961  26.259  0.00  0.00    -0.228 OA
BRANCH  17  19
ATOM     19  O   UNL     1       9.478  -4.485  26.991  0.00  0.00    -0.303 OA
ATOM     20  H   UNL     1      10.357  -4.252  26.646  0.00  0.00    +0.222 HD
ENDBRANCH  17  19
BRANCH  17  21
ATOM     21  O   UNL     1       9.738  -6.021  25.109  0.00  0.00    -0.303 OA
ATOM     22  H   UNL     1       9.887  -6.851  25.603  0.00  0.00    +0.222 HD
ENDBRANCH  17  21
ENDBRANCH  16  17
ENDBRANCH  15  16
ENDBRANCH   5  15
TORSDOF 9
ENDMDL
MODEL 8
REMARK VINA RESULT:      -5.1      1.934      3.477
REMARK  Name = 
REMARK  9 active torsions:
REMARK  status: ('A' for Active; 'I' for Inactive)
REMARK    1  A    between atoms: O_1  and  C_2
REMARK    2  A    between atoms: C_5  and  C_7
REMARK    3  A    between atoms: C_7  and  O_8
REMARK    4  A    between atoms: O_8  and  P_9
REMARK    5  A    between atoms: P_9  and  O_10
REMARK    6  A    between atoms: P_9  and  O_11
REMARK    7  A    between atoms: C_13  and  O_15
REMARK    8  A    between atoms: C_16  and  O_18
REMARK    9  A    between atoms: C_19  and  O_21
REMARK                            x       y       z     vdW  Elec       q    Type
REMARK                         _______ _______ _______ _____ _____    ______ ____
ROOT
ATOM      1  C   UNL     1       6.734   2.305  23.054  0.00  0.00    +0.279 C 
ATOM      2  C   UNL     1       7.649   2.882  21.947  0.00  0.00    +0.201 C 
ATOM      3  C   UNL     1       9.033   2.204  21.953  0.00  0.00    +0.179 C 
ATOM      4  C   UNL     1       9.606   2.160  23.374  0.00  0.00    +0.177 C 
ATOM      5  C   UNL     1       8.618   1.532  24.377  0.00  0.00    +0.179 C 
ATOM      6  O   UNL     1       7.343   2.189  24.336  0.00  0.00    -0.341 OA
ENDROOT
BRANCH   1   7
ATOM      7  O   UNL     1       6.244   1.031  22.654  0.00  0.00    -0.365 OA
ATOM      8  H   UNL     1       5.855   0.645  23.460  0.00  0.00    +0.213 HD
ENDBRANCH   1   7
BRANCH   2   9
ATOM      9  O   UNL     1       7.768   4.307  22.073  0.00  0.00    -0.384 OA
ATOM     10  H   UNL     1       8.096   4.498  22.975  0.00  0.00    +0.210 HD
ENDBRANCH   2   9
BRANCH   3  11
ATOM     11  O   UNL     1       9.006   0.898  21.383  0.00  0.00    -0.386 OA
ATOM     12  H   UNL     1       8.835   0.253  22.096  0.00  0.00    +0.210 HD
ENDBRANCH   3  11
BRANCH   4  13
ATOM     13  O   UNL     1       9.892   3.517  23.778  0.00  0.00    -0.386 OA
ATOM     14  H   UNL     1      10.656   3.818  23.245  0.00  0.00    +0.210 HD
ENDBRANCH   4  13
BRANCH   5  15
ATOM     15  C   UNL     1       8.514  -0.002  24.317  0.00  0.00    +0.206 C 
BRANCH  15  16
ATOM     16  O   UNL     1       9.777  -0.540  23.959  0.00  0.00    -0.284 OA
BRANCH  16  17
ATOM     17  P   UNL     1       9.802  -1.927  23.177  0.00  0.00    +0.472 P 
ATOM     18  O   UNL     1      10.154  -3.154  23.930  0.00  0.00    -0.228 OA
BRANCH  17  19
ATOM     19  O   UNL     1      10.661  -1.623  21.865  0.00  0.00    -0.303 OA
ATOM     20  H   UNL     1      10.208  -1.990  21.086  0.00  0.00    +0.222 HD
ENDBRANCH  17  19
BRANCH  17  21
ATOM     21  O   UNL     1       8.339  -1.992  22.531  0.00  0.00    -0.303 OA
ATOM     22  H   UNL     1       8.277  -1.368  21.782  0.00  0.00    +0.222 HD
ENDBRANCH  17  21
ENDBRANCH  16  17
ENDBRANCH  15  16
ENDBRANCH   5  15
TORSDOF 9
ENDMDL
MODEL 9
REMARK VINA RESULT:      -5.1      2.509      5.146
REMARK  Name = 
REMARK  9 active torsions:
REMARK  status: ('A' for Active; 'I' for Inactive)
REMARK    1  A    between atoms: O_1  and  C_2
REMARK    2  A    between atoms: C_5  and  C_7
REMARK    3  A    between atoms: C_7  and  O_8
REMARK    4  A    between atoms: O_8  and  P_9
REMARK    5  A    between atoms: P_9  and  O_10
REMARK    6  A    between atoms: P_9  and  O_11
REMARK    7  A    between atoms: C_13  and  O_15
REMARK    8  A    between atoms: C_16  and  O_18
REMARK    9  A    between atoms: C_19  and  O_21
REMARK                            x       y       z     vdW  Elec       q    Type
REMARK                         _______ _______ _______ _____ _____    ______ ____
ROOT
ATOM      1  C   UNL     1       8.373  -0.875  22.176  0.00  0.00    +0.279 C 
ATOM      2  C   UNL     1       7.573  -1.998  22.879  0.00  0.00    +0.201 C 
ATOM      3  C   UNL     1       7.907  -2.069  24.382  0.00  0.00    +0.179 C 
ATOM      4  C   UNL     1       9.425  -2.059  24.598  0.00  0.00    +0.177 C 
ATOM      5  C   UNL     1      10.102  -0.874  23.880  0.00  0.00    +0.179 C 
ATOM      6  O   UNL     1       9.762  -0.844  22.486  0.00  0.00    -0.341 OA
ENDROOT
BRANCH   1   7
ATOM      7  O   UNL     1       7.798   0.388  22.485  0.00  0.00    -0.365 OA
ATOM      8  H   UNL     1       7.258   0.233  23.281  0.00  0.00    +0.213 HD
ENDBRANCH   1   7
BRANCH   2   9
ATOM      9  O   UNL     1       7.795  -3.263  22.237  0.00  0.00    -0.384 OA
ATOM     10  H   UNL     1       8.754  -3.453  22.280  0.00  0.00    +0.210 HD
ENDBRANCH   2   9
BRANCH   3  11
ATOM     11  O   UNL     1       7.287  -1.027  25.130  0.00  0.00    -0.386 OA
ATOM     12  H   UNL     1       7.906  -0.736  25.827  0.00  0.00    +0.210 HD
ENDBRANCH   3  11
BRANCH   4  13
ATOM     13  O   UNL     1       9.955  -3.296  24.074  0.00  0.00    -0.386 OA
ATOM     14  H   UNL     1      10.445  -3.073  23.257  0.00  0.00    +0.210 HD
ENDBRANCH   4  13
BRANCH   5  15
ATOM     15  C   UNL     1       9.943   0.489  24.576  0.00  0.00    +0.206 C 
BRANCH  15  16
ATOM     16  O   UNL     1      10.925   1.383  24.078  0.00  0.00    -0.284 OA
BRANCH  16  17
ATOM     17  P   UNL     1      10.427   2.685  23.309  0.00  0.00    +0.472 P 
ATOM     18  O   UNL     1      11.265   3.906  23.375  0.00  0.00    -0.228 OA
BRANCH  17  19
ATOM     19  O   UNL     1       8.900   2.841  23.749  0.00  0.00    -0.303 OA
ATOM     20  H   UNL     1       8.323   2.729  22.973  0.00  0.00    +0.222 HD
ENDBRANCH  17  19
BRANCH  17  21
ATOM     21  O   UNL     1      10.223   2.152  21.813  0.00  0.00    -0.303 OA
ATOM     22  H   UNL     1       9.307   1.831  21.695  0.00  0.00    +0.222 HD
ENDBRANCH  17  21
ENDBRANCH  16  17
ENDBRANCH  15  16
ENDBRANCH   5  15
TORSDOF 9
ENDMDL
