MODEL 1
REMARK VINA RESULT:      -7.7      0.000      0.000
REMARK  Name = 
REMARK  5 active torsions:
REMARK  status: ('A' for Active; 'I' for Inactive)
REMARK    1  A    between atoms: C_1  and  C_2
REMARK    2  A    between atoms: N_4  and  C_8
REMARK    3  A    between atoms: C_15  and  C_28
REMARK    4  A    between atoms: N_17  and  C_20
REMARK    5  A    between atoms: C_28  and  O_29
REMARK                            x       y       z     vdW  Elec       q    Type
REMARK                         _______ _______ _______ _____ _____    ______ ____
ROOT
ATOM      1  C   UNL     1       7.537   4.207  25.872  0.00  0.00    +0.067 A 
ATOM      2  C   UNL     1       8.218   3.536  24.836  0.00  0.00    +0.053 A 
ATOM      3  C   UNL     1       9.469   3.942  24.331  0.00  0.00    +0.059 A 
ATOM      4  C   UNL     1       9.898   5.224  24.722  0.00  0.00    +0.049 A 
ATOM      5  C   UNL     1      11.119   5.806  24.140  0.00  0.00    +0.203 A 
ATOM      6  C   UNL     1      11.951   4.942  23.289  0.00  0.00    +0.122 A 
ATOM      7  C   UNL     1      11.502   3.704  23.046  0.00  0.00    +0.110 A 
ATOM      8  O   UNL     1      11.451   6.967  24.363  0.00  0.00    -0.286 OA
ATOM      9  C   UNL     1       9.188   5.988  25.649  0.00  0.00    +0.054 A 
ATOM     10  N   UNL     1      10.294   3.116  23.469  0.00  0.00    -0.312 N 
ATOM     11  C   UNL     1       8.051   5.459  26.239  0.00  0.00    +0.145 A 
ATOM     12  F   UNL     1       7.414   6.223  27.140  0.00  0.00    -0.204 F 
ENDROOT
BRANCH   1  19
ATOM     13  C   UNL     1       6.737   0.680  27.199  0.00  0.00    +0.025 C 
ATOM     14  C   UNL     1       5.788   1.694  27.851  0.00  0.00    +0.068 C 
ATOM     15  N   UNL     1       4.444   1.663  27.226  0.00  0.00    -0.311 NA
ATOM     16  H   UNL     1       4.143   0.695  27.121  0.00  0.00    +0.122 HD
ATOM     17  C   UNL     1       4.450   2.309  25.896  0.00  0.00    +0.100 C 
ATOM     18  C   UNL     1       5.090   3.712  25.891  0.00  0.00    +0.120 C 
ATOM     19  N   UNL     1       6.438   3.643  26.487  0.00  0.00    -0.325 N 
ATOM     20  C   UNL     1       6.432   3.109  27.855  0.00  0.00    +0.123 C 
ENDBRANCH   1  19
BRANCH  10  21
ATOM     21  C   UNL     1       9.996   1.752  23.066  0.00  0.00    +0.082 A 
ATOM     22  C   UNL     1       9.387   1.459  21.828  0.00  0.00    +0.032 A 
ATOM     23  C   UNL     1       9.272   0.150  21.346  0.00  0.00    +0.040 A 
ATOM     24  C   UNL     1       9.642  -0.912  22.154  0.00  0.00    +0.126 A 
ATOM     25  F   UNL     1       9.534  -2.163  21.694  0.00  0.00    -0.205 F 
ATOM     26  C   UNL     1      10.114  -0.685  23.434  0.00  0.00    +0.078 A 
ATOM     27  C   UNL     1      10.308   0.627  23.870  0.00  0.00    +0.150 A 
ATOM     28  F   UNL     1      10.845   0.775  25.090  0.00  0.00    -0.203 F 
ENDBRANCH  10  21
BRANCH   6  29
ATOM     29  C   UNL     1      13.245   5.381  22.733  0.00  0.00    +0.342 C 
ATOM     30  O   UNL     1      13.345   6.087  21.742  0.00  0.00    -0.245 OA
BRANCH  29  31
ATOM     31  O   UNL     1      14.334   4.946  23.412  0.00  0.00    -0.477 OA
ATOM     32  H   UNL     1      15.137   4.803  22.847  0.00  0.00    +0.295 HD
ENDBRANCH  29  31
ENDBRANCH   6  29
TORSDOF 4
ENDMDL
MODEL 2
REMARK VINA RESULT:      -7.7      4.915      8.125
REMARK  Name = 
REMARK  5 active torsions:
REMARK  status: ('A' for Active; 'I' for Inactive)
REMARK    1  A    between atoms: C_1  and  C_2
REMARK    2  A    between atoms: N_4  and  C_8
REMARK    3  A    between atoms: C_15  and  C_28
REMARK    4  A    between atoms: N_17  and  C_20
REMARK    5  A    between atoms: C_28  and  O_29
REMARK                            x       y       z     vdW  Elec       q    Type
REMARK                         _______ _______ _______ _____ _____    ______ ____
ROOT
ATOM      1  C   UNL     1       8.390   0.248  23.007  0.00  0.00    +0.067 A 
ATOM      2  C   UNL     1       7.497  -0.123  24.032  0.00  0.00    +0.053 A 
ATOM      3  C   UNL     1       7.466  -1.404  24.619  0.00  0.00    +0.059 A 
ATOM      4  C   UNL     1       8.193  -2.401  23.943  0.00  0.00    +0.049 A 
ATOM      5  C   UNL     1       8.114  -3.803  24.384  0.00  0.00    +0.203 A 
ATOM      6  C   UNL     1       7.402  -4.087  25.641  0.00  0.00    +0.122 A 
ATOM      7  C   UNL     1       6.815  -3.054  26.259  0.00  0.00    +0.110 A 
ATOM      8  O   UNL     1       8.633  -4.713  23.744  0.00  0.00    -0.286 OA
ATOM      9  C   UNL     1       8.994  -2.109  22.838  0.00  0.00    +0.054 A 
ATOM     10  N   UNL     1       6.749  -1.711  25.842  0.00  0.00    -0.312 N 
ATOM     11  C   UNL     1       9.115  -0.795  22.413  0.00  0.00    +0.145 A 
ATOM     12  F   UNL     1       9.913  -0.561  21.360  0.00  0.00    -0.204 F 
ENDROOT
BRANCH   1  19
ATOM     13  C   UNL     1       8.518   3.575  24.946  0.00  0.00    +0.025 C 
ATOM     14  C   UNL     1       9.146   3.772  23.559  0.00  0.00    +0.068 C 
ATOM     15  N   UNL     1       8.215   4.455  22.631  0.00  0.00    -0.311 NA
ATOM     16  H   UNL     1       7.791   5.253  23.102  0.00  0.00    +0.122 HD
ATOM     17  C   UNL     1       7.142   3.547  22.173  0.00  0.00    +0.100 C 
ATOM     18  C   UNL     1       7.660   2.198  21.631  0.00  0.00    +0.120 C 
ATOM     19  N   UNL     1       8.540   1.568  22.634  0.00  0.00    -0.325 N 
ATOM     20  C   UNL     1       9.677   2.417  23.012  0.00  0.00    +0.123 C 
ENDBRANCH   1  19
BRANCH  10  21
ATOM     21  C   UNL     1       6.033  -0.752  26.668  0.00  0.00    +0.082 A 
ATOM     22  C   UNL     1       4.641  -0.563  26.548  0.00  0.00    +0.032 A 
ATOM     23  C   UNL     1       3.914   0.210  27.461  0.00  0.00    +0.040 A 
ATOM     24  C   UNL     1       4.584   0.923  28.440  0.00  0.00    +0.126 A 
ATOM     25  F   UNL     1       3.890   1.661  29.315  0.00  0.00    -0.205 F 
ATOM     26  C   UNL     1       5.965   0.883  28.513  0.00  0.00    +0.078 A 
ATOM     27  C   UNL     1       6.672   0.041  27.654  0.00  0.00    +0.150 A 
ATOM     28  F   UNL     1       8.000  -0.012  27.832  0.00  0.00    -0.203 F 
ENDBRANCH  10  21
BRANCH   6  29
ATOM     29  C   UNL     1       7.342  -5.436  26.234  0.00  0.00    +0.342 C 
ATOM     30  O   UNL     1       6.297  -6.029  26.449  0.00  0.00    -0.245 OA
BRANCH  29  31
ATOM     31  O   UNL     1       8.547  -5.985  26.524  0.00  0.00    -0.477 OA
ATOM     32  H   UNL     1       8.518  -6.962  26.698  0.00  0.00    +0.295 HD
ENDBRANCH  29  31
ENDBRANCH   6  29
TORSDOF 4
ENDMDL
MODEL 3
REMARK VINA RESULT:      -7.6      5.259      8.758
REMARK  Name = 
REMARK  5 active torsions:
REMARK  status: ('A' for Active; 'I' for Inactive)
REMARK    1  A    between atoms: C_1  and  C_2
REMARK    2  A    between atoms: N_4  and  C_8
REMARK    3  A    between atoms: C_15  and  C_28
REMARK    4  A    between atoms: N_17  and  C_20
REMARK    5  A    between atoms: C_28  and  O_29
REMARK                            x       y       z     vdW  Elec       q    Type
REMARK                         _______ _______ _______ _____ _____    ______ ____
ROOT
ATOM      1  C   UNL     1       9.198  -0.999  23.915  0.00  0.00    +0.067 A 
ATOM      2  C   UNL     1       8.034  -1.015  24.708  0.00  0.00    +0.053 A 
ATOM      3  C   UNL     1       7.645  -2.111  25.505  0.00  0.00    +0.059 A 
ATOM      4  C   UNL     1       8.334  -3.314  25.265  0.00  0.00    +0.049 A 
ATOM      5  C   UNL     1       7.913  -4.555  25.935  0.00  0.00    +0.203 A 
ATOM      6  C   UNL     1       6.881  -4.454  26.979  0.00  0.00    +0.122 A 
ATOM      7  C   UNL     1       6.346  -3.246  27.197  0.00  0.00    +0.110 A 
ATOM      8  O   UNL     1       8.409  -5.643  25.654  0.00  0.00    -0.286 OA
ATOM      9  C   UNL     1       9.416  -3.382  24.386  0.00  0.00    +0.054 A 
ATOM     10  N   UNL     1       6.612  -2.040  26.521  0.00  0.00    -0.312 N 
ATOM     11  C   UNL     1       9.857  -2.227  23.759  0.00  0.00    +0.145 A 
ATOM     12  F   UNL     1      10.914  -2.338  22.940  0.00  0.00    -0.204 F 
ENDROOT
BRANCH   1  19
ATOM     13  C   UNL     1       8.764   2.735  24.758  0.00  0.00    +0.025 C 
ATOM     14  C   UNL     1       9.994   2.559  23.858  0.00  0.00    +0.068 C 
ATOM     15  N   UNL     1       9.701   2.937  22.455  0.00  0.00    -0.311 NA
ATOM     16  H   UNL     1       9.197   3.822  22.441  0.00  0.00    +0.122 HD
ATOM     17  C   UNL     1       8.880   1.911  21.777  0.00  0.00    +0.100 C 
ATOM     18  C   UNL     1       9.438   0.479  21.917  0.00  0.00    +0.120 C 
ATOM     19  N   UNL     1       9.656   0.170  23.343  0.00  0.00    -0.325 N 
ATOM     20  C   UNL     1      10.565   1.119  24.000  0.00  0.00    +0.123 C 
ENDBRANCH   1  19
BRANCH  10  21
ATOM     21  C   UNL     1       5.891  -0.839  26.913  0.00  0.00    +0.082 A 
ATOM     22  C   UNL     1       4.537  -0.642  26.575  0.00  0.00    +0.032 A 
ATOM     23  C   UNL     1       3.783   0.410  27.106  0.00  0.00    +0.040 A 
ATOM     24  C   UNL     1       4.403   1.372  27.886  0.00  0.00    +0.126 A 
ATOM     25  F   UNL     1       3.682   2.377  28.396  0.00  0.00    -0.205 F 
ATOM     26  C   UNL     1       5.762   1.302  28.132  0.00  0.00    +0.078 A 
ATOM     27  C   UNL     1       6.486   0.201  27.671  0.00  0.00    +0.150 A 
ATOM     28  F   UNL     1       7.782   0.155  28.014  0.00  0.00    -0.203 F 
ENDBRANCH  10  21
BRANCH   6  29
ATOM     29  C   UNL     1       6.451  -5.610  27.788  0.00  0.00    +0.342 C 
ATOM     30  O   UNL     1       6.548  -5.652  29.005  0.00  0.00    -0.245 OA
BRANCH  29  31
ATOM     31  O   UNL     1       5.924  -6.638  27.079  0.00  0.00    -0.477 OA
ATOM     32  H   UNL     1       5.739  -6.424  26.128  0.00  0.00    +0.295 HD
ENDBRANCH  29  31
ENDBRANCH   6  29
TORSDOF 4
ENDMDL
MODEL 4
REMARK VINA RESULT:      -7.2      3.328      6.359
REMARK  Name = 
REMARK  5 active torsions:
REMARK  status: ('A' for Active; 'I' for Inactive)
REMARK    1  A    between atoms: C_1  and  C_2
REMARK    2  A    between atoms: N_4  and  C_8
REMARK    3  A    between atoms: C_15  and  C_28
REMARK    4  A    between atoms: N_17  and  C_20
REMARK    5  A    between atoms: C_28  and  O_29
REMARK                            x       y       z     vdW  Elec       q    Type
REMARK                         _______ _______ _______ _____ _____    ______ ____
ROOT
ATOM      1  C   UNL     1       9.088  -1.472  23.940  0.00  0.00    +0.067 A 
ATOM      2  C   UNL     1       8.477  -0.547  24.809  0.00  0.00    +0.053 A 
ATOM      3  C   UNL     1       8.639   0.849  24.705  0.00  0.00    +0.059 A 
ATOM      4  C   UNL     1       9.669   1.282  23.849  0.00  0.00    +0.049 A 
ATOM      5  C   UNL     1      10.020   2.709  23.776  0.00  0.00    +0.203 A 
ATOM      6  C   UNL     1       9.153   3.666  24.481  0.00  0.00    +0.122 A 
ATOM      7  C   UNL     1       8.142   3.162  25.199  0.00  0.00    +0.110 A 
ATOM      8  O   UNL     1      10.992   3.104  23.137  0.00  0.00    -0.286 OA
ATOM      9  C   UNL     1      10.396   0.389  23.061  0.00  0.00    +0.054 A 
ATOM     10  N   UNL     1       7.812   1.810  25.412  0.00  0.00    -0.312 N 
ATOM     11  C   UNL     1      10.072  -0.959  23.083  0.00  0.00    +0.145 A 
ATOM     12  F   UNL     1      10.785  -1.775  22.292  0.00  0.00    -0.204 F 
ENDROOT
BRANCH   1  19
ATOM     13  C   UNL     1       5.727  -3.305  24.370  0.00  0.00    +0.025 C 
ATOM     14  C   UNL     1       6.729  -4.241  23.680  0.00  0.00    +0.068 C 
ATOM     15  N   UNL     1       7.288  -5.235  24.627  0.00  0.00    -0.311 NA
ATOM     16  H   UNL     1       6.532  -5.637  25.180  0.00  0.00    +0.122 HD
ATOM     17  C   UNL     1       8.273  -4.620  25.542  0.00  0.00    +0.100 C 
ATOM     18  C   UNL     1       9.357  -3.793  24.819  0.00  0.00    +0.120 C 
ATOM     19  N   UNL     1       8.716  -2.801  23.936  0.00  0.00    -0.325 N 
ATOM     20  C   UNL     1       7.820  -3.412  22.945  0.00  0.00    +0.123 C 
ENDBRANCH   1  19
BRANCH  10  21
ATOM     21  C   UNL     1       6.673   1.487  26.255  0.00  0.00    +0.082 A 
ATOM     22  C   UNL     1       6.802   1.335  27.651  0.00  0.00    +0.032 A 
ATOM     23  C   UNL     1       5.689   1.216  28.493  0.00  0.00    +0.040 A 
ATOM     24  C   UNL     1       4.423   1.111  27.943  0.00  0.00    +0.126 A 
ATOM     25  F   UNL     1       3.359   1.000  28.746  0.00  0.00    -0.205 F 
ATOM     26  C   UNL     1       4.254   1.114  26.570  0.00  0.00    +0.078 A 
ATOM     27  C   UNL     1       5.361   1.321  25.745  0.00  0.00    +0.150 A 
ATOM     28  F   UNL     1       5.115   1.393  24.428  0.00  0.00    -0.203 F 
ENDBRANCH  10  21
BRANCH   6  29
ATOM     29  C   UNL     1       9.345   5.126  24.398  0.00  0.00    +0.342 C 
ATOM     30  O   UNL     1       9.393   5.854  25.377  0.00  0.00    -0.245 OA
BRANCH  29  31
ATOM     31  O   UNL     1       9.475   5.613  23.140  0.00  0.00    -0.477 OA
ATOM     32  H   UNL     1      10.400   5.879  22.899  0.00  0.00    +0.295 HD
ENDBRANCH  29  31
ENDBRANCH   6  29
TORSDOF 4
ENDMDL
MODEL 5
REMARK VINA RESULT:      -7.1      4.399      7.207
REMARK  Name = 
REMARK  5 active torsions:
REMARK  status: ('A' for Active; 'I' for Inactive)
REMARK    1  A    between atoms: C_1  and  C_2
REMARK    2  A    between atoms: N_4  and  C_8
REMARK    3  A    between atoms: C_15  and  C_28
REMARK    4  A    between atoms: N_17  and  C_20
REMARK    5  A    between atoms: C_28  and  O_29
REMARK                            x       y       z     vdW  Elec       q    Type
REMARK                         _______ _______ _______ _____ _____    ______ ____
ROOT
ATOM      1  C   UNL     1       6.616  -3.509  23.748  0.00  0.00    +0.067 A 
ATOM      2  C   UNL     1       6.763  -2.344  24.527  0.00  0.00    +0.053 A 
ATOM      3  C   UNL     1       7.516  -1.223  24.125  0.00  0.00    +0.059 A 
ATOM      4  C   UNL     1       8.355  -1.419  23.013  0.00  0.00    +0.049 A 
ATOM      5  C   UNL     1       9.292  -0.363  22.596  0.00  0.00    +0.203 A 
ATOM      6  C   UNL     1       9.192   0.944  23.263  0.00  0.00    +0.122 A 
ATOM      7  C   UNL     1       8.299   1.059  24.254  0.00  0.00    +0.110 A 
ATOM      8  O   UNL     1      10.123  -0.548  21.710  0.00  0.00    -0.286 OA
ATOM      9  C   UNL     1       8.343  -2.608  22.281  0.00  0.00    +0.054 A 
ATOM     10  N   UNL     1       7.453   0.067  24.786  0.00  0.00    -0.312 N 
ATOM     11  C   UNL     1       7.453  -3.612  22.628  0.00  0.00    +0.145 A 
ATOM     12  F   UNL     1       7.464  -4.727  21.881  0.00  0.00    -0.204 F 
ENDROOT
BRANCH   1  19
ATOM     13  C   UNL     1       3.071  -3.402  25.252  0.00  0.00    +0.025 C 
ATOM     14  C   UNL     1       3.280  -4.747  24.543  0.00  0.00    +0.068 C 
ATOM     15  N   UNL     1       3.558  -5.836  25.511  0.00  0.00    -0.311 NA
ATOM     16  H   UNL     1       2.896  -5.778  26.283  0.00  0.00    +0.122 HD
ATOM     17  C   UNL     1       4.931  -5.744  26.051  0.00  0.00    +0.100 C 
ATOM     18  C   UNL     1       6.017  -5.606  24.963  0.00  0.00    +0.120 C 
ATOM     19  N   UNL     1       5.686  -4.474  24.075  0.00  0.00    -0.325 N 
ATOM     20  C   UNL     1       4.368  -4.611  23.441  0.00  0.00    +0.123 C 
ENDBRANCH   1  19
BRANCH  10  21
ATOM     21  C   UNL     1       6.570   0.412  25.888  0.00  0.00    +0.082 A 
ATOM     22  C   UNL     1       5.279   0.937  25.669  0.00  0.00    +0.032 A 
ATOM     23  C   UNL     1       4.353   1.091  26.707  0.00  0.00    +0.040 A 
ATOM     24  C   UNL     1       4.741   0.848  28.013  0.00  0.00    +0.126 A 
ATOM     25  F   UNL     1       3.856   0.992  29.005  0.00  0.00    -0.205 F 
ATOM     26  C   UNL     1       6.040   0.465  28.297  0.00  0.00    +0.078 A 
ATOM     27  C   UNL     1       6.929   0.230  27.247  0.00  0.00    +0.150 A 
ATOM     28  F   UNL     1       8.147  -0.218  27.588  0.00  0.00    -0.203 F 
ENDBRANCH  10  21
BRANCH   6  29
ATOM     29  C   UNL     1      10.007   2.107  22.863  0.00  0.00    +0.342 C 
ATOM     30  O   UNL     1      10.556   2.849  23.662  0.00  0.00    -0.245 OA
BRANCH  29  31
ATOM     31  O   UNL     1      10.112   2.295  21.525  0.00  0.00    -0.477 OA
ATOM     32  H   UNL     1       9.850   1.508  20.980  0.00  0.00    +0.295 HD
ENDBRANCH  29  31
ENDBRANCH   6  29
TORSDOF 4
ENDMDL
MODEL 6
REMARK VINA RESULT:      -7.1      3.637      6.174
REMARK  Name = 
REMARK  5 active torsions:
REMARK  status: ('A' for Active; 'I' for Inactive)
REMARK    1  A    between atoms: C_1  and  C_2
REMARK    2  A    between atoms: N_4  and  C_8
REMARK    3  A    between atoms: C_15  and  C_28
REMARK    4  A    between atoms: N_17  and  C_20
REMARK    5  A    between atoms: C_28  and  O_29
REMARK                            x       y       z     vdW  Elec       q    Type
REMARK                         _______ _______ _______ _____ _____    ______ ____
ROOT
ATOM      1  C   UNL     1       8.090  -1.444  23.689  0.00  0.00    +0.067 A 
ATOM      2  C   UNL     1       7.514  -0.181  23.930  0.00  0.00    +0.053 A 
ATOM      3  C   UNL     1       8.224   1.033  23.842  0.00  0.00    +0.059 A 
ATOM      4  C   UNL     1       9.624   0.917  23.767  0.00  0.00    +0.049 A 
ATOM      5  C   UNL     1      10.472   2.119  23.818  0.00  0.00    +0.203 A 
ATOM      6  C   UNL     1       9.805   3.430  23.769  0.00  0.00    +0.122 A 
ATOM      7  C   UNL     1       8.466   3.436  23.753  0.00  0.00    +0.110 A 
ATOM      8  O   UNL     1      11.696   2.045  23.881  0.00  0.00    -0.286 OA
ATOM      9  C   UNL     1      10.256  -0.323  23.659  0.00  0.00    +0.054 A 
ATOM     10  N   UNL     1       7.588   2.337  23.819  0.00  0.00    -0.312 N 
ATOM     11  C   UNL     1       9.488  -1.474  23.580  0.00  0.00    +0.145 A 
ATOM     12  F   UNL     1      10.140  -2.641  23.455  0.00  0.00    -0.204 F 
ENDROOT
BRANCH   1  19
ATOM     13  C   UNL     1       8.362  -5.053  25.010  0.00  0.00    +0.025 C 
ATOM     14  C   UNL     1       6.910  -4.770  24.603  0.00  0.00    +0.068 C 
ATOM     15  N   UNL     1       6.584  -5.374  23.289  0.00  0.00    -0.311 NA
ATOM     16  H   UNL     1       6.931  -6.331  23.262  0.00  0.00    +0.122 HD
ATOM     17  C   UNL     1       7.194  -4.614  22.177  0.00  0.00    +0.100 C 
ATOM     18  C   UNL     1       6.913  -3.097  22.236  0.00  0.00    +0.120 C 
ATOM     19  N   UNL     1       7.307  -2.572  23.557  0.00  0.00    -0.325 N 
ATOM     20  C   UNL     1       6.619  -3.244  24.668  0.00  0.00    +0.123 C 
ENDBRANCH   1  19
BRANCH  10  21
ATOM     21  C   UNL     1       6.155   2.580  23.809  0.00  0.00    +0.082 A 
ATOM     22  C   UNL     1       5.363   2.400  24.961  0.00  0.00    +0.032 A 
ATOM     23  C   UNL     1       4.026   2.812  25.018  0.00  0.00    +0.040 A 
ATOM     24  C   UNL     1       3.410   3.293  23.875  0.00  0.00    +0.126 A 
ATOM     25  F   UNL     1       2.133   3.689  23.928  0.00  0.00    -0.205 F 
ATOM     26  C   UNL     1       4.103   3.358  22.681  0.00  0.00    +0.078 A 
ATOM     27  C   UNL     1       5.459   3.027  22.657  0.00  0.00    +0.150 A 
ATOM     28  F   UNL     1       6.091   3.190  21.485  0.00  0.00    -0.203 F 
ENDBRANCH  10  21
BRANCH   6  29
ATOM     29  C   UNL     1      10.552   4.701  23.712  0.00  0.00    +0.342 C 
ATOM     30  O   UNL     1      10.186   5.720  24.276  0.00  0.00    -0.245 OA
BRANCH  29  31
ATOM     31  O   UNL     1      11.695   4.658  22.985  0.00  0.00    -0.477 OA
ATOM     32  H   UNL     1      11.587   4.939  22.039  0.00  0.00    +0.295 HD
ENDBRANCH  29  31
ENDBRANCH   6  29
TORSDOF 4
ENDMDL
MODEL 7
REMARK VINA RESULT:      -7.0      4.379      7.189
REMARK  Name = 
REMARK  5 active torsions:
REMARK  status: ('A' for Active; 'I' for Inactive)
REMARK    1  A    between atoms: C_1  and  C_2
REMARK    2  A    between atoms: N_4  and  C_8
REMARK    3  A    between atoms: C_15  and  C_28
REMARK    4  A    between atoms: N_17  and  C_20
REMARK    5  A    between atoms: C_28  and  O_29
REMARK                            x       y       z     vdW  Elec       q    Type
REMARK                         _______ _______ _______ _____ _____    ______ ____
ROOT
ATOM      1  C   UNL     1       8.484   1.651  23.206  0.00  0.00    +0.067 A 
ATOM      2  C   UNL     1       7.733   0.824  24.066  0.00  0.00    +0.053 A 
ATOM      3  C   UNL     1       8.133  -0.472  24.451  0.00  0.00    +0.059 A 
ATOM      4  C   UNL     1       9.198  -1.025  23.716  0.00  0.00    +0.049 A 
ATOM      5  C   UNL     1       9.601  -2.424  23.935  0.00  0.00    +0.203 A 
ATOM      6  C   UNL     1       8.979  -3.149  25.054  0.00  0.00    +0.122 A 
ATOM      7  C   UNL     1       8.035  -2.505  25.752  0.00  0.00    +0.110 A 
ATOM      8  O   UNL     1      10.439  -2.974  23.226  0.00  0.00    -0.286 OA
ATOM      9  C   UNL     1       9.893  -0.288  22.756  0.00  0.00    +0.054 A 
ATOM     10  N   UNL     1       7.515  -1.215  25.533  0.00  0.00    -0.312 N 
ATOM     11  C   UNL     1       9.559   1.040  22.544  0.00  0.00    +0.145 A 
ATOM     12  F   UNL     1      10.270   1.714  21.627  0.00  0.00    -0.204 F 
ENDROOT
BRANCH   1  19
ATOM     13  C   UNL     1       7.581   4.489  25.649  0.00  0.00    +0.025 C 
ATOM     14  C   UNL     1       8.051   5.096  24.320  0.00  0.00    +0.068 C 
ATOM     15  N   UNL     1       6.909   5.563  23.500  0.00  0.00    -0.311 NA
ATOM     16  H   UNL     1       6.264   6.091  24.087  0.00  0.00    +0.122 HD
ATOM     17  C   UNL     1       6.179   4.431  22.890  0.00  0.00    +0.100 C 
ATOM     18  C   UNL     1       7.093   3.433  22.147  0.00  0.00    +0.120 C 
ATOM     19  N   UNL     1       8.172   2.986  23.049  0.00  0.00    -0.325 N 
ATOM     20  C   UNL     1       8.978   4.097  23.571  0.00  0.00    +0.123 C 
ENDBRANCH   1  19
BRANCH  10  21
ATOM     21  C   UNL     1       6.468  -0.720  26.411  0.00  0.00    +0.082 A 
ATOM     22  C   UNL     1       6.755   0.110  27.515  0.00  0.00    +0.032 A 
ATOM     23  C   UNL     1       5.747   0.747  28.248  0.00  0.00    +0.040 A 
ATOM     24  C   UNL     1       4.419   0.462  27.978  0.00  0.00    +0.126 A 
ATOM     25  F   UNL     1       3.455   1.072  28.677  0.00  0.00    -0.205 F 
ATOM     26  C   UNL     1       4.086  -0.453  26.997  0.00  0.00    +0.078 A 
ATOM     27  C   UNL     1       5.096  -1.015  26.213  0.00  0.00    +0.150 A 
ATOM     28  F   UNL     1       4.698  -1.833  25.226  0.00  0.00    -0.203 F 
ENDBRANCH  10  21
BRANCH   6  29
ATOM     29  C   UNL     1       9.374  -4.519  25.433  0.00  0.00    +0.342 C 
ATOM     30  O   UNL     1       9.514  -4.881  26.591  0.00  0.00    -0.245 OA
BRANCH  29  31
ATOM     31  O   UNL     1       9.569  -5.365  24.392  0.00  0.00    -0.477 OA
ATOM     32  H   UNL     1       9.166  -5.059  23.538  0.00  0.00    +0.295 HD
ENDBRANCH  29  31
ENDBRANCH   6  29
TORSDOF 4
ENDMDL
MODEL 8
REMARK VINA RESULT:      -6.9      6.430      9.537
REMARK  Name = 
REMARK  5 active torsions:
REMARK  status: ('A' for Active; 'I' for Inactive)
REMARK    1  A    between atoms: C_1  and  C_2
REMARK    2  A    between atoms: N_4  and  C_8
REMARK    3  A    between atoms: C_15  and  C_28
REMARK    4  A    between atoms: N_17  and  C_20
REMARK    5  A    between atoms: C_28  and  O_29
REMARK                            x       y       z     vdW  Elec       q    Type
REMARK                         _______ _______ _______ _____ _____    ______ ____
ROOT
ATOM      1  C   UNL     1       7.643  -1.060  23.726  0.00  0.00    +0.067 A 
ATOM      2  C   UNL     1       6.473  -1.409  24.430  0.00  0.00    +0.053 A 
ATOM      3  C   UNL     1       5.741  -2.589  24.195  0.00  0.00    +0.059 A 
ATOM      4  C   UNL     1       6.076  -3.291  23.022  0.00  0.00    +0.049 A 
ATOM      5  C   UNL     1       5.280  -4.456  22.602  0.00  0.00    +0.203 A 
ATOM      6  C   UNL     1       4.254  -4.955  23.531  0.00  0.00    +0.122 A 
ATOM      7  C   UNL     1       4.069  -4.269  24.666  0.00  0.00    +0.110 A 
ATOM      8  O   UNL     1       5.466  -5.012  21.523  0.00  0.00    -0.286 OA
ATOM      9  C   UNL     1       7.149  -2.909  22.215  0.00  0.00    +0.054 A 
ATOM     10  N   UNL     1       4.707  -3.085  25.083  0.00  0.00    -0.312 N 
ATOM     11  C   UNL     1       7.938  -1.834  22.595  0.00  0.00    +0.145 A 
ATOM     12  F   UNL     1       8.970  -1.518  21.798  0.00  0.00    -0.204 F 
ENDROOT
BRANCH   1  19
ATOM     13  C   UNL     1       9.723   1.621  21.903  0.00  0.00    +0.025 C 
ATOM     14  C   UNL     1       9.461   2.078  23.344  0.00  0.00    +0.068 C 
ATOM     15  N   UNL     1      10.650   1.873  24.205  0.00  0.00    -0.311 NA
ATOM     16  H   UNL     1      11.481   2.209  23.721  0.00  0.00    +0.122 HD
ATOM     17  C   UNL     1      10.839   0.445  24.540  0.00  0.00    +0.100 C 
ATOM     18  C   UNL     1       9.567  -0.236  25.087  0.00  0.00    +0.120 C 
ATOM     19  N   UNL     1       8.448  -0.022  24.149  0.00  0.00    -0.325 N 
ATOM     20  C   UNL     1       8.177   1.399  23.898  0.00  0.00    +0.123 C 
ENDBRANCH   1  19
BRANCH  10  21
ATOM     21  C   UNL     1       4.331  -2.494  26.358  0.00  0.00    +0.082 A 
ATOM     22  C   UNL     1       3.499  -1.358  26.432  0.00  0.00    +0.032 A 
ATOM     23  C   UNL     1       2.976  -0.898  27.646  0.00  0.00    +0.040 A 
ATOM     24  C   UNL     1       3.382  -1.484  28.833  0.00  0.00    +0.126 A 
ATOM     25  F   UNL     1       2.881  -1.047  29.994  0.00  0.00    -0.205 F 
ATOM     26  C   UNL     1       4.307  -2.512  28.824  0.00  0.00    +0.078 A 
ATOM     27  C   UNL     1       4.754  -3.021  27.604  0.00  0.00    +0.150 A 
ATOM     28  F   UNL     1       5.587  -4.071  27.666  0.00  0.00    -0.203 F 
ENDBRANCH  10  21
BRANCH   6  29
ATOM     29  C   UNL     1       3.464  -6.172  23.266  0.00  0.00    +0.342 C 
ATOM     30  O   UNL     1       2.414  -6.169  22.643  0.00  0.00    -0.245 OA
BRANCH  29  31
ATOM     31  O   UNL     1       3.996  -7.316  23.762  0.00  0.00    -0.477 OA
ATOM     32  H   UNL     1       3.525  -8.142  23.476  0.00  0.00    +0.295 HD
ENDBRANCH  29  31
ENDBRANCH   6  29
TORSDOF 4
ENDMDL
MODEL 9
REMARK VINA RESULT:      -6.8      5.309      7.961
REMARK  Name = 
REMARK  5 active torsions:
REMARK  status: ('A' for Active; 'I' for Inactive)
REMARK    1  A    between atoms: C_1  and  C_2
REMARK    2  A    between atoms: N_4  and  C_8
REMARK    3  A    between atoms: C_15  and  C_28
REMARK    4  A    between atoms: N_17  and  C_20
REMARK    5  A    between atoms: C_28  and  O_29
REMARK                            x       y       z     vdW  Elec       q    Type
REMARK                         _______ _______ _______ _____ _____    ______ ____
ROOT
ATOM      1  C   UNL     1       8.123   0.242  24.797  0.00  0.00    +0.067 A 
ATOM      2  C   UNL     1       7.632  -1.078  24.756  0.00  0.00    +0.053 A 
ATOM      3  C   UNL     1       6.552  -1.536  25.536  0.00  0.00    +0.059 A 
ATOM      4  C   UNL     1       6.145  -0.681  26.577  0.00  0.00    +0.049 A 
ATOM      5  C   UNL     1       5.125  -1.121  27.542  0.00  0.00    +0.203 A 
ATOM      6  C   UNL     1       4.432  -2.391  27.275  0.00  0.00    +0.122 A 
ATOM      7  C   UNL     1       4.831  -3.094  26.207  0.00  0.00    +0.110 A 
ATOM      8  O   UNL     1       4.839  -0.452  28.531  0.00  0.00    -0.286 OA
ATOM      9  C   UNL     1       6.694   0.592  26.742  0.00  0.00    +0.054 A 
ATOM     10  N   UNL     1       5.872  -2.797  25.307  0.00  0.00    -0.312 N 
ATOM     11  C   UNL     1       7.637   1.050  25.835  0.00  0.00    +0.145 A 
ATOM     12  F   UNL     1       8.120   2.288  26.023  0.00  0.00    -0.204 F 
ENDROOT
BRANCH   1  19
ATOM     13  C   UNL     1       9.360   3.742  23.766  0.00  0.00    +0.025 C 
ATOM     14  C   UNL     1      10.366   2.687  23.285  0.00  0.00    +0.068 C 
ATOM     15  N   UNL     1      10.217   2.414  21.835  0.00  0.00    -0.311 NA
ATOM     16  H   UNL     1      10.141   3.296  21.331  0.00  0.00    +0.122 HD
ATOM     17  C   UNL     1       9.013   1.601  21.557  0.00  0.00    +0.100 C 
ATOM     18  C   UNL     1       8.907   0.333  22.429  0.00  0.00    +0.120 C 
ATOM     19  N   UNL     1       9.019   0.701  23.853  0.00  0.00    -0.325 N 
ATOM     20  C   UNL     1      10.268   1.409  24.164  0.00  0.00    +0.123 C 
ENDBRANCH   1  19
BRANCH  10  21
ATOM     21  C   UNL     1       6.148  -3.722  24.220  0.00  0.00    +0.082 A 
ATOM     22  C   UNL     1       5.384  -3.723  23.034  0.00  0.00    +0.032 A 
ATOM     23  C   UNL     1       5.756  -4.469  21.910  0.00  0.00    +0.040 A 
ATOM     24  C   UNL     1       6.830  -5.339  21.991  0.00  0.00    +0.126 A 
ATOM     25  F   UNL     1       7.188  -6.052  20.916  0.00  0.00    -0.205 F 
ATOM     26  C   UNL     1       7.527  -5.481  23.177  0.00  0.00    +0.078 A 
ATOM     27  C   UNL     1       7.203  -4.668  24.264  0.00  0.00    +0.150 A 
ATOM     28  F   UNL     1       7.971  -4.799  25.355  0.00  0.00    -0.203 F 
ENDBRANCH  10  21
BRANCH   6  29
ATOM     29  C   UNL     1       3.324  -2.885  28.114  0.00  0.00    +0.342 C 
ATOM     30  O   UNL     1       2.220  -3.165  27.672  0.00  0.00    -0.245 OA
BRANCH  29  31
ATOM     31  O   UNL     1       3.620  -3.018  29.430  0.00  0.00    -0.477 OA
ATOM     32  H   UNL     1       4.413  -2.498  29.723  0.00  0.00    +0.295 HD
ENDBRANCH  29  31
ENDBRANCH   6  29
TORSDOF 4
ENDMDL
