MODEL 1
REMARK VINA RESULT:      -5.2      0.000      0.000
REMARK  Name = 
REMARK  8 active torsions:
REMARK  status: ('A' for Active; 'I' for Inactive)
REMARK    1  A    between atoms: C_1  and  N_2
REMARK    2  A    between atoms: N_4  and  C_5
REMARK    3  A    between atoms: C_5  and  C_6
REMARK    4  A    between atoms: C_6  and  S_7
REMARK    5  A    between atoms: S_7  and  C_8
REMARK    6  A    between atoms: C_8  and  C_9
REMARK    7  A    between atoms: C_10  and  C_11
REMARK    8  A    between atoms: N_15  and  C_16
REMARK                            x       y       z     vdW  Elec       q    Type
REMARK                         _______ _______ _______ _____ _____    ______ ____
ROOT
ATOM      1  C   UNL     1       6.296  -2.359  24.464  0.00  0.00    +0.206 C 
ENDROOT
BRANCH   1   7
ATOM      2  C   UNL     1       9.205  -5.380  25.112  0.00  0.00    +0.291 C 
ATOM      3  N   UNL     1       8.133  -4.425  24.890  0.00  0.00    -0.116 NA
ATOM      4  C   UNL     1       7.451  -4.453  23.790  0.00  0.00    +0.395 C 
ATOM      5  N   UNL     1       7.634  -5.357  22.785  0.00  0.00    -0.178 N 
ATOM      6  H   UNL     1       8.264  -6.122  22.955  0.00  0.00    +0.278 HD
ATOM      7  N   UNL     1       6.468  -3.519  23.594  0.00  0.00    -0.274 N 
ATOM      8  H   UNL     1       6.110  -3.377  22.657  0.00  0.00    +0.258 HD
BRANCH   5   9
ATOM      9  C   UNL     1       6.745  -5.486  21.672  0.00  0.00    +0.255 C 
ATOM     10  N   UNL     1       6.021  -5.559  20.770  0.00  0.00    -0.154 NA
ENDBRANCH   5   9
ENDBRANCH   1   7
BRANCH   1  11
ATOM     11  C   UNL     1       7.021  -1.140  23.892  0.00  0.00    +0.106 C 
BRANCH  11  12
ATOM     12  S   UNL     1       8.052  -0.385  25.191  0.00  0.00    -0.151 S 
BRANCH  12  13
ATOM     13  C   UNL     1       9.687  -0.557  24.398  0.00  0.00    +0.126 C 
BRANCH  13  14
ATOM     14  C   UNL     1       9.960   0.636  23.543  0.00  0.00    +0.072 A 
ATOM     15  N   UNL     1      10.444   1.801  24.103  0.00  0.00    -0.240 NA
ATOM     16  C   UNL     1      10.506   2.668  23.122  0.00  0.00    +0.197 A 
ATOM     17  N   UNL     1      10.120   2.111  21.938  0.00  0.00    -0.348 N 
ATOM     18  H   UNL     1      10.076   2.589  21.049  0.00  0.00    +0.166 HD
ATOM     19  C   UNL     1       9.782   0.803  22.178  0.00  0.00    +0.036 A 
ATOM     20  C   UNL     1       9.308  -0.103  21.110  0.00  0.00    +0.065 C 
ENDBRANCH  13  14
ENDBRANCH  12  13
ENDBRANCH  11  12
ENDBRANCH   1  11
TORSDOF 6
ENDMDL
MODEL 2
REMARK VINA RESULT:      -5.2      2.906      4.114
REMARK  Name = 
REMARK  8 active torsions:
REMARK  status: ('A' for Active; 'I' for Inactive)
REMARK    1  A    between atoms: C_1  and  N_2
REMARK    2  A    between atoms: N_4  and  C_5
REMARK    3  A    between atoms: C_5  and  C_6
REMARK    4  A    between atoms: C_6  and  S_7
REMARK    5  A    between atoms: S_7  and  C_8
REMARK    6  A    between atoms: C_8  and  C_9
REMARK    7  A    between atoms: C_10  and  C_11
REMARK    8  A    between atoms: N_15  and  C_16
REMARK                            x       y       z     vdW  Elec       q    Type
REMARK                         _______ _______ _______ _____ _____    ______ ____
ROOT
ATOM      1  C   UNL     1       5.175  -5.181  24.628  0.00  0.00    +0.206 C 
ENDROOT
BRANCH   1   7
ATOM      2  C   UNL     1       6.257  -6.434  28.534  0.00  0.00    +0.291 C 
ATOM      3  N   UNL     1       5.951  -6.086  27.158  0.00  0.00    -0.116 NA
ATOM      4  C   UNL     1       6.881  -5.648  26.373  0.00  0.00    +0.395 C 
ATOM      5  N   UNL     1       8.191  -5.504  26.724  0.00  0.00    -0.178 N 
ATOM      6  H   UNL     1       8.477  -5.867  27.617  0.00  0.00    +0.278 HD
ATOM      7  N   UNL     1       6.555  -5.296  25.089  0.00  0.00    -0.274 N 
ATOM      8  H   UNL     1       7.207  -4.729  24.559  0.00  0.00    +0.258 HD
BRANCH   5   9
ATOM      9  C   UNL     1       9.229  -5.204  25.786  0.00  0.00    +0.255 C 
ATOM     10  N   UNL     1      10.066  -4.989  25.013  0.00  0.00    -0.154 NA
ENDBRANCH   5   9
ENDBRANCH   1   7
BRANCH   1  11
ATOM     11  C   UNL     1       5.122  -4.584  23.220  0.00  0.00    +0.106 C 
BRANCH  11  12
ATOM     12  S   UNL     1       6.807  -4.504  22.533  0.00  0.00    -0.151 S 
BRANCH  12  13
ATOM     13  C   UNL     1       6.995  -2.691  22.438  0.00  0.00    +0.126 C 
BRANCH  13  14
ATOM     14  C   UNL     1       7.904  -2.221  23.525  0.00  0.00    +0.072 A 
ATOM     15  N   UNL     1       7.484  -2.231  24.841  0.00  0.00    -0.240 NA
ATOM     16  C   UNL     1       8.463  -1.699  25.531  0.00  0.00    +0.197 A 
ATOM     17  N   UNL     1       9.520  -1.376  24.731  0.00  0.00    -0.348 N 
ATOM     18  H   UNL     1      10.381  -0.945  25.037  0.00  0.00    +0.166 HD
ATOM     19  C   UNL     1       9.193  -1.718  23.442  0.00  0.00    +0.036 A 
ATOM     20  C   UNL     1      10.113  -1.499  22.305  0.00  0.00    +0.065 C 
ENDBRANCH  13  14
ENDBRANCH  12  13
ENDBRANCH  11  12
ENDBRANCH   1  11
TORSDOF 6
ENDMDL
MODEL 3
REMARK VINA RESULT:      -5.2      2.350      6.124
REMARK  Name = 
REMARK  8 active torsions:
REMARK  status: ('A' for Active; 'I' for Inactive)
REMARK    1  A    between atoms: C_1  and  N_2
REMARK    2  A    between atoms: N_4  and  C_5
REMARK    3  A    between atoms: C_5  and  C_6
REMARK    4  A    between atoms: C_6  and  S_7
REMARK    5  A    between atoms: S_7  and  C_8
REMARK    6  A    between atoms: C_8  and  C_9
REMARK    7  A    between atoms: C_10  and  C_11
REMARK    8  A    between atoms: N_15  and  C_16
REMARK                            x       y       z     vdW  Elec       q    Type
REMARK                         _______ _______ _______ _____ _____    ______ ____
ROOT
ATOM      1  C   UNL     1       7.422  -2.940  21.906  0.00  0.00    +0.206 C 
ENDROOT
BRANCH   1   7
ATOM      2  C   UNL     1       9.749   0.608  21.901  0.00  0.00    +0.291 C 
ATOM      3  N   UNL     1       8.881  -0.554  21.968  0.00  0.00    -0.116 NA
ATOM      4  C   UNL     1       8.687  -1.162  23.093  0.00  0.00    +0.395 C 
ATOM      5  N   UNL     1       9.225  -0.779  24.287  0.00  0.00    -0.178 N 
ATOM      6  H   UNL     1       9.714   0.100  24.316  0.00  0.00    +0.278 HD
ATOM      7  N   UNL     1       7.889  -2.276  23.118  0.00  0.00    -0.274 N 
ATOM      8  H   UNL     1       7.934  -2.890  23.923  0.00  0.00    +0.258 HD
BRANCH   5   9
ATOM      9  C   UNL     1       8.844  -1.349  25.541  0.00  0.00    +0.255 C 
ATOM     10  N   UNL     1       8.554  -1.791  26.574  0.00  0.00    -0.154 NA
ENDBRANCH   5   9
ENDBRANCH   1   7
BRANCH   1  11
ATOM     11  C   UNL     1       6.047  -3.572  22.129  0.00  0.00    +0.106 C 
BRANCH  11  12
ATOM     12  S   UNL     1       5.688  -3.623  23.914  0.00  0.00    -0.151 S 
BRANCH  12  13
ATOM     13  C   UNL     1       6.337  -5.287  24.292  0.00  0.00    +0.126 C 
BRANCH  13  14
ATOM     14  C   UNL     1       7.603  -5.169  25.074  0.00  0.00    +0.072 A 
ATOM     15  N   UNL     1       8.811  -5.004  24.427  0.00  0.00    -0.240 NA
ATOM     16  C   UNL     1       9.723  -5.009  25.369  0.00  0.00    +0.197 A 
ATOM     17  N   UNL     1       9.161  -5.131  26.606  0.00  0.00    -0.348 N 
ATOM     18  H   UNL     1       9.665  -5.170  27.481  0.00  0.00    +0.166 HD
ATOM     19  C   UNL     1       7.801  -5.218  26.445  0.00  0.00    +0.036 A 
ATOM     20  C   UNL     1       6.875  -5.368  27.588  0.00  0.00    +0.065 C 
ENDBRANCH  13  14
ENDBRANCH  12  13
ENDBRANCH  11  12
ENDBRANCH   1  11
TORSDOF 6
ENDMDL
MODEL 4
REMARK VINA RESULT:      -5.2      1.304      2.349
REMARK  Name = 
REMARK  8 active torsions:
REMARK  status: ('A' for Active; 'I' for Inactive)
REMARK    1  A    between atoms: C_1  and  N_2
REMARK    2  A    between atoms: N_4  and  C_5
REMARK    3  A    between atoms: C_5  and  C_6
REMARK    4  A    between atoms: C_6  and  S_7
REMARK    5  A    between atoms: S_7  and  C_8
REMARK    6  A    between atoms: C_8  and  C_9
REMARK    7  A    between atoms: C_10  and  C_11
REMARK    8  A    between atoms: N_15  and  C_16
REMARK                            x       y       z     vdW  Elec       q    Type
REMARK                         _______ _______ _______ _____ _____    ______ ____
ROOT
ATOM      1  C   UNL     1       8.344  -2.708  23.825  0.00  0.00    +0.206 C 
ENDROOT
BRANCH   1   7
ATOM      2  C   UNL     1       6.288  -5.401  21.270  0.00  0.00    +0.291 C 
ATOM      3  N   UNL     1       7.046  -4.566  22.185  0.00  0.00    -0.116 NA
ATOM      4  C   UNL     1       6.897  -4.695  23.464  0.00  0.00    +0.395 C 
ATOM      5  N   UNL     1       6.078  -5.607  24.063  0.00  0.00    -0.178 N 
ATOM      6  H   UNL     1       5.644  -6.300  23.477  0.00  0.00    +0.278 HD
ATOM      7  N   UNL     1       7.602  -3.871  24.302  0.00  0.00    -0.274 N 
ATOM      8  H   UNL     1       7.310  -3.794  25.269  0.00  0.00    +0.258 HD
BRANCH   5   9
ATOM      9  C   UNL     1       6.078  -5.859  25.471  0.00  0.00    +0.255 C 
ATOM     10  N   UNL     1       6.107  -6.072  26.610  0.00  0.00    -0.154 NA
ENDBRANCH   5   9
ENDBRANCH   1   7
BRANCH   1  11
ATOM     11  C   UNL     1       7.603  -1.414  24.167  0.00  0.00    +0.106 C 
BRANCH  11  12
ATOM     12  S   UNL     1       8.606  -0.433  25.329  0.00  0.00    -0.151 S 
BRANCH  12  13
ATOM     13  C   UNL     1      10.189  -0.437  24.420  0.00  0.00    +0.126 C 
BRANCH  13  14
ATOM     14  C   UNL     1      10.254   0.749  23.516  0.00  0.00    +0.072 A 
ATOM     15  N   UNL     1      10.712   1.963  23.989  0.00  0.00    -0.240 NA
ATOM     16  C   UNL     1      10.578   2.805  22.994  0.00  0.00    +0.197 A 
ATOM     17  N   UNL     1      10.089   2.188  21.879  0.00  0.00    -0.348 N 
ATOM     18  H   UNL     1       9.893   2.636  20.996  0.00  0.00    +0.166 HD
ATOM     19  C   UNL     1       9.890   0.865  22.184  0.00  0.00    +0.036 A 
ATOM     20  C   UNL     1       9.356  -0.104  21.203  0.00  0.00    +0.065 C 
ENDBRANCH  13  14
ENDBRANCH  12  13
ENDBRANCH  11  12
ENDBRANCH   1  11
TORSDOF 6
ENDMDL
MODEL 5
REMARK VINA RESULT:      -5.2      2.309      6.596
REMARK  Name = 
REMARK  8 active torsions:
REMARK  status: ('A' for Active; 'I' for Inactive)
REMARK    1  A    between atoms: C_1  and  N_2
REMARK    2  A    between atoms: N_4  and  C_5
REMARK    3  A    between atoms: C_5  and  C_6
REMARK    4  A    between atoms: C_6  and  S_7
REMARK    5  A    between atoms: S_7  and  C_8
REMARK    6  A    between atoms: C_8  and  C_9
REMARK    7  A    between atoms: C_10  and  C_11
REMARK    8  A    between atoms: N_15  and  C_16
REMARK                            x       y       z     vdW  Elec       q    Type
REMARK                         _______ _______ _______ _____ _____    ______ ____
ROOT
ATOM      1  C   UNL     1       9.588  -2.144  23.182  0.00  0.00    +0.206 C 
ENDROOT
BRANCH   1   7
ATOM      2  C   UNL     1       8.529  -0.752  27.047  0.00  0.00    +0.291 C 
ATOM      3  N   UNL     1       8.995  -1.196  25.746  0.00  0.00    -0.116 NA
ATOM      4  C   UNL     1       9.442  -0.340  24.884  0.00  0.00    +0.395 C 
ATOM      5  N   UNL     1       9.551   1.001  25.106  0.00  0.00    -0.178 N 
ATOM      6  H   UNL     1       9.376   1.335  26.039  0.00  0.00    +0.278 HD
ATOM      7  N   UNL     1       9.844  -0.786  23.652  0.00  0.00    -0.274 N 
ATOM      8  H   UNL     1       9.954  -0.113  22.902  0.00  0.00    +0.258 HD
BRANCH   5   9
ATOM      9  C   UNL     1      10.224   1.894  24.215  0.00  0.00    +0.255 C 
ATOM     10  N   UNL     1      10.747   2.614  23.472  0.00  0.00    -0.154 NA
ENDBRANCH   5   9
ENDBRANCH   1   7
BRANCH   1  11
ATOM     11  C   UNL     1       8.362  -2.180  22.268  0.00  0.00    +0.106 C 
BRANCH  11  12
ATOM     12  S   UNL     1       6.954  -2.898  23.174  0.00  0.00    -0.151 S 
BRANCH  12  13
ATOM     13  C   UNL     1       7.539  -4.623  23.296  0.00  0.00    +0.126 C 
BRANCH  13  14
ATOM     14  C   UNL     1       7.483  -5.074  24.718  0.00  0.00    +0.072 A 
ATOM     15  N   UNL     1       6.272  -5.372  25.309  0.00  0.00    -0.240 NA
ATOM     16  C   UNL     1       6.547  -5.659  26.558  0.00  0.00    +0.197 A 
ATOM     17  N   UNL     1       7.888  -5.599  26.801  0.00  0.00    -0.348 N 
ATOM     18  H   UNL     1       8.334  -5.770  27.690  0.00  0.00    +0.166 HD
ATOM     19  C   UNL     1       8.512  -5.244  25.631  0.00  0.00    +0.036 A 
ATOM     20  C   UNL     1       9.978  -5.078  25.532  0.00  0.00    +0.065 C 
ENDBRANCH  13  14
ENDBRANCH  12  13
ENDBRANCH  11  12
ENDBRANCH   1  11
TORSDOF 6
ENDMDL
MODEL 6
REMARK VINA RESULT:      -5.2      2.361      6.389
REMARK  Name = 
REMARK  8 active torsions:
REMARK  status: ('A' for Active; 'I' for Inactive)
REMARK    1  A    between atoms: C_1  and  N_2
REMARK    2  A    between atoms: N_4  and  C_5
REMARK    3  A    between atoms: C_5  and  C_6
REMARK    4  A    between atoms: C_6  and  S_7
REMARK    5  A    between atoms: S_7  and  C_8
REMARK    6  A    between atoms: C_8  and  C_9
REMARK    7  A    between atoms: C_10  and  C_11
REMARK    8  A    between atoms: N_15  and  C_16
REMARK                            x       y       z     vdW  Elec       q    Type
REMARK                         _______ _______ _______ _____ _____    ______ ____
ROOT
ATOM      1  C   UNL     1      10.088  -1.546  22.461  0.00  0.00    +0.206 C 
ENDROOT
BRANCH   1   7
ATOM      2  C   UNL     1      10.587   2.494  23.657  0.00  0.00    +0.291 C 
ATOM      3  N   UNL     1      10.310   1.120  23.275  0.00  0.00    -0.116 NA
ATOM      4  C   UNL     1       9.945   0.256  24.165  0.00  0.00    +0.395 C 
ATOM      5  N   UNL     1       9.758   0.533  25.488  0.00  0.00    -0.178 N 
ATOM      6  H   UNL     1       9.798   1.497  25.772  0.00  0.00    +0.278 HD
ATOM      7  N   UNL     1       9.723  -1.041  23.780  0.00  0.00    -0.274 N 
ATOM      8  H   UNL     1       9.684  -1.761  24.492  0.00  0.00    +0.258 HD
BRANCH   5   9
ATOM      9  C   UNL     1       9.171  -0.389  26.410  0.00  0.00    +0.255 C 
ATOM     10  N   UNL     1       8.704  -1.161  27.139  0.00  0.00    -0.154 NA
ENDBRANCH   5   9
ENDBRANCH   1   7
BRANCH   1  11
ATOM     11  C   UNL     1       8.846  -2.002  21.692  0.00  0.00    +0.106 C 
BRANCH  11  12
ATOM     12  S   UNL     1       7.494  -2.329  22.867  0.00  0.00    -0.151 S 
BRANCH  12  13
ATOM     13  C   UNL     1       7.630  -4.147  22.964  0.00  0.00    +0.126 C 
BRANCH  13  14
ATOM     14  C   UNL     1       8.203  -4.540  24.286  0.00  0.00    +0.072 A 
ATOM     15  N   UNL     1       9.546  -4.356  24.547  0.00  0.00    -0.240 NA
ATOM     16  C   UNL     1       9.748  -4.860  25.741  0.00  0.00    +0.197 A 
ATOM     17  N   UNL     1       8.590  -5.331  26.287  0.00  0.00    -0.348 N 
ATOM     18  H   UNL     1       8.501  -5.772  27.191  0.00  0.00    +0.166 HD
ATOM     19  C   UNL     1       7.581  -5.121  25.380  0.00  0.00    +0.036 A 
ATOM     20  C   UNL     1       6.181  -5.521  25.643  0.00  0.00    +0.065 C 
ENDBRANCH  13  14
ENDBRANCH  12  13
ENDBRANCH  11  12
ENDBRANCH   1  11
TORSDOF 6
ENDMDL
MODEL 7
REMARK VINA RESULT:      -5.2      1.596      2.309
REMARK  Name = 
REMARK  8 active torsions:
REMARK  status: ('A' for Active; 'I' for Inactive)
REMARK    1  A    between atoms: C_1  and  N_2
REMARK    2  A    between atoms: N_4  and  C_5
REMARK    3  A    between atoms: C_5  and  C_6
REMARK    4  A    between atoms: C_6  and  S_7
REMARK    5  A    between atoms: S_7  and  C_8
REMARK    6  A    between atoms: C_8  and  C_9
REMARK    7  A    between atoms: C_10  and  C_11
REMARK    8  A    between atoms: N_15  and  C_16
REMARK                            x       y       z     vdW  Elec       q    Type
REMARK                         _______ _______ _______ _____ _____    ______ ____
ROOT
ATOM      1  C   UNL     1       8.928  -4.123  24.759  0.00  0.00    +0.206 C 
ENDROOT
BRANCH   1   7
ATOM      2  C   UNL     1       5.516  -6.192  26.200  0.00  0.00    +0.291 C 
ATOM      3  N   UNL     1       6.615  -5.406  25.669  0.00  0.00    -0.116 NA
ATOM      4  C   UNL     1       6.728  -5.218  24.394  0.00  0.00    +0.395 C 
ATOM      5  N   UNL     1       5.852  -5.686  23.459  0.00  0.00    -0.178 N 
ATOM      6  H   UNL     1       5.002  -6.111  23.788  0.00  0.00    +0.278 HD
ATOM      7  N   UNL     1       7.794  -4.500  23.920  0.00  0.00    -0.274 N 
ATOM      8  H   UNL     1       8.024  -4.561  22.935  0.00  0.00    +0.258 HD
BRANCH   5   9
ATOM      9  C   UNL     1       5.893  -5.303  22.082  0.00  0.00    +0.255 C 
ATOM     10  N   UNL     1       5.954  -4.980  20.970  0.00  0.00    -0.154 NA
ENDBRANCH   5   9
ENDBRANCH   1   7
BRANCH   1  11
ATOM     11  C   UNL     1       9.704  -2.963  24.132  0.00  0.00    +0.106 C 
BRANCH  11  12
ATOM     12  S   UNL     1       8.940  -1.386  24.627  0.00  0.00    -0.151 S 
BRANCH  12  13
ATOM     13  C   UNL     1      10.279  -0.248  24.131  0.00  0.00    +0.126 C 
BRANCH  13  14
ATOM     14  C   UNL     1       9.814   0.617  23.006  0.00  0.00    +0.072 A 
ATOM     15  N   UNL     1       8.995   0.102  22.021  0.00  0.00    -0.240 NA
ATOM     16  C   UNL     1       8.828   1.071  21.155  0.00  0.00    +0.197 A 
ATOM     17  N   UNL     1       9.471   2.209  21.548  0.00  0.00    -0.348 N 
ATOM     18  H   UNL     1       9.494   3.079  21.037  0.00  0.00    +0.166 HD
ATOM     19  C   UNL     1      10.096   1.948  22.742  0.00  0.00    +0.036 A 
ATOM     20  C   UNL     1      10.897   2.965  23.457  0.00  0.00    +0.065 C 
ENDBRANCH  13  14
ENDBRANCH  12  13
ENDBRANCH  11  12
ENDBRANCH   1  11
TORSDOF 6
ENDMDL
MODEL 8
REMARK VINA RESULT:      -5.2      2.696      5.720
REMARK  Name = 
REMARK  8 active torsions:
REMARK  status: ('A' for Active; 'I' for Inactive)
REMARK    1  A    between atoms: C_1  and  N_2
REMARK    2  A    between atoms: N_4  and  C_5
REMARK    3  A    between atoms: C_5  and  C_6
REMARK    4  A    between atoms: C_6  and  S_7
REMARK    5  A    between atoms: S_7  and  C_8
REMARK    6  A    between atoms: C_8  and  C_9
REMARK    7  A    between atoms: C_10  and  C_11
REMARK    8  A    between atoms: N_15  and  C_16
REMARK                            x       y       z     vdW  Elec       q    Type
REMARK                         _______ _______ _______ _____ _____    ______ ____
ROOT
ATOM      1  C   UNL     1       6.027  -2.009  24.168  0.00  0.00    +0.206 C 
ENDROOT
BRANCH   1   7
ATOM      2  C   UNL     1       8.703  -0.709  27.193  0.00  0.00    +0.291 C 
ATOM      3  N   UNL     1       7.850  -1.244  26.146  0.00  0.00    -0.116 NA
ATOM      4  C   UNL     1       8.305  -1.393  24.944  0.00  0.00    +0.395 C 
ATOM      5  N   UNL     1       9.581  -1.109  24.555  0.00  0.00    -0.178 N 
ATOM      6  H   UNL     1      10.246  -0.874  25.273  0.00  0.00    +0.278 HD
ATOM      7  N   UNL     1       7.466  -1.869  23.971  0.00  0.00    -0.274 N 
ATOM      8  H   UNL     1       7.731  -1.752  22.999  0.00  0.00    +0.258 HD
BRANCH   5   9
ATOM      9  C   UNL     1      10.111  -1.463  23.275  0.00  0.00    +0.255 C 
ATOM     10  N   UNL     1      10.568  -1.753  22.250  0.00  0.00    -0.154 NA
ENDBRANCH   5   9
ENDBRANCH   1   7
BRANCH   1  11
ATOM     11  C   UNL     1       5.460  -3.105  23.264  0.00  0.00    +0.106 C 
BRANCH  11  12
ATOM     12  S   UNL     1       6.810  -3.844  22.290  0.00  0.00    -0.151 S 
BRANCH  12  13
ATOM     13  C   UNL     1       6.986  -5.422  23.189  0.00  0.00    +0.126 C 
BRANCH  13  14
ATOM     14  C   UNL     1       7.788  -5.209  24.430  0.00  0.00    +0.072 A 
ATOM     15  N   UNL     1       9.119  -4.850  24.348  0.00  0.00    -0.240 NA
ATOM     16  C   UNL     1       9.554  -4.814  25.584  0.00  0.00    +0.197 A 
ATOM     17  N   UNL     1       8.558  -5.096  26.472  0.00  0.00    -0.348 N 
ATOM     18  H   UNL     1       8.659  -5.138  27.476  0.00  0.00    +0.166 HD
ATOM     19  C   UNL     1       7.411  -5.336  25.758  0.00  0.00    +0.036 A 
ATOM     20  C   UNL     1       6.129  -5.682  26.408  0.00  0.00    +0.065 C 
ENDBRANCH  13  14
ENDBRANCH  12  13
ENDBRANCH  11  12
ENDBRANCH   1  11
TORSDOF 6
ENDMDL
MODEL 9
REMARK VINA RESULT:      -5.2      2.653      3.438
REMARK  Name = 
REMARK  8 active torsions:
REMARK  status: ('A' for Active; 'I' for Inactive)
REMARK    1  A    between atoms: C_1  and  N_2
REMARK    2  A    between atoms: N_4  and  C_5
REMARK    3  A    between atoms: C_5  and  C_6
REMARK    4  A    between atoms: C_6  and  S_7
REMARK    5  A    between atoms: S_7  and  C_8
REMARK    6  A    between atoms: C_8  and  C_9
REMARK    7  A    between atoms: C_10  and  C_11
REMARK    8  A    between atoms: N_15  and  C_16
REMARK                            x       y       z     vdW  Elec       q    Type
REMARK                         _______ _______ _______ _____ _____    ______ ____
ROOT
ATOM      1  C   UNL     1       6.434  -2.082  26.522  0.00  0.00    +0.206 C 
ENDROOT
BRANCH   1   7
ATOM      2  C   UNL     1       6.421  -5.841  28.491  0.00  0.00    +0.291 C 
ATOM      3  N   UNL     1       6.418  -4.609  27.722  0.00  0.00    -0.116 NA
ATOM      4  C   UNL     1       7.391  -4.341  26.912  0.00  0.00    +0.395 C 
ATOM      5  N   UNL     1       8.456  -5.161  26.679  0.00  0.00    -0.178 N 
ATOM      6  H   UNL     1       8.429  -6.084  27.078  0.00  0.00    +0.278 HD
ATOM      7  N   UNL     1       7.377  -3.156  26.225  0.00  0.00    -0.274 N 
ATOM      8  H   UNL     1       8.235  -2.832  25.793  0.00  0.00    +0.258 HD
BRANCH   5   9
ATOM      9  C   UNL     1       9.413  -4.932  25.642  0.00  0.00    +0.255 C 
ATOM     10  N   UNL     1      10.193  -4.778  24.798  0.00  0.00    -0.154 NA
ENDBRANCH   5   9
ENDBRANCH   1   7
BRANCH   1  11
ATOM     11  C   UNL     1       7.173  -0.821  26.973  0.00  0.00    +0.106 C 
BRANCH  11  12
ATOM     12  S   UNL     1       8.845  -0.809  26.250  0.00  0.00    -0.151 S 
BRANCH  12  13
ATOM     13  C   UNL     1       8.532   0.275  24.815  0.00  0.00    +0.126 C 
BRANCH  13  14
ATOM     14  C   UNL     1       8.811  -0.469  23.551  0.00  0.00    +0.072 A 
ATOM     15  N   UNL     1       8.505  -1.811  23.448  0.00  0.00    -0.240 NA
ATOM     16  C   UNL     1       8.932  -2.183  22.266  0.00  0.00    +0.197 A 
ATOM     17  N   UNL     1       9.468  -1.136  21.576  0.00  0.00    -0.348 N 
ATOM     18  H   UNL     1       9.870  -1.184  20.651  0.00  0.00    +0.166 HD
ATOM     19  C   UNL     1       9.386  -0.021  22.372  0.00  0.00    +0.036 A 
ATOM     20  C   UNL     1       9.885   1.302  21.939  0.00  0.00    +0.065 C 
ENDBRANCH  13  14
ENDBRANCH  12  13
ENDBRANCH  11  12
ENDBRANCH   1  11
TORSDOF 6
ENDMDL
