MODEL 1
REMARK VINA RESULT:      -6.4      0.000      0.000
REMARK  Name = 
REMARK  16 active torsions:
REMARK  status: ('A' for Active; 'I' for Inactive)
REMARK    1  A    between atoms: C_1  and  C_2
REMARK    2  A    between atoms: C_2  and  C_3
REMARK    3  A    between atoms: C_2  and  C_4
REMARK    4  A    between atoms: C_5  and  C_6
REMARK    5  A    between atoms: N_8  and  C_9
REMARK    6  A    between atoms: C_15  and  C_36
REMARK    7  A    between atoms: C_16  and  C_29
REMARK    8  A    between atoms: N_17  and  C_18
REMARK    9  A    between atoms: C_18  and  C_19
REMARK   10  A    between atoms: C_19  and  C_20
REMARK   11  A    between atoms: C_20  and  O_21
REMARK   12  A    between atoms: C_20  and  C_22
REMARK   13  A    between atoms: C_22  and  C_23
REMARK   14  A    between atoms: C_23  and  O_24
REMARK   15  A    between atoms: C_23  and  C_25
REMARK   16  A    between atoms: C_25  and  C_26
REMARK                            x       y       z     vdW  Elec       q    Type
REMARK                         _______ _______ _______ _____ _____    ______ ____
ROOT
ATOM      1  C   UNL     1       3.920  -2.471  26.293  0.00  0.00    +0.035 A 
ATOM      2  N   UNL     1       3.084  -3.571  26.037  0.00  0.00    -0.342 N 
ATOM      3  C   UNL     1       3.548  -4.305  24.919  0.00  0.00    +0.058 A 
ATOM      4  C   UNL     1       4.827  -3.787  24.617  0.00  0.00    +0.020 A 
ATOM      5  C   UNL     1       5.071  -2.661  25.509  0.00  0.00    +0.066 A 
ENDROOT
BRANCH   3   6
ATOM      6  C   UNL     1       2.803  -5.472  24.299  0.00  0.00    -0.001 A 
ATOM      7  C   UNL     1       1.838  -5.301  23.284  0.00  0.00    +0.013 A 
ATOM      8  C   UNL     1       1.158  -6.395  22.714  0.00  0.00    +0.039 A 
ATOM      9  C   UNL     1       1.492  -7.686  23.088  0.00  0.00    +0.123 A 
ATOM     10  F   UNL     1       0.888  -8.729  22.498  0.00  0.00    -0.205 F 
ATOM     11  C   UNL     1       2.449  -7.900  24.065  0.00  0.00    +0.039 A 
ATOM     12  C   UNL     1       3.054  -6.801  24.700  0.00  0.00    +0.013 A 
ENDBRANCH   3   6
BRANCH   4  13
ATOM     13  C   UNL     1       5.719  -4.345  23.563  0.00  0.00    -0.015 A 
ATOM     14  C   UNL     1       5.408  -4.242  22.197  0.00  0.00    +0.008 A 
ATOM     15  C   UNL     1       6.141  -4.932  21.219  0.00  0.00    +0.001 A 
ATOM     16  C   UNL     1       7.291  -5.627  21.570  0.00  0.00    +0.000 A 
ATOM     17  C   UNL     1       7.683  -5.658  22.902  0.00  0.00    +0.001 A 
ATOM     18  C   UNL     1       6.880  -5.063  23.885  0.00  0.00    +0.008 A 
ENDBRANCH   4  13
BRANCH   5  19
ATOM     19  C   UNL     1       6.344  -1.893  25.658  0.00  0.00    +0.251 C 
ATOM     20  N   UNL     1       6.683  -0.994  24.661  0.00  0.00    -0.281 N 
ATOM     21  H   UNL     1       5.957  -0.726  24.016  0.00  0.00    +0.155 HD
ATOM     22  O   UNL     1       6.996  -2.013  26.688  0.00  0.00    -0.270 OA
BRANCH  20  23
ATOM     23  C   UNL     1       7.910  -0.278  24.581  0.00  0.00    +0.034 A 
ATOM     24  C   UNL     1       7.918   1.106  24.796  0.00  0.00    +0.023 A 
ATOM     25  C   UNL     1       9.111   1.844  24.709  0.00  0.00    +0.002 A 
ATOM     26  C   UNL     1      10.303   1.211  24.380  0.00  0.00    +0.000 A 
ATOM     27  C   UNL     1      10.307  -0.160  24.140  0.00  0.00    +0.002 A 
ATOM     28  C   UNL     1       9.124  -0.895  24.253  0.00  0.00    +0.023 A 
ENDBRANCH  20  23
ENDBRANCH   5  19
BRANCH   1  30
ATOM     29  C   UNL     1       4.191  -1.629  28.666  0.00  0.00    +0.014 C 
ATOM     30  C   UNL     1       3.676  -1.288  27.256  0.00  0.00    +0.030 C 
ATOM     31  C   UNL     1       4.096   0.129  26.908  0.00  0.00    +0.014 C 
ENDBRANCH   1  30
BRANCH   2  32
ATOM     32  C   UNL     1       1.880  -3.917  26.783  0.00  0.00    +0.124 C 
BRANCH  32  33
ATOM     33  C   UNL     1       1.929  -5.139  27.710  0.00  0.00    +0.053 C 
BRANCH  33  34
ATOM     34  C   UNL     1       2.811  -4.987  28.947  0.00  0.00    +0.119 C 
BRANCH  34  35
ATOM     35  O   UNL     1       1.957  -4.685  30.052  0.00  0.00    -0.392 OA
ATOM     36  H   UNL     1       1.582  -3.798  29.853  0.00  0.00    +0.210 HD
ENDBRANCH  34  35
BRANCH  34  37
ATOM     37  C   UNL     1       3.545  -6.322  29.175  0.00  0.00    +0.063 C 
BRANCH  37  38
ATOM     38  C   UNL     1       5.050  -6.178  29.424  0.00  0.00    +0.122 C 
BRANCH  38  39
ATOM     39  O   UNL     1       5.670  -7.444  29.105  0.00  0.00    -0.391 OA
ATOM     40  H   UNL     1       5.724  -7.485  28.133  0.00  0.00    +0.210 HD
ENDBRANCH  38  39
BRANCH  38  41
ATOM     41  C   UNL     1       5.671  -5.092  28.552  0.00  0.00    +0.083 C 
BRANCH  41  42
ATOM     42  C   UNL     1       6.550  -5.612  27.419  0.00  0.00    +0.044 C 
ATOM     43  O   UNL     1       7.726  -5.153  27.423  0.00  0.00    -0.550 OA
ATOM     44  O   UNL     1       6.006  -6.427  26.626  0.00  0.00    -0.550 OA
ENDBRANCH  41  42
ENDBRANCH  38  41
ENDBRANCH  37  38
ENDBRANCH  34  37
ENDBRANCH  33  34
ENDBRANCH  32  33
ENDBRANCH   2  32
TORSDOF 14
ENDMDL
MODEL 2
REMARK VINA RESULT:      -6.3      3.436      6.950
REMARK  Name = 
REMARK  16 active torsions:
REMARK  status: ('A' for Active; 'I' for Inactive)
REMARK    1  A    between atoms: C_1  and  C_2
REMARK    2  A    between atoms: C_2  and  C_3
REMARK    3  A    between atoms: C_2  and  C_4
REMARK    4  A    between atoms: C_5  and  C_6
REMARK    5  A    between atoms: N_8  and  C_9
REMARK    6  A    between atoms: C_15  and  C_36
REMARK    7  A    between atoms: C_16  and  C_29
REMARK    8  A    between atoms: N_17  and  C_18
REMARK    9  A    between atoms: C_18  and  C_19
REMARK   10  A    between atoms: C_19  and  C_20
REMARK   11  A    between atoms: C_20  and  O_21
REMARK   12  A    between atoms: C_20  and  C_22
REMARK   13  A    between atoms: C_22  and  C_23
REMARK   14  A    between atoms: C_23  and  O_24
REMARK   15  A    between atoms: C_23  and  C_25
REMARK   16  A    between atoms: C_25  and  C_26
REMARK                            x       y       z     vdW  Elec       q    Type
REMARK                         _______ _______ _______ _____ _____    ______ ____
ROOT
ATOM      1  C   UNL     1       8.675   0.386  23.597  0.00  0.00    +0.035 A 
ATOM      2  N   UNL     1       8.410  -0.952  23.931  0.00  0.00    -0.342 N 
ATOM      3  C   UNL     1       7.737  -1.037  25.173  0.00  0.00    +0.058 A 
ATOM      4  C   UNL     1       7.369   0.286  25.507  0.00  0.00    +0.020 A 
ATOM      5  C   UNL     1       7.927   1.170  24.492  0.00  0.00    +0.066 A 
ENDROOT
BRANCH   3   6
ATOM      6  C   UNL     1       7.421  -2.339  25.883  0.00  0.00    -0.001 A 
ATOM      7  C   UNL     1       6.103  -2.722  26.214  0.00  0.00    +0.013 A 
ATOM      8  C   UNL     1       5.825  -3.937  26.868  0.00  0.00    +0.039 A 
ATOM      9  C   UNL     1       6.849  -4.832  27.128  0.00  0.00    +0.123 A 
ATOM     10  F   UNL     1       6.572  -6.017  27.694  0.00  0.00    -0.205 F 
ATOM     11  C   UNL     1       8.154  -4.507  26.800  0.00  0.00    +0.039 A 
ATOM     12  C   UNL     1       8.439  -3.251  26.236  0.00  0.00    +0.013 A 
ENDBRANCH   3   6
BRANCH   4  13
ATOM     13  C   UNL     1       6.548   0.642  26.697  0.00  0.00    -0.015 A 
ATOM     14  C   UNL     1       7.116   0.783  27.974  0.00  0.00    +0.008 A 
ATOM     15  C   UNL     1       6.322   0.925  29.123  0.00  0.00    +0.001 A 
ATOM     16  C   UNL     1       4.946   1.073  29.007  0.00  0.00    +0.000 A 
ATOM     17  C   UNL     1       4.367   1.044  27.746  0.00  0.00    +0.001 A 
ATOM     18  C   UNL     1       5.155   0.785  26.615  0.00  0.00    +0.008 A 
ENDBRANCH   4  13
BRANCH   5  19
ATOM     19  C   UNL     1       7.680   2.636  24.345  0.00  0.00    +0.251 C 
ATOM     20  N   UNL     1       6.747   3.049  23.408  0.00  0.00    -0.281 N 
ATOM     21  H   UNL     1       6.118   2.351  23.046  0.00  0.00    +0.155 HD
ATOM     22  O   UNL     1       8.235   3.415  25.111  0.00  0.00    -0.270 OA
BRANCH  20  23
ATOM     23  C   UNL     1       6.482   4.401  23.052  0.00  0.00    +0.034 A 
ATOM     24  C   UNL     1       7.400   5.098  22.257  0.00  0.00    +0.023 A 
ATOM     25  C   UNL     1       7.175   6.440  21.901  0.00  0.00    +0.002 A 
ATOM     26  C   UNL     1       6.046   7.105  22.359  0.00  0.00    +0.000 A 
ATOM     27  C   UNL     1       5.136   6.433  23.171  0.00  0.00    +0.002 A 
ATOM     28  C   UNL     1       5.349   5.092  23.500  0.00  0.00    +0.023 A 
ENDBRANCH  20  23
ENDBRANCH   5  19
BRANCH   1  30
ATOM     29  C   UNL     1       8.759   1.104  21.170  0.00  0.00    +0.014 C 
ATOM     30  C   UNL     1       9.574   0.929  22.464  0.00  0.00    +0.030 C 
ATOM     31  C   UNL     1      10.458   2.149  22.658  0.00  0.00    +0.014 C 
ENDBRANCH   1  30
BRANCH   2  32
ATOM     32  C   UNL     1       8.791  -2.118  23.142  0.00  0.00    +0.124 C 
BRANCH  32  33
ATOM     33  C   UNL     1       7.826  -2.601  22.051  0.00  0.00    +0.053 C 
BRANCH  33  34
ATOM     34  C   UNL     1       6.615  -3.385  22.550  0.00  0.00    +0.119 C 
BRANCH  34  35
ATOM     35  O   UNL     1       5.579  -3.248  21.575  0.00  0.00    -0.392 OA
ATOM     36  H   UNL     1       5.998  -2.780  20.819  0.00  0.00    +0.210 HD
ENDBRANCH  34  35
BRANCH  34  37
ATOM     37  C   UNL     1       7.032  -4.861  22.697  0.00  0.00    +0.063 C 
BRANCH  37  38
ATOM     38  C   UNL     1       5.883  -5.860  22.528  0.00  0.00    +0.122 C 
BRANCH  38  39
ATOM     39  O   UNL     1       6.443  -7.093  22.024  0.00  0.00    -0.391 OA
ATOM     40  H   UNL     1       5.930  -7.814  22.432  0.00  0.00    +0.210 HD
ENDBRANCH  38  39
BRANCH  38  41
ATOM     41  C   UNL     1       5.176  -6.144  23.849  0.00  0.00    +0.083 C 
BRANCH  41  42
ATOM     42  C   UNL     1       3.783  -5.532  23.969  0.00  0.00    +0.044 C 
ATOM     43  O   UNL     1       3.218  -5.745  25.078  0.00  0.00    -0.550 OA
ATOM     44  O   UNL     1       3.370  -4.895  22.963  0.00  0.00    -0.550 OA
ENDBRANCH  41  42
ENDBRANCH  38  41
ENDBRANCH  37  38
ENDBRANCH  34  37
ENDBRANCH  33  34
ENDBRANCH  32  33
ENDBRANCH   2  32
TORSDOF 14
ENDMDL
MODEL 3
REMARK VINA RESULT:      -6.2      2.955      6.443
REMARK  Name = 
REMARK  16 active torsions:
REMARK  status: ('A' for Active; 'I' for Inactive)
REMARK    1  A    between atoms: C_1  and  C_2
REMARK    2  A    between atoms: C_2  and  C_3
REMARK    3  A    between atoms: C_2  and  C_4
REMARK    4  A    between atoms: C_5  and  C_6
REMARK    5  A    between atoms: N_8  and  C_9
REMARK    6  A    between atoms: C_15  and  C_36
REMARK    7  A    between atoms: C_16  and  C_29
REMARK    8  A    between atoms: N_17  and  C_18
REMARK    9  A    between atoms: C_18  and  C_19
REMARK   10  A    between atoms: C_19  and  C_20
REMARK   11  A    between atoms: C_20  and  O_21
REMARK   12  A    between atoms: C_20  and  C_22
REMARK   13  A    between atoms: C_22  and  C_23
REMARK   14  A    between atoms: C_23  and  O_24
REMARK   15  A    between atoms: C_23  and  C_25
REMARK   16  A    between atoms: C_25  and  C_26
REMARK                            x       y       z     vdW  Elec       q    Type
REMARK                         _______ _______ _______ _____ _____    ______ ____
ROOT
ATOM      1  C   UNL     1       8.372  -0.629  23.625  0.00  0.00    +0.035 A 
ATOM      2  N   UNL     1       7.753  -1.807  24.076  0.00  0.00    -0.342 N 
ATOM      3  C   UNL     1       7.031  -1.571  25.270  0.00  0.00    +0.058 A 
ATOM      4  C   UNL     1       7.008  -0.168  25.440  0.00  0.00    +0.020 A 
ATOM      5  C   UNL     1       7.819   0.419  24.381  0.00  0.00    +0.066 A 
ENDROOT
BRANCH   3   6
ATOM      6  C   UNL     1       6.357  -2.657  26.086  0.00  0.00    -0.001 A 
ATOM      7  C   UNL     1       4.954  -2.796  26.149  0.00  0.00    +0.013 A 
ATOM      8  C   UNL     1       4.342  -3.813  26.908  0.00  0.00    +0.039 A 
ATOM      9  C   UNL     1       5.123  -4.762  27.547  0.00  0.00    +0.123 A 
ATOM     10  F   UNL     1       4.536  -5.767  28.215  0.00  0.00    -0.205 F 
ATOM     11  C   UNL     1       6.503  -4.677  27.492  0.00  0.00    +0.039 A 
ATOM     12  C   UNL     1       7.108  -3.603  26.816  0.00  0.00    +0.013 A 
ENDBRANCH   3   6
BRANCH   4  13
ATOM     13  C   UNL     1       6.262   0.523  26.527  0.00  0.00    -0.015 A 
ATOM     14  C   UNL     1       6.804   0.681  27.814  0.00  0.00    +0.008 A 
ATOM     15  C   UNL     1       6.032   1.154  28.886  0.00  0.00    +0.001 A 
ATOM     16  C   UNL     1       4.740   1.615  28.667  0.00  0.00    +0.000 A 
ATOM     17  C   UNL     1       4.215   1.569  27.383  0.00  0.00    +0.001 A 
ATOM     18  C   UNL     1       4.952   0.988  26.342  0.00  0.00    +0.008 A 
ENDBRANCH   4  13
BRANCH   5  19
ATOM     19  C   UNL     1       7.970   1.872  24.068  0.00  0.00    +0.251 C 
ATOM     20  N   UNL     1       8.941   2.588  24.750  0.00  0.00    -0.281 N 
ATOM     21  H   UNL     1       9.645   2.059  25.239  0.00  0.00    +0.155 HD
ATOM     22  O   UNL     1       7.304   2.361  23.163  0.00  0.00    -0.270 OA
BRANCH  20  23
ATOM     23  C   UNL     1       9.134   3.995  24.667  0.00  0.00    +0.034 A 
ATOM     24  C   UNL     1      10.123   4.508  23.818  0.00  0.00    +0.023 A 
ATOM     25  C   UNL     1      10.350   5.892  23.725  0.00  0.00    +0.002 A 
ATOM     26  C   UNL     1       9.610   6.775  24.501  0.00  0.00    +0.000 A 
ATOM     27  C   UNL     1       8.640   6.280  25.369  0.00  0.00    +0.002 A 
ATOM     28  C   UNL     1       8.400   4.905  25.438  0.00  0.00    +0.023 A 
ENDBRANCH  20  23
ENDBRANCH   5  19
BRANCH   1  30
ATOM     29  C   UNL     1      10.515  -1.550  22.639  0.00  0.00    +0.014 C 
ATOM     30  C   UNL     1       9.426  -0.470  22.507  0.00  0.00    +0.030 C 
ATOM     31  C   UNL     1       9.032  -0.344  21.047  0.00  0.00    +0.014 C 
ENDBRANCH   1  30
BRANCH   2  32
ATOM     32  C   UNL     1       7.847  -3.115  23.438  0.00  0.00    +0.124 C 
BRANCH  32  33
ATOM     33  C   UNL     1       7.041  -3.356  22.155  0.00  0.00    +0.053 C 
BRANCH  33  34
ATOM     34  C   UNL     1       6.313  -4.696  22.082  0.00  0.00    +0.119 C 
BRANCH  34  35
ATOM     35  O   UNL     1       7.197  -5.636  21.469  0.00  0.00    -0.392 OA
ATOM     36  H   UNL     1       7.603  -5.153  20.715  0.00  0.00    +0.210 HD
ENDBRANCH  34  35
BRANCH  34  37
ATOM     37  C   UNL     1       5.969  -5.129  23.520  0.00  0.00    +0.063 C 
BRANCH  37  38
ATOM     38  C   UNL     1       4.582  -5.764  23.672  0.00  0.00    +0.122 C 
BRANCH  38  39
ATOM     39  O   UNL     1       4.179  -6.254  22.374  0.00  0.00    -0.391 OA
ATOM     40  H   UNL     1       4.804  -6.965  22.143  0.00  0.00    +0.210 HD
ENDBRANCH  38  39
BRANCH  38  41
ATOM     41  C   UNL     1       4.594  -6.929  24.656  0.00  0.00    +0.083 C 
BRANCH  41  42
ATOM     42  C   UNL     1       3.216  -7.496  24.985  0.00  0.00    +0.044 C 
ATOM     43  O   UNL     1       2.734  -7.086  26.077  0.00  0.00    -0.550 OA
ATOM     44  O   UNL     1       2.730  -8.293  24.138  0.00  0.00    -0.550 OA
ENDBRANCH  41  42
ENDBRANCH  38  41
ENDBRANCH  37  38
ENDBRANCH  34  37
ENDBRANCH  33  34
ENDBRANCH  32  33
ENDBRANCH   2  32
TORSDOF 14
ENDMDL
MODEL 4
REMARK VINA RESULT:      -6.2      2.719      4.920
REMARK  Name = 
REMARK  16 active torsions:
REMARK  status: ('A' for Active; 'I' for Inactive)
REMARK    1  A    between atoms: C_1  and  C_2
REMARK    2  A    between atoms: C_2  and  C_3
REMARK    3  A    between atoms: C_2  and  C_4
REMARK    4  A    between atoms: C_5  and  C_6
REMARK    5  A    between atoms: N_8  and  C_9
REMARK    6  A    between atoms: C_15  and  C_36
REMARK    7  A    between atoms: C_16  and  C_29
REMARK    8  A    between atoms: N_17  and  C_18
REMARK    9  A    between atoms: C_18  and  C_19
REMARK   10  A    between atoms: C_19  and  C_20
REMARK   11  A    between atoms: C_20  and  O_21
REMARK   12  A    between atoms: C_20  and  C_22
REMARK   13  A    between atoms: C_22  and  C_23
REMARK   14  A    between atoms: C_23  and  O_24
REMARK   15  A    between atoms: C_23  and  C_25
REMARK   16  A    between atoms: C_25  and  C_26
REMARK                            x       y       z     vdW  Elec       q    Type
REMARK                         _______ _______ _______ _____ _____    ______ ____
ROOT
ATOM      1  C   UNL     1       5.477  -0.145  26.559  0.00  0.00    +0.035 A 
ATOM      2  N   UNL     1       5.610  -1.424  25.992  0.00  0.00    -0.342 N 
ATOM      3  C   UNL     1       6.398  -1.373  24.818  0.00  0.00    +0.058 A 
ATOM      4  C   UNL     1       6.960  -0.078  24.781  0.00  0.00    +0.020 A 
ATOM      5  C   UNL     1       6.409   0.676  25.901  0.00  0.00    +0.066 A 
ENDROOT
BRANCH   3   6
ATOM      6  C   UNL     1       6.625  -2.555  23.894  0.00  0.00    -0.001 A 
ATOM      7  C   UNL     1       7.643  -3.507  24.120  0.00  0.00    +0.013 A 
ATOM      8  C   UNL     1       7.840  -4.602  23.256  0.00  0.00    +0.039 A 
ATOM      9  C   UNL     1       6.969  -4.813  22.200  0.00  0.00    +0.123 A 
ATOM     10  F   UNL     1       7.120  -5.893  21.417  0.00  0.00    -0.205 F 
ATOM     11  C   UNL     1       5.944  -3.917  21.956  0.00  0.00    +0.039 A 
ATOM     12  C   UNL     1       5.812  -2.772  22.762  0.00  0.00    +0.013 A 
ENDBRANCH   3   6
BRANCH   4  13
ATOM     13  C   UNL     1       7.942   0.371  23.756  0.00  0.00    -0.015 A 
ATOM     14  C   UNL     1       9.329   0.265  23.962  0.00  0.00    +0.008 A 
ATOM     15  C   UNL     1      10.251   0.861  23.089  0.00  0.00    +0.001 A 
ATOM     16  C   UNL     1       9.815   1.456  21.912  0.00  0.00    +0.000 A 
ATOM     17  C   UNL     1       8.456   1.483  21.631  0.00  0.00    +0.001 A 
ATOM     18  C   UNL     1       7.535   0.988  22.565  0.00  0.00    +0.008 A 
ENDBRANCH   4  13
BRANCH   5  19
ATOM     19  C   UNL     1       6.817   2.040  26.352  0.00  0.00    +0.251 C 
ATOM     20  N   UNL     1       6.680   3.089  25.459  0.00  0.00    -0.281 N 
ATOM     21  H   UNL     1       6.101   2.934  24.650  0.00  0.00    +0.155 HD
ATOM     22  O   UNL     1       7.170   2.203  27.514  0.00  0.00    -0.270 OA
BRANCH  20  23
ATOM     23  C   UNL     1       7.134   4.420  25.679  0.00  0.00    +0.034 A 
ATOM     24  C   UNL     1       8.459   4.757  25.374  0.00  0.00    +0.023 A 
ATOM     25  C   UNL     1       8.943   6.059  25.594  0.00  0.00    +0.002 A 
ATOM     26  C   UNL     1       8.116   7.028  26.146  0.00  0.00    +0.000 A 
ATOM     27  C   UNL     1       6.803   6.702  26.477  0.00  0.00    +0.002 A 
ATOM     28  C   UNL     1       6.318   5.415  26.232  0.00  0.00    +0.023 A 
ENDBRANCH  20  23
ENDBRANCH   5  19
BRANCH   1  30
ATOM     29  C   UNL     1       3.085   0.396  27.191  0.00  0.00    +0.014 C 
ATOM     30  C   UNL     1       4.535   0.302  27.699  0.00  0.00    +0.030 C 
ATOM     31  C   UNL     1       4.538  -0.381  29.055  0.00  0.00    +0.014 C 
ENDBRANCH   1  30
BRANCH   2  32
ATOM     32  C   UNL     1       5.006  -2.649  26.503  0.00  0.00    +0.124 C 
BRANCH  32  33
ATOM     33  C   UNL     1       3.690  -3.125  25.875  0.00  0.00    +0.053 C 
BRANCH  33  34
ATOM     34  C   UNL     1       3.424  -4.625  25.971  0.00  0.00    +0.119 C 
BRANCH  34  35
ATOM     35  O   UNL     1       2.202  -4.893  25.281  0.00  0.00    -0.392 OA
ATOM     36  H   UNL     1       2.387  -5.685  24.728  0.00  0.00    +0.210 HD
ENDBRANCH  34  35
BRANCH  34  37
ATOM     37  C   UNL     1       4.600  -5.360  25.301  0.00  0.00    +0.063 C 
BRANCH  37  38
ATOM     38  C   UNL     1       5.290  -6.394  26.197  0.00  0.00    +0.122 C 
BRANCH  38  39
ATOM     39  O   UNL     1       6.686  -6.035  26.289  0.00  0.00    -0.391 OA
ATOM     40  H   UNL     1       6.985  -5.864  25.377  0.00  0.00    +0.210 HD
ENDBRANCH  38  39
BRANCH  38  41
ATOM     41  C   UNL     1       4.694  -6.419  27.601  0.00  0.00    +0.083 C 
BRANCH  41  42
ATOM     42  C   UNL     1       5.722  -6.397  28.728  0.00  0.00    +0.044 C 
ATOM     43  O   UNL     1       6.196  -7.531  29.019  0.00  0.00    -0.550 OA
ATOM     44  O   UNL     1       5.975  -5.266  29.225  0.00  0.00    -0.550 OA
ENDBRANCH  41  42
ENDBRANCH  38  41
ENDBRANCH  37  38
ENDBRANCH  34  37
ENDBRANCH  33  34
ENDBRANCH  32  33
ENDBRANCH   2  32
TORSDOF 14
ENDMDL
MODEL 5
REMARK VINA RESULT:      -6.1      2.840      6.205
REMARK  Name = 
REMARK  16 active torsions:
REMARK  status: ('A' for Active; 'I' for Inactive)
REMARK    1  A    between atoms: C_1  and  C_2
REMARK    2  A    between atoms: C_2  and  C_3
REMARK    3  A    between atoms: C_2  and  C_4
REMARK    4  A    between atoms: C_5  and  C_6
REMARK    5  A    between atoms: N_8  and  C_9
REMARK    6  A    between atoms: C_15  and  C_36
REMARK    7  A    between atoms: C_16  and  C_29
REMARK    8  A    between atoms: N_17  and  C_18
REMARK    9  A    between atoms: C_18  and  C_19
REMARK   10  A    between atoms: C_19  and  C_20
REMARK   11  A    between atoms: C_20  and  O_21
REMARK   12  A    between atoms: C_20  and  C_22
REMARK   13  A    between atoms: C_22  and  C_23
REMARK   14  A    between atoms: C_23  and  O_24
REMARK   15  A    between atoms: C_23  and  C_25
REMARK   16  A    between atoms: C_25  and  C_26
REMARK                            x       y       z     vdW  Elec       q    Type
REMARK                         _______ _______ _______ _____ _____    ______ ____
ROOT
ATOM      1  C   UNL     1       8.243  -0.833  23.725  0.00  0.00    +0.035 A 
ATOM      2  N   UNL     1       7.304  -1.784  24.159  0.00  0.00    -0.342 N 
ATOM      3  C   UNL     1       6.389  -1.207  25.072  0.00  0.00    +0.058 A 
ATOM      4  C   UNL     1       6.620   0.186  25.027  0.00  0.00    +0.020 A 
ATOM      5  C   UNL     1       7.760   0.417  24.148  0.00  0.00    +0.066 A 
ENDROOT
BRANCH   3   6
ATOM      6  C   UNL     1       5.331  -1.990  25.826  0.00  0.00    -0.001 A 
ATOM      7  C   UNL     1       4.164  -2.480  25.203  0.00  0.00    +0.013 A 
ATOM      8  C   UNL     1       3.192  -3.211  25.915  0.00  0.00    +0.039 A 
ATOM      9  C   UNL     1       3.412  -3.538  27.243  0.00  0.00    +0.123 A 
ATOM     10  F   UNL     1       2.515  -4.288  27.901  0.00  0.00    -0.205 F 
ATOM     11  C   UNL     1       4.554  -3.097  27.887  0.00  0.00    +0.039 A 
ATOM     12  C   UNL     1       5.473  -2.285  27.198  0.00  0.00    +0.013 A 
ENDBRANCH   3   6
BRANCH   4  13
ATOM     13  C   UNL     1       5.801   1.186  25.766  0.00  0.00    -0.015 A 
ATOM     14  C   UNL     1       6.010   1.453  27.129  0.00  0.00    +0.008 A 
ATOM     15  C   UNL     1       5.120   2.246  27.871  0.00  0.00    +0.001 A 
ATOM     16  C   UNL     1       4.078   2.907  27.234  0.00  0.00    +0.000 A 
ATOM     17  C   UNL     1       3.910   2.745  25.866  0.00  0.00    +0.001 A 
ATOM     18  C   UNL     1       4.734   1.860  25.156  0.00  0.00    +0.008 A 
ENDBRANCH   4  13
BRANCH   5  19
ATOM     19  C   UNL     1       8.280   1.737  23.682  0.00  0.00    +0.251 C 
ATOM     20  N   UNL     1       9.430   2.231  24.276  0.00  0.00    -0.281 N 
ATOM     21  H   UNL     1       9.986   1.585  24.812  0.00  0.00    +0.155 HD
ATOM     22  O   UNL     1       7.735   2.294  22.737  0.00  0.00    -0.270 OA
BRANCH  20  23
ATOM     23  C   UNL     1       9.987   3.520  24.044  0.00  0.00    +0.034 A 
ATOM     24  C   UNL     1      11.276   3.628  23.506  0.00  0.00    +0.023 A 
ATOM     25  C   UNL     1      11.861   4.886  23.279  0.00  0.00    +0.002 A 
ATOM     26  C   UNL     1      11.175   6.047  23.613  0.00  0.00    +0.000 A 
ATOM     27  C   UNL     1       9.903   5.956  24.171  0.00  0.00    +0.002 A 
ATOM     28  C   UNL     1       9.314   4.704  24.370  0.00  0.00    +0.023 A 
ENDBRANCH  20  23
ENDBRANCH   5  19
BRANCH   1  30
ATOM     29  C   UNL     1      10.320  -2.263  23.492  0.00  0.00    +0.014 C 
ATOM     30  C   UNL     1       9.538  -1.068  22.917  0.00  0.00    +0.030 C 
ATOM     31  C   UNL     1       9.530  -1.168  21.402  0.00  0.00    +0.014 C 
ENDBRANCH   1  30
BRANCH   2  32
ATOM     32  C   UNL     1       7.269  -3.187  23.764  0.00  0.00    +0.124 C 
BRANCH  32  33
ATOM     33  C   UNL     1       6.862  -3.525  22.323  0.00  0.00    +0.053 C 
BRANCH  33  34
ATOM     34  C   UNL     1       5.780  -4.593  22.183  0.00  0.00    +0.119 C 
BRANCH  34  35
ATOM     35  O   UNL     1       5.754  -5.006  20.815  0.00  0.00    -0.392 OA
ATOM     36  H   UNL     1       4.989  -4.534  20.418  0.00  0.00    +0.210 HD
ENDBRANCH  34  35
BRANCH  34  37
ATOM     37  C   UNL     1       6.155  -5.773  23.100  0.00  0.00    +0.063 C 
BRANCH  37  38
ATOM     38  C   UNL     1       5.088  -6.125  24.141  0.00  0.00    +0.122 C 
BRANCH  38  39
ATOM     39  O   UNL     1       4.675  -7.489  23.903  0.00  0.00    -0.391 OA
ATOM     40  H   UNL     1       4.176  -7.481  23.065  0.00  0.00    +0.210 HD
ENDBRANCH  38  39
BRANCH  38  41
ATOM     41  C   UNL     1       5.623  -6.014  25.565  0.00  0.00    +0.083 C 
BRANCH  41  42
ATOM     42  C   UNL     1       4.805  -6.765  26.611  0.00  0.00    +0.044 C 
ATOM     43  O   UNL     1       3.588  -6.915  26.308  0.00  0.00    -0.550 OA
ATOM     44  O   UNL     1       5.431  -7.144  27.637  0.00  0.00    -0.550 OA
ENDBRANCH  41  42
ENDBRANCH  38  41
ENDBRANCH  37  38
ENDBRANCH  34  37
ENDBRANCH  33  34
ENDBRANCH  32  33
ENDBRANCH   2  32
TORSDOF 14
ENDMDL
MODEL 6
REMARK VINA RESULT:      -6.1      2.738      4.910
REMARK  Name = 
REMARK  16 active torsions:
REMARK  status: ('A' for Active; 'I' for Inactive)
REMARK    1  A    between atoms: C_1  and  C_2
REMARK    2  A    between atoms: C_2  and  C_3
REMARK    3  A    between atoms: C_2  and  C_4
REMARK    4  A    between atoms: C_5  and  C_6
REMARK    5  A    between atoms: N_8  and  C_9
REMARK    6  A    between atoms: C_15  and  C_36
REMARK    7  A    between atoms: C_16  and  C_29
REMARK    8  A    between atoms: N_17  and  C_18
REMARK    9  A    between atoms: C_18  and  C_19
REMARK   10  A    between atoms: C_19  and  C_20
REMARK   11  A    between atoms: C_20  and  O_21
REMARK   12  A    between atoms: C_20  and  C_22
REMARK   13  A    between atoms: C_22  and  C_23
REMARK   14  A    between atoms: C_23  and  O_24
REMARK   15  A    between atoms: C_23  and  C_25
REMARK   16  A    between atoms: C_25  and  C_26
REMARK                            x       y       z     vdW  Elec       q    Type
REMARK                         _______ _______ _______ _____ _____    ______ ____
ROOT
ATOM      1  C   UNL     1       5.387  -0.548  26.503  0.00  0.00    +0.035 A 
ATOM      2  N   UNL     1       5.481  -1.806  25.885  0.00  0.00    -0.342 N 
ATOM      3  C   UNL     1       6.272  -1.733  24.714  0.00  0.00    +0.058 A 
ATOM      4  C   UNL     1       6.874  -0.455  24.730  0.00  0.00    +0.020 A 
ATOM      5  C   UNL     1       6.344   0.270  25.878  0.00  0.00    +0.066 A 
ENDROOT
BRANCH   3   6
ATOM      6  C   UNL     1       6.464  -2.883  23.744  0.00  0.00    -0.001 A 
ATOM      7  C   UNL     1       5.657  -3.051  22.598  0.00  0.00    +0.013 A 
ATOM      8  C   UNL     1       5.851  -4.122  21.703  0.00  0.00    +0.039 A 
ATOM      9  C   UNL     1       6.910  -4.995  21.891  0.00  0.00    +0.123 A 
ATOM     10  F   UNL     1       7.130  -5.975  21.003  0.00  0.00    -0.205 F 
ATOM     11  C   UNL     1       7.739  -4.854  22.990  0.00  0.00    +0.039 A 
ATOM     12  C   UNL     1       7.481  -3.843  23.933  0.00  0.00    +0.013 A 
ENDBRANCH   3   6
BRANCH   4  13
ATOM     13  C   UNL     1       7.871   0.004  23.724  0.00  0.00    -0.015 A 
ATOM     14  C   UNL     1       9.241  -0.282  23.854  0.00  0.00    +0.008 A 
ATOM     15  C   UNL     1      10.201   0.311  23.019  0.00  0.00    +0.001 A 
ATOM     16  C   UNL     1       9.802   1.092  21.942  0.00  0.00    +0.000 A 
ATOM     17  C   UNL     1       8.448   1.305  21.726  0.00  0.00    +0.001 A 
ATOM     18  C   UNL     1       7.503   0.805  22.633  0.00  0.00    +0.008 A 
ENDBRANCH   4  13
BRANCH   5  19
ATOM     19  C   UNL     1       6.794   1.601  26.384  0.00  0.00    +0.251 C 
ATOM     20  N   UNL     1       6.584   2.709  25.579  0.00  0.00    -0.281 N 
ATOM     21  H   UNL     1       5.938   2.606  24.813  0.00  0.00    +0.155 HD
ATOM     22  O   UNL     1       7.245   1.687  27.520  0.00  0.00    -0.270 OA
BRANCH  20  23
ATOM     23  C   UNL     1       7.059   4.023  25.848  0.00  0.00    +0.034 A 
ATOM     24  C   UNL     1       8.317   4.413  25.372  0.00  0.00    +0.023 A 
ATOM     25  C   UNL     1       8.822   5.699  25.634  0.00  0.00    +0.002 A 
ATOM     26  C   UNL     1       8.087   6.596  26.398  0.00  0.00    +0.000 A 
ATOM     27  C   UNL     1       6.845   6.215  26.898  0.00  0.00    +0.002 A 
ATOM     28  C   UNL     1       6.336   4.946  26.613  0.00  0.00    +0.023 A 
ENDBRANCH  20  23
ENDBRANCH   5  19
BRANCH   1  30
ATOM     29  C   UNL     1       2.990  -0.118  27.197  0.00  0.00    +0.014 C 
ATOM     30  C   UNL     1       4.458  -0.118  27.660  0.00  0.00    +0.030 C 
ATOM     31  C   UNL     1       4.540  -0.758  29.034  0.00  0.00    +0.014 C 
ENDBRANCH   1  30
BRANCH   2  32
ATOM     32  C   UNL     1       4.839  -3.031  26.347  0.00  0.00    +0.124 C 
BRANCH  32  33
ATOM     33  C   UNL     1       5.639  -3.969  27.260  0.00  0.00    +0.053 C 
BRANCH  33  34
ATOM     34  C   UNL     1       6.010  -5.318  26.647  0.00  0.00    +0.119 C 
BRANCH  34  35
ATOM     35  O   UNL     1       7.212  -5.764  27.279  0.00  0.00    -0.392 OA
ATOM     36  H   UNL     1       7.242  -6.733  27.120  0.00  0.00    +0.210 HD
ENDBRANCH  34  35
BRANCH  34  37
ATOM     37  C   UNL     1       4.855  -6.299  26.921  0.00  0.00    +0.063 C 
BRANCH  37  38
ATOM     38  C   UNL     1       4.435  -7.133  25.706  0.00  0.00    +0.122 C 
BRANCH  38  39
ATOM     39  O   UNL     1       3.056  -7.520  25.895  0.00  0.00    -0.391 OA
ATOM     40  H   UNL     1       2.531  -6.964  25.291  0.00  0.00    +0.210 HD
ENDBRANCH  38  39
BRANCH  38  41
ATOM     41  C   UNL     1       4.553  -6.345  24.406  0.00  0.00    +0.083 C 
BRANCH  41  42
ATOM     42  C   UNL     1       3.221  -5.899  23.811  0.00  0.00    +0.044 C 
ATOM     43  O   UNL     1       2.779  -4.815  24.286  0.00  0.00    -0.550 OA
ATOM     44  O   UNL     1       2.728  -6.652  22.929  0.00  0.00    -0.550 OA
ENDBRANCH  41  42
ENDBRANCH  38  41
ENDBRANCH  37  38
ENDBRANCH  34  37
ENDBRANCH  33  34
ENDBRANCH  32  33
ENDBRANCH   2  32
TORSDOF 14
ENDMDL
MODEL 7
REMARK VINA RESULT:      -6.0      3.367      8.885
REMARK  Name = 
REMARK  16 active torsions:
REMARK  status: ('A' for Active; 'I' for Inactive)
REMARK    1  A    between atoms: C_1  and  C_2
REMARK    2  A    between atoms: C_2  and  C_3
REMARK    3  A    between atoms: C_2  and  C_4
REMARK    4  A    between atoms: C_5  and  C_6
REMARK    5  A    between atoms: N_8  and  C_9
REMARK    6  A    between atoms: C_15  and  C_36
REMARK    7  A    between atoms: C_16  and  C_29
REMARK    8  A    between atoms: N_17  and  C_18
REMARK    9  A    between atoms: C_18  and  C_19
REMARK   10  A    between atoms: C_19  and  C_20
REMARK   11  A    between atoms: C_20  and  O_21
REMARK   12  A    between atoms: C_20  and  C_22
REMARK   13  A    between atoms: C_22  and  C_23
REMARK   14  A    between atoms: C_23  and  O_24
REMARK   15  A    between atoms: C_23  and  C_25
REMARK   16  A    between atoms: C_25  and  C_26
REMARK                            x       y       z     vdW  Elec       q    Type
REMARK                         _______ _______ _______ _____ _____    ______ ____
ROOT
ATOM      1  C   UNL     1       5.990  -4.454  23.549  0.00  0.00    +0.035 A 
ATOM      2  N   UNL     1       6.662  -3.244  23.790  0.00  0.00    -0.342 N 
ATOM      3  C   UNL     1       6.044  -2.527  24.842  0.00  0.00    +0.058 A 
ATOM      4  C   UNL     1       5.110  -3.414  25.422  0.00  0.00    +0.020 A 
ATOM      5  C   UNL     1       5.110  -4.638  24.630  0.00  0.00    +0.066 A 
ENDROOT
BRANCH   3   6
ATOM      6  C   UNL     1       6.441  -1.125  25.264  0.00  0.00    -0.001 A 
ATOM      7  C   UNL     1       7.234  -0.874  26.404  0.00  0.00    +0.013 A 
ATOM      8  C   UNL     1       7.599   0.433  26.782  0.00  0.00    +0.039 A 
ATOM      9  C   UNL     1       7.251   1.506  25.978  0.00  0.00    +0.123 A 
ATOM     10  F   UNL     1       7.654   2.743  26.306  0.00  0.00    -0.205 F 
ATOM     11  C   UNL     1       6.493   1.303  24.839  0.00  0.00    +0.039 A 
ATOM     12  C   UNL     1       6.047   0.007  24.520  0.00  0.00    +0.013 A 
ENDBRANCH   3   6
BRANCH   4  13
ATOM     13  C   UNL     1       4.307  -3.095  26.634  0.00  0.00    -0.015 A 
ATOM     14  C   UNL     1       3.158  -2.288  26.571  0.00  0.00    +0.008 A 
ATOM     15  C   UNL     1       2.514  -1.828  27.730  0.00  0.00    +0.001 A 
ATOM     16  C   UNL     1       2.919  -2.281  28.979  0.00  0.00    +0.000 A 
ATOM     17  C   UNL     1       3.986  -3.164  29.065  0.00  0.00    +0.001 A 
ATOM     18  C   UNL     1       4.695  -3.526  27.911  0.00  0.00    +0.008 A 
ENDBRANCH   4  13
BRANCH   5  19
ATOM     19  C   UNL     1       4.393  -5.910  24.943  0.00  0.00    +0.251 C 
ATOM     20  N   UNL     1       3.058  -6.008  24.590  0.00  0.00    -0.281 N 
ATOM     21  H   UNL     1       2.702  -5.328  23.938  0.00  0.00    +0.155 HD
ATOM     22  O   UNL     1       5.022  -6.850  25.414  0.00  0.00    -0.270 OA
BRANCH  20  23
ATOM     23  C   UNL     1       2.197  -7.091  24.924  0.00  0.00    +0.034 A 
ATOM     24  C   UNL     1       1.624  -7.149  26.201  0.00  0.00    +0.023 A 
ATOM     25  C   UNL     1       0.782  -8.214  26.568  0.00  0.00    +0.002 A 
ATOM     26  C   UNL     1       0.527  -9.244  25.672  0.00  0.00    +0.000 A 
ATOM     27  C   UNL     1       1.107  -9.213  24.407  0.00  0.00    +0.002 A 
ATOM     28  C   UNL     1       1.922  -8.140  24.037  0.00  0.00    +0.023 A 
ENDBRANCH  20  23
ENDBRANCH   5  19
BRANCH   1  30
ATOM     29  C   UNL     1       5.918  -4.711  21.030  0.00  0.00    +0.014 C 
ATOM     30  C   UNL     1       6.174  -5.431  22.367  0.00  0.00    +0.030 C 
ATOM     31  C   UNL     1       7.413  -6.298  22.229  0.00  0.00    +0.014 C 
ENDBRANCH   1  30
BRANCH   2  32
ATOM     32  C   UNL     1       7.821  -2.753  23.054  0.00  0.00    +0.124 C 
BRANCH  32  33
ATOM     33  C   UNL     1       9.213  -2.987  23.655  0.00  0.00    +0.053 C 
BRANCH  33  34
ATOM     34  C   UNL     1      10.281  -1.975  23.247  0.00  0.00    +0.119 C 
BRANCH  34  35
ATOM     35  O   UNL     1      10.114  -1.709  21.853  0.00  0.00    -0.392 OA
ATOM     36  H   UNL     1       9.608  -0.868  21.811  0.00  0.00    +0.210 HD
ENDBRANCH  34  35
BRANCH  34  37
ATOM     37  C   UNL     1      10.063  -0.694  24.076  0.00  0.00    +0.063 C 
BRANCH  37  38
ATOM     38  C   UNL     1      10.232   0.606  23.283  0.00  0.00    +0.122 C 
BRANCH  38  39
ATOM     39  O   UNL     1       9.020   0.818  22.525  0.00  0.00    -0.391 OA
ATOM     40  H   UNL     1       8.925   0.045  21.939  0.00  0.00    +0.210 HD
ENDBRANCH  38  39
BRANCH  38  41
ATOM     41  C   UNL     1      10.459   1.805  24.197  0.00  0.00    +0.083 C 
BRANCH  41  42
ATOM     42  C   UNL     1      10.304   3.162  23.515  0.00  0.00    +0.044 C 
ATOM     43  O   UNL     1      11.397   3.742  23.263  0.00  0.00    -0.550 OA
ATOM     44  O   UNL     1       9.122   3.534  23.286  0.00  0.00    -0.550 OA
ENDBRANCH  41  42
ENDBRANCH  38  41
ENDBRANCH  37  38
ENDBRANCH  34  37
ENDBRANCH  33  34
ENDBRANCH  32  33
ENDBRANCH   2  32
TORSDOF 14
ENDMDL
MODEL 8
REMARK VINA RESULT:      -6.0      3.779      8.349
REMARK  Name = 
REMARK  16 active torsions:
REMARK  status: ('A' for Active; 'I' for Inactive)
REMARK    1  A    between atoms: C_1  and  C_2
REMARK    2  A    between atoms: C_2  and  C_3
REMARK    3  A    between atoms: C_2  and  C_4
REMARK    4  A    between atoms: C_5  and  C_6
REMARK    5  A    between atoms: N_8  and  C_9
REMARK    6  A    between atoms: C_15  and  C_36
REMARK    7  A    between atoms: C_16  and  C_29
REMARK    8  A    between atoms: N_17  and  C_18
REMARK    9  A    between atoms: C_18  and  C_19
REMARK   10  A    between atoms: C_19  and  C_20
REMARK   11  A    between atoms: C_20  and  O_21
REMARK   12  A    between atoms: C_20  and  C_22
REMARK   13  A    between atoms: C_22  and  C_23
REMARK   14  A    between atoms: C_23  and  O_24
REMARK   15  A    between atoms: C_23  and  C_25
REMARK   16  A    between atoms: C_25  and  C_26
REMARK                            x       y       z     vdW  Elec       q    Type
REMARK                         _______ _______ _______ _____ _____    ______ ____
ROOT
ATOM      1  C   UNL     1       4.395  -1.323  26.097  0.00  0.00    +0.035 A 
ATOM      2  N   UNL     1       5.319  -0.423  25.540  0.00  0.00    -0.342 N 
ATOM      3  C   UNL     1       6.171  -1.081  24.621  0.00  0.00    +0.058 A 
ATOM      4  C   UNL     1       5.616  -2.366  24.428  0.00  0.00    +0.020 A 
ATOM      5  C   UNL     1       4.477  -2.497  25.329  0.00  0.00    +0.066 A 
ENDROOT
BRANCH   3   6
ATOM      6  C   UNL     1       7.360  -0.427  23.944  0.00  0.00    -0.001 A 
ATOM      7  C   UNL     1       7.231   0.349  22.772  0.00  0.00    +0.013 A 
ATOM      8  C   UNL     1       8.344   0.955  22.157  0.00  0.00    +0.039 A 
ATOM      9  C   UNL     1       9.593   0.867  22.750  0.00  0.00    +0.123 A 
ATOM     10  F   UNL     1      10.639   1.499  22.196  0.00  0.00    -0.205 F 
ATOM     11  C   UNL     1       9.760   0.134  23.911  0.00  0.00    +0.039 A 
ATOM     12  C   UNL     1       8.664  -0.550  24.467  0.00  0.00    +0.013 A 
ENDBRANCH   3   6
BRANCH   4  13
ATOM     13  C   UNL     1       6.146  -3.360  23.455  0.00  0.00    -0.015 A 
ATOM     14  C   UNL     1       5.687  -3.416  22.127  0.00  0.00    +0.008 A 
ATOM     15  C   UNL     1       6.040  -4.468  21.268  0.00  0.00    +0.001 A 
ATOM     16  C   UNL     1       6.974  -5.414  21.670  0.00  0.00    +0.000 A 
ATOM     17  C   UNL     1       7.524  -5.324  22.941  0.00  0.00    +0.001 A 
ATOM     18  C   UNL     1       7.079  -4.337  23.832  0.00  0.00    +0.008 A 
ENDBRANCH   4  13
BRANCH   5  19
ATOM     19  C   UNL     1       3.496  -3.622  25.376  0.00  0.00    +0.251 C 
ATOM     20  N   UNL     1       3.934  -4.850  25.844  0.00  0.00    -0.281 N 
ATOM     21  H   UNL     1       4.808  -4.867  26.344  0.00  0.00    +0.155 HD
ATOM     22  O   UNL     1       2.324  -3.404  25.092  0.00  0.00    -0.270 OA
BRANCH  20  23
ATOM     23  C   UNL     1       3.172  -6.051  25.838  0.00  0.00    +0.034 A 
ATOM     24  C   UNL     1       3.238  -6.906  24.730  0.00  0.00    +0.023 A 
ATOM     25  C   UNL     1       2.485  -8.093  24.687  0.00  0.00    +0.002 A 
ATOM     26  C   UNL     1       1.639  -8.423  25.737  0.00  0.00    +0.000 A 
ATOM     27  C   UNL     1       1.544  -7.572  26.835  0.00  0.00    +0.002 A 
ATOM     28  C   UNL     1       2.313  -6.407  26.886  0.00  0.00    +0.023 A 
ENDBRANCH  20  23
ENDBRANCH   5  19
BRANCH   1  30
ATOM     29  C   UNL     1       4.221  -1.130  28.616  0.00  0.00    +0.014 C 
ATOM     30  C   UNL     1       3.440  -1.097  27.290  0.00  0.00    +0.030 C 
ATOM     31  C   UNL     1       2.462   0.064  27.324  0.00  0.00    +0.014 C 
ENDBRANCH   1  30
BRANCH   2  32
ATOM     32  C   UNL     1       5.430   0.994  25.866  0.00  0.00    +0.124 C 
BRANCH  32  33
ATOM     33  C   UNL     1       6.491   1.422  26.888  0.00  0.00    +0.053 C 
BRANCH  33  34
ATOM     34  C   UNL     1       6.947   2.876  26.787  0.00  0.00    +0.119 C 
BRANCH  34  35
ATOM     35  O   UNL     1       7.573   3.219  28.025  0.00  0.00    -0.392 OA
ATOM     36  H   UNL     1       8.373   2.651  28.075  0.00  0.00    +0.210 HD
ENDBRANCH  34  35
BRANCH  34  37
ATOM     37  C   UNL     1       7.949   2.980  25.622  0.00  0.00    +0.063 C 
BRANCH  37  38
ATOM     38  C   UNL     1       8.103   4.393  25.049  0.00  0.00    +0.122 C 
BRANCH  38  39
ATOM     39  O   UNL     1       8.638   5.235  26.093  0.00  0.00    -0.391 OA
ATOM     40  H   UNL     1       8.809   6.103  25.685  0.00  0.00    +0.210 HD
ENDBRANCH  38  39
BRANCH  38  41
ATOM     41  C   UNL     1       9.053   4.423  23.856  0.00  0.00    +0.083 C 
BRANCH  41  42
ATOM     42  C   UNL     1       9.902   5.687  23.752  0.00  0.00    +0.044 C 
ATOM     43  O   UNL     1       9.262   6.711  23.383  0.00  0.00    -0.550 OA
ATOM     44  O   UNL     1      11.121   5.560  24.044  0.00  0.00    -0.550 OA
ENDBRANCH  41  42
ENDBRANCH  38  41
ENDBRANCH  37  38
ENDBRANCH  34  37
ENDBRANCH  33  34
ENDBRANCH  32  33
ENDBRANCH   2  32
TORSDOF 14
ENDMDL
MODEL 9
REMARK VINA RESULT:      -6.0      2.854      5.300
REMARK  Name = 
REMARK  16 active torsions:
REMARK  status: ('A' for Active; 'I' for Inactive)
REMARK    1  A    between atoms: C_1  and  C_2
REMARK    2  A    between atoms: C_2  and  C_3
REMARK    3  A    between atoms: C_2  and  C_4
REMARK    4  A    between atoms: C_5  and  C_6
REMARK    5  A    between atoms: N_8  and  C_9
REMARK    6  A    between atoms: C_15  and  C_36
REMARK    7  A    between atoms: C_16  and  C_29
REMARK    8  A    between atoms: N_17  and  C_18
REMARK    9  A    between atoms: C_18  and  C_19
REMARK   10  A    between atoms: C_19  and  C_20
REMARK   11  A    between atoms: C_20  and  O_21
REMARK   12  A    between atoms: C_20  and  C_22
REMARK   13  A    between atoms: C_22  and  C_23
REMARK   14  A    between atoms: C_23  and  O_24
REMARK   15  A    between atoms: C_23  and  C_25
REMARK   16  A    between atoms: C_25  and  C_26
REMARK                            x       y       z     vdW  Elec       q    Type
REMARK                         _______ _______ _______ _____ _____    ______ ____
ROOT
ATOM      1  C   UNL     1       5.154  -0.339  26.160  0.00  0.00    +0.035 A 
ATOM      2  N   UNL     1       5.309  -1.620  25.604  0.00  0.00    -0.342 N 
ATOM      3  C   UNL     1       6.199  -1.587  24.505  0.00  0.00    +0.058 A 
ATOM      4  C   UNL     1       6.791  -0.304  24.522  0.00  0.00    +0.020 A 
ATOM      5  C   UNL     1       6.158   0.462  25.589  0.00  0.00    +0.066 A 
ENDROOT
BRANCH   3   6
ATOM      6  C   UNL     1       6.483  -2.773  23.604  0.00  0.00    -0.001 A 
ATOM      7  C   UNL     1       7.323  -3.838  23.995  0.00  0.00    +0.013 A 
ATOM      8  C   UNL     1       7.574  -4.936  23.150  0.00  0.00    +0.039 A 
ATOM      9  C   UNL     1       6.921  -5.032  21.932  0.00  0.00    +0.123 A 
ATOM     10  F   UNL     1       7.112  -6.110  21.156  0.00  0.00    -0.205 F 
ATOM     11  C   UNL     1       6.071  -4.021  21.518  0.00  0.00    +0.039 A 
ATOM     12  C   UNL     1       5.902  -2.880  22.323  0.00  0.00    +0.013 A 
ENDBRANCH   3   6
BRANCH   4  13
ATOM     13  C   UNL     1       7.871   0.123  23.590  0.00  0.00    -0.015 A 
ATOM     14  C   UNL     1       9.214  -0.232  23.799  0.00  0.00    +0.008 A 
ATOM     15  C   UNL     1      10.252   0.327  23.038  0.00  0.00    +0.001 A 
ATOM     16  C   UNL     1       9.960   1.145  21.954  0.00  0.00    +0.000 A 
ATOM     17  C   UNL     1       8.634   1.429  21.659  0.00  0.00    +0.001 A 
ATOM     18  C   UNL     1       7.611   0.960  22.495  0.00  0.00    +0.008 A 
ENDBRANCH   4  13
BRANCH   5  19
ATOM     19  C   UNL     1       6.554   1.816  26.077  0.00  0.00    +0.251 C 
ATOM     20  N   UNL     1       6.247   2.910  25.285  0.00  0.00    -0.281 N 
ATOM     21  H   UNL     1       5.574   2.771  24.549  0.00  0.00    +0.155 HD
ATOM     22  O   UNL     1       7.050   1.928  27.192  0.00  0.00    -0.270 OA
BRANCH  20  23
ATOM     23  C   UNL     1       6.659   4.249  25.536  0.00  0.00    +0.034 A 
ATOM     24  C   UNL     1       5.724   5.184  25.999  0.00  0.00    +0.023 A 
ATOM     25  C   UNL     1       6.096   6.518  26.241  0.00  0.00    +0.002 A 
ATOM     26  C   UNL     1       7.397   6.937  25.997  0.00  0.00    +0.000 A 
ATOM     27  C   UNL     1       8.332   6.026  25.513  0.00  0.00    +0.002 A 
ATOM     28  C   UNL     1       7.966   4.695  25.299  0.00  0.00    +0.023 A 
ENDBRANCH  20  23
ENDBRANCH   5  19
BRANCH   1  30
ATOM     29  C   UNL     1       4.695  -0.032  28.632  0.00  0.00    +0.014 C 
ATOM     30  C   UNL     1       4.124   0.130  27.212  0.00  0.00    +0.030 C 
ATOM     31  C   UNL     1       3.432   1.477  27.111  0.00  0.00    +0.014 C 
ENDBRANCH   1  30
BRANCH   2  32
ATOM     32  C   UNL     1       4.635  -2.831  26.057  0.00  0.00    +0.124 C 
BRANCH  32  33
ATOM     33  C   UNL     1       3.382  -3.289  25.300  0.00  0.00    +0.053 C 
BRANCH  33  34
ATOM     34  C   UNL     1       3.563  -4.528  24.426  0.00  0.00    +0.119 C 
BRANCH  34  35
ATOM     35  O   UNL     1       4.375  -5.454  25.151  0.00  0.00    -0.392 OA
ATOM     36  H   UNL     1       4.299  -5.181  26.092  0.00  0.00    +0.210 HD
ENDBRANCH  34  35
BRANCH  34  37
ATOM     37  C   UNL     1       2.169  -5.125  24.152  0.00  0.00    +0.063 C 
BRANCH  37  38
ATOM     38  C   UNL     1       2.124  -6.108  22.978  0.00  0.00    +0.122 C 
BRANCH  38  39
ATOM     39  O   UNL     1       3.477  -6.290  22.505  0.00  0.00    -0.391 OA
ATOM     40  H   UNL     1       3.546  -5.787  21.673  0.00  0.00    +0.210 HD
ENDBRANCH  38  39
BRANCH  38  41
ATOM     41  C   UNL     1       1.561  -7.464  23.392  0.00  0.00    +0.083 C 
BRANCH  41  42
ATOM     42  C   UNL     1       2.153  -8.031  24.679  0.00  0.00    +0.044 C 
ATOM     43  O   UNL     1       3.396  -8.250  24.626  0.00  0.00    -0.550 OA
ATOM     44  O   UNL     1       1.344  -8.209  25.629  0.00  0.00    -0.550 OA
ENDBRANCH  41  42
ENDBRANCH  38  41
ENDBRANCH  37  38
ENDBRANCH  34  37
ENDBRANCH  33  34
ENDBRANCH  32  33
ENDBRANCH   2  32
TORSDOF 14
ENDMDL
