MODEL 1
REMARK VINA RESULT:      -7.2      0.000      0.000
REMARK  Name = 
REMARK  6 active torsions:
REMARK  status: ('A' for Active; 'I' for Inactive)
REMARK    1  A    between atoms: C_2  and  C_3
REMARK    2  A    between atoms: C_2  and  C_5
REMARK    3  A    between atoms: C_2  and  C_14
REMARK    4  A    between atoms: N_17  and  C_18
REMARK    5  A    between atoms: C_18  and  C_19
REMARK    6  A    between atoms: C_19  and  C_20
REMARK                            x       y       z     vdW  Elec       q    Type
REMARK                         _______ _______ _______ _____ _____    ______ ____
ROOT
ATOM      1  C   UNL     1       9.561  -0.584  24.527  0.00  0.00    +0.070 A 
ATOM      2  C   UNL     1       9.236   0.009  25.735  0.00  0.00    +0.045 A 
ATOM      3  C   UNL     1       8.662  -0.805  26.674  0.00  0.00    +0.116 A 
ATOM      4  N   UNL     1       8.383  -2.098  26.454  0.00  0.00    -0.223 NA
ATOM      5  C   UNL     1       8.718  -2.609  25.263  0.00  0.00    +0.215 A 
ATOM      6  N   UNL     1       8.405  -3.933  24.970  0.00  0.00    -0.313 N 
ATOM      7  H   UNL     1       9.280  -4.443  25.031  0.00  0.00    +0.149 HD
ATOM      8  N   UNL     1       9.333  -1.904  24.301  0.00  0.00    -0.218 NA
ENDROOT
BRANCH   1   9
ATOM      9  C   UNL     1      10.183   0.224  23.393  0.00  0.00    +0.195 C 
BRANCH   9  10
ATOM     10  C   UNL     1       9.781   1.678  23.468  0.00  0.00    +0.102 A 
ATOM     11  S   UNL     1       8.170   2.156  23.100  0.00  0.00    -0.070 S 
ATOM     12  C   UNL     1       8.615   3.811  23.270  0.00  0.00    +0.039 A 
ATOM     13  C   UNL     1       7.835   4.965  23.085  0.00  0.00    +0.017 A 
ATOM     14  C   UNL     1       8.444   6.212  23.267  0.00  0.00    +0.001 A 
ATOM     15  C   UNL     1       9.782   6.306  23.636  0.00  0.00    +0.002 A 
ATOM     16  C   UNL     1      10.546   5.152  23.829  0.00  0.00    +0.029 A 
ATOM     17  C   UNL     1       9.958   3.885  23.638  0.00  0.00    +0.079 A 
ATOM     18  N   UNL     1      10.603   2.667  23.765  0.00  0.00    -0.242 NA
ENDBRANCH   9  10
BRANCH   9  19
ATOM     19  C   UNL     1       9.822  -0.324  22.070  0.00  0.00    +0.079 C 
ATOM     20  N   UNL     1       9.520  -0.757  21.032  0.00  0.00    -0.195 NA
ENDBRANCH   9  19
ENDBRANCH   1   9
BRANCH   6  21
ATOM     21  C   UNL     1       7.348  -4.513  25.801  0.00  0.00    +0.109 C 
BRANCH  21  22
ATOM     22  C   UNL     1       5.984  -4.343  25.113  0.00  0.00    +0.055 C 
BRANCH  22  23
ATOM     23  C   UNL     1       6.000  -4.660  23.645  0.00  0.00    -0.028 A 
ATOM     24  C   UNL     1       5.672  -3.695  22.698  0.00  0.00    +0.114 A 
ATOM     25  N   UNL     1       5.715  -3.900  21.362  0.00  0.00    -0.263 NA
ATOM     26  C   UNL     1       6.105  -5.125  20.950  0.00  0.00    +0.111 A 
ATOM     27  C   UNL     1       6.437  -6.158  21.810  0.00  0.00    +0.020 A 
ATOM     28  C   UNL     1       6.377  -5.921  23.179  0.00  0.00    +0.006 A 
ENDBRANCH  22  23
ENDBRANCH  21  22
ENDBRANCH   6  21
TORSDOF 6
ENDMDL
MODEL 2
REMARK VINA RESULT:      -7.1      2.373      3.833
REMARK  Name = 
REMARK  6 active torsions:
REMARK  status: ('A' for Active; 'I' for Inactive)
REMARK    1  A    between atoms: C_2  and  C_3
REMARK    2  A    between atoms: C_2  and  C_5
REMARK    3  A    between atoms: C_2  and  C_14
REMARK    4  A    between atoms: N_17  and  C_18
REMARK    5  A    between atoms: C_18  and  C_19
REMARK    6  A    between atoms: C_19  and  C_20
REMARK                            x       y       z     vdW  Elec       q    Type
REMARK                         _______ _______ _______ _____ _____    ______ ____
ROOT
ATOM      1  C   UNL     1       7.363  -3.370  26.204  0.00  0.00    +0.070 A 
ATOM      2  C   UNL     1       6.444  -2.377  26.494  0.00  0.00    +0.045 A 
ATOM      3  C   UNL     1       5.142  -2.777  26.632  0.00  0.00    +0.116 A 
ATOM      4  N   UNL     1       4.743  -4.047  26.466  0.00  0.00    -0.223 NA
ATOM      5  C   UNL     1       5.681  -4.958  26.183  0.00  0.00    +0.215 A 
ATOM      6  N   UNL     1       5.309  -6.280  25.954  0.00  0.00    -0.313 N 
ATOM      7  H   UNL     1       5.578  -6.791  26.788  0.00  0.00    +0.149 HD
ATOM      8  N   UNL     1       6.988  -4.670  26.082  0.00  0.00    -0.218 NA
ENDROOT
BRANCH   1   9
ATOM      9  C   UNL     1       8.839  -3.045  26.002  0.00  0.00    +0.195 C 
BRANCH   9  10
ATOM     10  C   UNL     1       9.023  -1.872  25.069  0.00  0.00    +0.102 A 
ATOM     11  S   UNL     1       8.834  -2.073  23.370  0.00  0.00    -0.070 S 
ATOM     12  C   UNL     1       9.329  -0.443  23.115  0.00  0.00    +0.039 A 
ATOM     13  C   UNL     1       9.504   0.255  21.909  0.00  0.00    +0.017 A 
ATOM     14  C   UNL     1       9.939   1.583  21.969  0.00  0.00    +0.001 A 
ATOM     15  C   UNL     1      10.179   2.201  23.192  0.00  0.00    +0.002 A 
ATOM     16  C   UNL     1       9.991   1.501  24.388  0.00  0.00    +0.029 A 
ATOM     17  C   UNL     1       9.567   0.158  24.351  0.00  0.00    +0.079 A 
ATOM     18  N   UNL     1       9.371  -0.658  25.452  0.00  0.00    -0.242 NA
ENDBRANCH   9  10
BRANCH   9  19
ATOM     19  C   UNL     1       9.590  -4.210  25.490  0.00  0.00    +0.079 C 
ATOM     20  N   UNL     1      10.167  -5.136  25.084  0.00  0.00    -0.195 NA
ENDBRANCH   9  19
ENDBRANCH   1   9
BRANCH   6  21
ATOM     21  C   UNL     1       3.901  -6.470  25.598  0.00  0.00    +0.109 C 
BRANCH  21  22
ATOM     22  C   UNL     1       3.775  -6.793  24.100  0.00  0.00    +0.055 C 
BRANCH  22  23
ATOM     23  C   UNL     1       4.621  -5.922  23.217  0.00  0.00    -0.028 A 
ATOM     24  C   UNL     1       4.293  -4.588  22.999  0.00  0.00    +0.114 A 
ATOM     25  N   UNL     1       5.039  -3.737  22.256  0.00  0.00    -0.263 NA
ATOM     26  C   UNL     1       6.165  -4.240  21.708  0.00  0.00    +0.111 A 
ATOM     27  C   UNL     1       6.571  -5.556  21.851  0.00  0.00    +0.020 A 
ATOM     28  C   UNL     1       5.781  -6.410  22.614  0.00  0.00    +0.006 A 
ENDBRANCH  22  23
ENDBRANCH  21  22
ENDBRANCH   6  21
TORSDOF 6
ENDMDL
MODEL 3
REMARK VINA RESULT:      -7.1      1.734      2.226
REMARK  Name = 
REMARK  6 active torsions:
REMARK  status: ('A' for Active; 'I' for Inactive)
REMARK    1  A    between atoms: C_2  and  C_3
REMARK    2  A    between atoms: C_2  and  C_5
REMARK    3  A    between atoms: C_2  and  C_14
REMARK    4  A    between atoms: N_17  and  C_18
REMARK    5  A    between atoms: C_18  and  C_19
REMARK    6  A    between atoms: C_19  and  C_20
REMARK                            x       y       z     vdW  Elec       q    Type
REMARK                         _______ _______ _______ _____ _____    ______ ____
ROOT
ATOM      1  C   UNL     1       8.037   0.151  24.565  0.00  0.00    +0.070 A 
ATOM      2  C   UNL     1       7.964   0.349  25.933  0.00  0.00    +0.045 A 
ATOM      3  C   UNL     1       8.333  -0.710  26.718  0.00  0.00    +0.116 A 
ATOM      4  N   UNL     1       8.714  -1.896  26.222  0.00  0.00    -0.223 NA
ATOM      5  C   UNL     1       8.759  -2.022  24.890  0.00  0.00    +0.215 A 
ATOM      6  N   UNL     1       9.102  -3.249  24.327  0.00  0.00    -0.313 N 
ATOM      7  H   UNL     1      10.052  -3.140  23.988  0.00  0.00    +0.149 HD
ATOM      8  N   UNL     1       8.469  -1.025  24.040  0.00  0.00    -0.218 NA
ENDROOT
BRANCH   1   9
ATOM      9  C   UNL     1       7.629   1.247  23.586  0.00  0.00    +0.195 C 
BRANCH   9  10
ATOM     10  C   UNL     1       8.638   2.372  23.567  0.00  0.00    +0.102 A 
ATOM     11  S   UNL     1      10.225   2.108  22.957  0.00  0.00    -0.070 S 
ATOM     12  C   UNL     1      10.676   3.704  23.421  0.00  0.00    +0.039 A 
ATOM     13  C   UNL     1      11.922   4.344  23.311  0.00  0.00    +0.017 A 
ATOM     14  C   UNL     1      12.038   5.654  23.787  0.00  0.00    +0.001 A 
ATOM     15  C   UNL     1      10.944   6.313  24.340  0.00  0.00    +0.002 A 
ATOM     16  C   UNL     1       9.705   5.672  24.434  0.00  0.00    +0.029 A 
ATOM     17  C   UNL     1       9.568   4.346  23.974  0.00  0.00    +0.079 A 
ATOM     18  N   UNL     1       8.413   3.585  24.033  0.00  0.00    -0.242 NA
ENDBRANCH   9  10
BRANCH   9  19
ATOM     19  C   UNL     1       6.290   1.786  23.897  0.00  0.00    +0.079 C 
ATOM     20  N   UNL     1       5.229   2.194  24.148  0.00  0.00    -0.195 NA
ENDBRANCH   9  19
ENDBRANCH   1   9
BRANCH   6  21
ATOM     21  C   UNL     1       8.943  -4.400  25.218  0.00  0.00    +0.109 C 
BRANCH  21  22
ATOM     22  C   UNL     1       7.506  -4.941  25.127  0.00  0.00    +0.055 C 
BRANCH  22  23
ATOM     23  C   UNL     1       6.970  -5.012  23.727  0.00  0.00    -0.028 A 
ATOM     24  C   UNL     1       5.893  -4.227  23.329  0.00  0.00    +0.114 A 
ATOM     25  N   UNL     1       5.394  -4.207  22.071  0.00  0.00    -0.263 NA
ATOM     26  C   UNL     1       6.000  -5.005  21.167  0.00  0.00    +0.111 A 
ATOM     27  C   UNL     1       7.068  -5.836  21.465  0.00  0.00    +0.020 A 
ATOM     28  C   UNL     1       7.555  -5.841  22.768  0.00  0.00    +0.006 A 
ENDBRANCH  22  23
ENDBRANCH  21  22
ENDBRANCH   6  21
TORSDOF 6
ENDMDL
MODEL 4
REMARK VINA RESULT:      -7.1      3.008      8.353
REMARK  Name = 
REMARK  6 active torsions:
REMARK  status: ('A' for Active; 'I' for Inactive)
REMARK    1  A    between atoms: C_2  and  C_3
REMARK    2  A    between atoms: C_2  and  C_5
REMARK    3  A    between atoms: C_2  and  C_14
REMARK    4  A    between atoms: N_17  and  C_18
REMARK    5  A    between atoms: C_18  and  C_19
REMARK    6  A    between atoms: C_19  and  C_20
REMARK                            x       y       z     vdW  Elec       q    Type
REMARK                         _______ _______ _______ _____ _____    ______ ____
ROOT
ATOM      1  C   UNL     1       7.554  -3.874  25.277  0.00  0.00    +0.070 A 
ATOM      2  C   UNL     1       7.801  -2.978  26.303  0.00  0.00    +0.045 A 
ATOM      3  C   UNL     1       8.390  -1.795  25.945  0.00  0.00    +0.116 A 
ATOM      4  N   UNL     1       8.751  -1.505  24.686  0.00  0.00    -0.223 NA
ATOM      5  C   UNL     1       8.487  -2.417  23.742  0.00  0.00    +0.215 A 
ATOM      6  N   UNL     1       8.888  -2.182  22.429  0.00  0.00    -0.313 N 
ATOM      7  H   UNL     1       8.042  -1.941  21.923  0.00  0.00    +0.149 HD
ATOM      8  N   UNL     1       7.866  -3.580  23.988  0.00  0.00    -0.218 NA
ENDROOT
BRANCH   1   9
ATOM      9  C   UNL     1       6.925  -5.236  25.553  0.00  0.00    +0.195 C 
BRANCH   9  10
ATOM     10  C   UNL     1       5.479  -5.274  25.116  0.00  0.00    +0.102 A 
ATOM     11  S   UNL     1       4.993  -6.275  23.804  0.00  0.00    -0.070 S 
ATOM     12  C   UNL     1       3.397  -5.633  23.897  0.00  0.00    +0.039 A 
ATOM     13  C   UNL     1       2.281  -5.905  23.090  0.00  0.00    +0.017 A 
ATOM     14  C   UNL     1       1.086  -5.229  23.361  0.00  0.00    +0.001 A 
ATOM     15  C   UNL     1       1.002  -4.322  24.412  0.00  0.00    +0.002 A 
ATOM     16  C   UNL     1       2.116  -4.066  25.218  0.00  0.00    +0.029 A 
ATOM     17  C   UNL     1       3.334  -4.725  24.954  0.00  0.00    +0.079 A 
ATOM     18  N   UNL     1       4.518  -4.546  25.649  0.00  0.00    -0.242 NA
ENDBRANCH   9  10
BRANCH   9  19
ATOM     19  C   UNL     1       7.023  -5.604  26.980  0.00  0.00    +0.079 C 
ATOM     20  N   UNL     1       7.097  -5.910  28.100  0.00  0.00    -0.195 NA
ENDBRANCH   9  19
ENDBRANCH   1   9
BRANCH   6  21
ATOM     21  C   UNL     1       9.948  -1.183  22.279  0.00  0.00    +0.109 C 
BRANCH  21  22
ATOM     22  C   UNL     1       9.473  -0.048  21.356  0.00  0.00    +0.055 C 
BRANCH  22  23
ATOM     23  C   UNL     1       9.309   1.272  22.052  0.00  0.00    -0.028 A 
ATOM     24  C   UNL     1       8.189   2.067  21.830  0.00  0.00    +0.114 A 
ATOM     25  N   UNL     1       7.957   3.241  22.461  0.00  0.00    -0.263 NA
ATOM     26  C   UNL     1       8.883   3.641  23.357  0.00  0.00    +0.111 A 
ATOM     27  C   UNL     1      10.040   2.932  23.639  0.00  0.00    +0.020 A 
ATOM     28  C   UNL     1      10.256   1.732  22.970  0.00  0.00    +0.006 A 
ENDBRANCH  22  23
ENDBRANCH  21  22
ENDBRANCH   6  21
TORSDOF 6
ENDMDL
MODEL 5
REMARK VINA RESULT:      -7.0      2.191      3.642
REMARK  Name = 
REMARK  6 active torsions:
REMARK  status: ('A' for Active; 'I' for Inactive)
REMARK    1  A    between atoms: C_2  and  C_3
REMARK    2  A    between atoms: C_2  and  C_5
REMARK    3  A    between atoms: C_2  and  C_14
REMARK    4  A    between atoms: N_17  and  C_18
REMARK    5  A    between atoms: C_18  and  C_19
REMARK    6  A    between atoms: C_19  and  C_20
REMARK                            x       y       z     vdW  Elec       q    Type
REMARK                         _______ _______ _______ _____ _____    ______ ____
ROOT
ATOM      1  C   UNL     1       8.227   0.708  22.472  0.00  0.00    +0.070 A 
ATOM      2  C   UNL     1       9.110   0.382  21.456  0.00  0.00    +0.045 A 
ATOM      3  C   UNL     1       9.599  -0.896  21.466  0.00  0.00    +0.116 A 
ATOM      4  N   UNL     1       9.287  -1.795  22.412  0.00  0.00    -0.223 NA
ATOM      5  C   UNL     1       8.431  -1.415  23.368  0.00  0.00    +0.215 A 
ATOM      6  N   UNL     1       8.116  -2.296  24.398  0.00  0.00    -0.313 N 
ATOM      7  H   UNL     1       7.179  -2.631  24.197  0.00  0.00    +0.149 HD
ATOM      8  N   UNL     1       7.859  -0.202  23.411  0.00  0.00    -0.218 NA
ENDROOT
BRANCH   1   9
ATOM      9  C   UNL     1       7.634   2.109  22.582  0.00  0.00    +0.195 C 
BRANCH   9  10
ATOM     10  C   UNL     1       8.649   3.097  23.108  0.00  0.00    +0.102 A 
ATOM     11  S   UNL     1       8.134   4.510  23.946  0.00  0.00    -0.070 S 
ATOM     12  C   UNL     1       9.763   5.065  24.023  0.00  0.00    +0.039 A 
ATOM     13  C   UNL     1      10.270   6.261  24.556  0.00  0.00    +0.017 A 
ATOM     14  C   UNL     1      11.648   6.490  24.478  0.00  0.00    +0.001 A 
ATOM     15  C   UNL     1      12.496   5.550  23.901  0.00  0.00    +0.002 A 
ATOM     16  C   UNL     1      11.983   4.356  23.384  0.00  0.00    +0.029 A 
ATOM     17  C   UNL     1      10.596   4.111  23.439  0.00  0.00    +0.079 A 
ATOM     18  N   UNL     1       9.953   2.991  22.941  0.00  0.00    -0.242 NA
ENDBRANCH   9  10
BRANCH   9  19
ATOM     19  C   UNL     1       6.432   2.126  23.441  0.00  0.00    +0.079 C 
ATOM     20  N   UNL     1       5.475   2.142  24.103  0.00  0.00    -0.195 NA
ENDBRANCH   9  19
ENDBRANCH   1   9
BRANCH   6  21
ATOM     21  C   UNL     1       9.079  -3.381  24.597  0.00  0.00    +0.109 C 
BRANCH  21  22
ATOM     22  C   UNL     1       8.402  -4.739  24.347  0.00  0.00    +0.055 C 
BRANCH  22  23
ATOM     23  C   UNL     1       7.512  -5.189  25.469  0.00  0.00    -0.028 A 
ATOM     24  C   UNL     1       7.999  -5.313  26.767  0.00  0.00    +0.114 A 
ATOM     25  N   UNL     1       7.239  -5.665  27.830  0.00  0.00    -0.263 NA
ATOM     26  C   UNL     1       5.933  -5.903  27.588  0.00  0.00    +0.111 A 
ATOM     27  C   UNL     1       5.354  -5.823  26.332  0.00  0.00    +0.020 A 
ATOM     28  C   UNL     1       6.161  -5.466  25.256  0.00  0.00    +0.006 A 
ENDBRANCH  22  23
ENDBRANCH  21  22
ENDBRANCH   6  21
TORSDOF 6
ENDMDL
MODEL 6
REMARK VINA RESULT:      -7.0      2.155      8.847
REMARK  Name = 
REMARK  6 active torsions:
REMARK  status: ('A' for Active; 'I' for Inactive)
REMARK    1  A    between atoms: C_2  and  C_3
REMARK    2  A    between atoms: C_2  and  C_5
REMARK    3  A    between atoms: C_2  and  C_14
REMARK    4  A    between atoms: N_17  and  C_18
REMARK    5  A    between atoms: C_18  and  C_19
REMARK    6  A    between atoms: C_19  and  C_20
REMARK                            x       y       z     vdW  Elec       q    Type
REMARK                         _______ _______ _______ _____ _____    ______ ____
ROOT
ATOM      1  C   UNL     1       8.935  -0.226  25.260  0.00  0.00    +0.070 A 
ATOM      2  C   UNL     1      10.198  -0.359  24.710  0.00  0.00    +0.045 A 
ATOM      3  C   UNL     1      10.714   0.753  24.101  0.00  0.00    +0.116 A 
ATOM      4  N   UNL     1      10.043   1.910  23.995  0.00  0.00    -0.223 NA
ATOM      5  C   UNL     1       8.825   1.971  24.545  0.00  0.00    +0.215 A 
ATOM      6  N   UNL     1       8.071   3.134  24.418  0.00  0.00    -0.313 N 
ATOM      7  H   UNL     1       8.108   3.586  25.326  0.00  0.00    +0.149 HD
ATOM      8  N   UNL     1       8.259   0.951  25.209  0.00  0.00    -0.218 NA
ENDROOT
BRANCH   1   9
ATOM      9  C   UNL     1       8.244  -1.401  25.944  0.00  0.00    +0.195 C 
BRANCH   9  10
ATOM     10  C   UNL     1       7.812  -2.446  24.942  0.00  0.00    +0.102 A 
ATOM     11  S   UNL     1       8.463  -4.038  25.008  0.00  0.00    -0.070 S 
ATOM     12  C   UNL     1       7.626  -4.448  23.560  0.00  0.00    +0.039 A 
ATOM     13  C   UNL     1       7.640  -5.651  22.836  0.00  0.00    +0.017 A 
ATOM     14  C   UNL     1       6.880  -5.728  21.664  0.00  0.00    +0.001 A 
ATOM     15  C   UNL     1       6.119  -4.645  21.234  0.00  0.00    +0.002 A 
ATOM     16  C   UNL     1       6.103  -3.455  21.969  0.00  0.00    +0.029 A 
ATOM     17  C   UNL     1       6.872  -3.351  23.145  0.00  0.00    +0.079 A 
ATOM     18  N   UNL     1       6.972  -2.228  23.949  0.00  0.00    -0.242 NA
ENDBRANCH   9  10
BRANCH   9  19
ATOM     19  C   UNL     1       7.079  -0.963  26.738  0.00  0.00    +0.079 C 
ATOM     20  N   UNL     1       6.152  -0.613  27.349  0.00  0.00    -0.195 NA
ENDBRANCH   9  19
ENDBRANCH   1   9
BRANCH   6  21
ATOM     21  C   UNL     1       8.481   4.017  23.324  0.00  0.00    +0.109 C 
BRANCH  21  22
ATOM     22  C   UNL     1       8.513   5.476  23.809  0.00  0.00    +0.055 C 
BRANCH  22  23
ATOM     23  C   UNL     1       9.850   5.911  24.336  0.00  0.00    -0.028 A 
ATOM     24  C   UNL     1      11.025   5.598  23.660  0.00  0.00    +0.114 A 
ATOM     25  N   UNL     1      12.255   6.002  24.054  0.00  0.00    -0.263 NA
ATOM     26  C   UNL     1      12.316   6.755  25.172  0.00  0.00    +0.111 A 
ATOM     27  C   UNL     1      11.209   7.107  25.925  0.00  0.00    +0.020 A 
ATOM     28  C   UNL     1       9.958   6.673  25.501  0.00  0.00    +0.006 A 
ENDBRANCH  22  23
ENDBRANCH  21  22
ENDBRANCH   6  21
TORSDOF 6
ENDMDL
MODEL 7
REMARK VINA RESULT:      -7.0      2.800      4.890
REMARK  Name = 
REMARK  6 active torsions:
REMARK  status: ('A' for Active; 'I' for Inactive)
REMARK    1  A    between atoms: C_2  and  C_3
REMARK    2  A    between atoms: C_2  and  C_5
REMARK    3  A    between atoms: C_2  and  C_14
REMARK    4  A    between atoms: N_17  and  C_18
REMARK    5  A    between atoms: C_18  and  C_19
REMARK    6  A    between atoms: C_19  and  C_20
REMARK                            x       y       z     vdW  Elec       q    Type
REMARK                         _______ _______ _______ _____ _____    ______ ____
ROOT
ATOM      1  C   UNL     1       7.681  -4.674  24.138  0.00  0.00    +0.070 A 
ATOM      2  C   UNL     1       8.689  -4.436  25.057  0.00  0.00    +0.045 A 
ATOM      3  C   UNL     1       8.490  -4.933  26.317  0.00  0.00    +0.116 A 
ATOM      4  N   UNL     1       7.377  -5.587  26.682  0.00  0.00    -0.223 NA
ATOM      5  C   UNL     1       6.439  -5.779  25.747  0.00  0.00    +0.215 A 
ATOM      6  N   UNL     1       5.246  -6.409  26.090  0.00  0.00    -0.313 N 
ATOM      7  H   UNL     1       5.308  -7.346  25.705  0.00  0.00    +0.149 HD
ATOM      8  N   UNL     1       6.568  -5.377  24.473  0.00  0.00    -0.218 NA
ENDROOT
BRANCH   1   9
ATOM      9  C   UNL     1       7.775  -4.149  22.710  0.00  0.00    +0.195 C 
BRANCH   9  10
ATOM     10  C   UNL     1       7.954  -2.648  22.684  0.00  0.00    +0.102 A 
ATOM     11  S   UNL     1       6.690  -1.613  23.225  0.00  0.00    -0.070 S 
ATOM     12  C   UNL     1       7.604  -0.235  22.740  0.00  0.00    +0.039 A 
ATOM     13  C   UNL     1       7.258   1.125  22.795  0.00  0.00    +0.017 A 
ATOM     14  C   UNL     1       8.178   2.063  22.314  0.00  0.00    +0.001 A 
ATOM     15  C   UNL     1       9.410   1.659  21.808  0.00  0.00    +0.002 A 
ATOM     16  C   UNL     1       9.749   0.304  21.768  0.00  0.00    +0.029 A 
ATOM     17  C   UNL     1       8.832  -0.660  22.234  0.00  0.00    +0.079 A 
ATOM     18  N   UNL     1       9.025  -2.030  22.226  0.00  0.00    -0.242 NA
ENDBRANCH   9  10
BRANCH   9  19
ATOM     19  C   UNL     1       6.590  -4.522  21.912  0.00  0.00    +0.079 C 
ATOM     20  N   UNL     1       5.665  -4.815  21.268  0.00  0.00    -0.195 NA
ENDBRANCH   9  19
ENDBRANCH   1   9
BRANCH   6  21
ATOM     21  C   UNL     1       4.935  -6.400  27.521  0.00  0.00    +0.109 C 
BRANCH  21  22
ATOM     22  C   UNL     1       3.644  -5.603  27.773  0.00  0.00    +0.055 C 
BRANCH  22  23
ATOM     23  C   UNL     1       3.747  -4.149  27.412  0.00  0.00    -0.028 A 
ATOM     24  C   UNL     1       2.910  -3.586  26.454  0.00  0.00    +0.114 A 
ATOM     25  N   UNL     1       2.917  -2.276  26.118  0.00  0.00    -0.263 NA
ATOM     26  C   UNL     1       3.798  -1.488  26.770  0.00  0.00    +0.111 A 
ATOM     27  C   UNL     1       4.685  -1.953  27.728  0.00  0.00    +0.020 A 
ATOM     28  C   UNL     1       4.660  -3.306  28.047  0.00  0.00    +0.006 A 
ENDBRANCH  22  23
ENDBRANCH  21  22
ENDBRANCH   6  21
TORSDOF 6
ENDMDL
MODEL 8
REMARK VINA RESULT:      -6.9      1.889      3.367
REMARK  Name = 
REMARK  6 active torsions:
REMARK  status: ('A' for Active; 'I' for Inactive)
REMARK    1  A    between atoms: C_2  and  C_3
REMARK    2  A    between atoms: C_2  and  C_5
REMARK    3  A    between atoms: C_2  and  C_14
REMARK    4  A    between atoms: N_17  and  C_18
REMARK    5  A    between atoms: C_18  and  C_19
REMARK    6  A    between atoms: C_19  and  C_20
REMARK                            x       y       z     vdW  Elec       q    Type
REMARK                         _______ _______ _______ _____ _____    ______ ____
ROOT
ATOM      1  C   UNL     1       9.572   1.602  23.343  0.00  0.00    +0.070 A 
ATOM      2  C   UNL     1       9.787   1.381  21.993  0.00  0.00    +0.045 A 
ATOM      3  C   UNL     1       9.683   0.084  21.568  0.00  0.00    +0.116 A 
ATOM      4  N   UNL     1       9.424  -0.941  22.393  0.00  0.00    -0.223 NA
ATOM      5  C   UNL     1       9.231  -0.659  23.687  0.00  0.00    +0.215 A 
ATOM      6  N   UNL     1       9.008  -1.695  24.590  0.00  0.00    -0.313 N 
ATOM      7  H   UNL     1       8.018  -1.663  24.808  0.00  0.00    +0.149 HD
ATOM      8  N   UNL     1       9.260   0.586  24.187  0.00  0.00    -0.218 NA
ENDROOT
BRANCH   1   9
ATOM      9  C   UNL     1       9.685   3.001  23.941  0.00  0.00    +0.195 C 
BRANCH   9  10
ATOM     10  C   UNL     1       8.495   3.856  23.572  0.00  0.00    +0.102 A 
ATOM     11  S   UNL     1       8.627   5.571  23.558  0.00  0.00    -0.070 S 
ATOM     12  C   UNL     1       6.944   5.705  23.221  0.00  0.00    +0.039 A 
ATOM     13  C   UNL     1       6.154   6.858  23.080  0.00  0.00    +0.017 A 
ATOM     14  C   UNL     1       4.788   6.698  22.825  0.00  0.00    +0.001 A 
ATOM     15  C   UNL     1       4.228   5.430  22.700  0.00  0.00    +0.002 A 
ATOM     16  C   UNL     1       5.025   4.289  22.830  0.00  0.00    +0.029 A 
ATOM     17  C   UNL     1       6.402   4.426  23.102  0.00  0.00    +0.079 A 
ATOM     18  N   UNL     1       7.297   3.386  23.284  0.00  0.00    -0.242 NA
ENDBRANCH   9  10
BRANCH   9  19
ATOM     19  C   UNL     1      10.930   3.675  23.523  0.00  0.00    +0.079 C 
ATOM     20  N   UNL     1      11.911   4.199  23.177  0.00  0.00    -0.195 NA
ENDBRANCH   9  19
ENDBRANCH   1   9
BRANCH   6  21
ATOM     21  C   UNL     1       9.449  -3.015  24.134  0.00  0.00    +0.109 C 
BRANCH  21  22
ATOM     22  C   UNL     1       8.378  -4.069  24.457  0.00  0.00    +0.055 C 
BRANCH  22  23
ATOM     23  C   UNL     1       7.546  -4.474  23.275  0.00  0.00    -0.028 A 
ATOM     24  C   UNL     1       6.712  -3.560  22.638  0.00  0.00    +0.114 A 
ATOM     25  N   UNL     1       5.975  -3.846  21.539  0.00  0.00    -0.263 NA
ATOM     26  C   UNL     1       6.077  -5.100  21.051  0.00  0.00    +0.111 A 
ATOM     27  C   UNL     1       6.866  -6.087  21.620  0.00  0.00    +0.020 A 
ATOM     28  C   UNL     1       7.606  -5.767  22.753  0.00  0.00    +0.006 A 
ENDBRANCH  22  23
ENDBRANCH  21  22
ENDBRANCH   6  21
TORSDOF 6
ENDMDL
MODEL 9
REMARK VINA RESULT:      -6.8      2.211      3.179
REMARK  Name = 
REMARK  6 active torsions:
REMARK  status: ('A' for Active; 'I' for Inactive)
REMARK    1  A    between atoms: C_2  and  C_3
REMARK    2  A    between atoms: C_2  and  C_5
REMARK    3  A    between atoms: C_2  and  C_14
REMARK    4  A    between atoms: N_17  and  C_18
REMARK    5  A    between atoms: C_18  and  C_19
REMARK    6  A    between atoms: C_19  and  C_20
REMARK                            x       y       z     vdW  Elec       q    Type
REMARK                         _______ _______ _______ _____ _____    ______ ____
ROOT
ATOM      1  C   UNL     1       7.902   0.271  23.808  0.00  0.00    +0.070 A 
ATOM      2  C   UNL     1       8.353   0.170  25.113  0.00  0.00    +0.045 A 
ATOM      3  C   UNL     1       8.703  -1.083  25.538  0.00  0.00    +0.116 A 
ATOM      4  N   UNL     1       8.593  -2.177  24.769  0.00  0.00    -0.223 NA
ATOM      5  C   UNL     1       8.147  -2.011  23.519  0.00  0.00    +0.215 A 
ATOM      6  N   UNL     1       7.969  -3.122  22.699  0.00  0.00    -0.313 N 
ATOM      7  H   UNL     1       8.741  -3.105  22.040  0.00  0.00    +0.149 HD
ATOM      8  N   UNL     1       7.831  -0.816  22.997  0.00  0.00    -0.218 NA
ENDROOT
BRANCH   1   9
ATOM      9  C   UNL     1       7.460   1.610  23.228  0.00  0.00    +0.195 C 
BRANCH   9  10
ATOM     10  C   UNL     1       8.564   2.638  23.308  0.00  0.00    +0.102 A 
ATOM     11  S   UNL     1      10.148   2.259  22.751  0.00  0.00    -0.070 S 
ATOM     12  C   UNL     1      10.718   3.783  23.314  0.00  0.00    +0.039 A 
ATOM     13  C   UNL     1      12.019   4.310  23.289  0.00  0.00    +0.017 A 
ATOM     14  C   UNL     1      12.230   5.581  23.835  0.00  0.00    +0.001 A 
ATOM     15  C   UNL     1      11.176   6.310  24.376  0.00  0.00    +0.002 A 
ATOM     16  C   UNL     1       9.881   5.781  24.386  0.00  0.00    +0.029 A 
ATOM     17  C   UNL     1       9.648   4.497  23.854  0.00  0.00    +0.079 A 
ATOM     18  N   UNL     1       8.428   3.843  23.826  0.00  0.00    -0.242 NA
ENDBRANCH   9  10
BRANCH   9  19
ATOM     19  C   UNL     1       6.251   2.125  23.903  0.00  0.00    +0.079 C 
ATOM     20  N   UNL     1       5.299   2.545  24.425  0.00  0.00    -0.195 NA
ENDBRANCH   9  19
ENDBRANCH   1   9
BRANCH   6  21
ATOM     21  C   UNL     1       7.853  -4.398  23.409  0.00  0.00    +0.109 C 
BRANCH  21  22
ATOM     22  C   UNL     1       6.431  -4.961  23.251  0.00  0.00    +0.055 C 
BRANCH  22  23
ATOM     23  C   UNL     1       5.908  -5.645  24.481  0.00  0.00    -0.028 A 
ATOM     24  C   UNL     1       6.561  -5.521  25.704  0.00  0.00    +0.114 A 
ATOM     25  N   UNL     1       6.116  -6.070  26.858  0.00  0.00    -0.263 NA
ATOM     26  C   UNL     1       4.966  -6.773  26.790  0.00  0.00    +0.111 A 
ATOM     27  C   UNL     1       4.250  -6.970  25.621  0.00  0.00    +0.020 A 
ATOM     28  C   UNL     1       4.735  -6.400  24.448  0.00  0.00    +0.006 A 
ENDBRANCH  22  23
ENDBRANCH  21  22
ENDBRANCH   6  21
TORSDOF 6
ENDMDL
