MODEL 1
REMARK VINA RESULT:      -7.1      0.000      0.000
REMARK  Name = 
REMARK  12 active torsions:
REMARK  status: ('A' for Active; 'I' for Inactive)
REMARK    1  A    between atoms: C_2  and  N_3
REMARK    2  A    between atoms: C_2  and  C_21
REMARK    3  A    between atoms: C_2  and  P_24
REMARK    4  A    between atoms: N_3  and  S_4
REMARK    5  A    between atoms: S_4  and  C_7
REMARK    6  A    between atoms: C_10  and  C_13
REMARK    7  A    between atoms: C_16  and  O_17
REMARK    8  A    between atoms: O_17  and  C_18
REMARK    9  A    between atoms: C_21  and  C_22
REMARK   10  A    between atoms: C_21  and  C_23
REMARK   11  A    between atoms: P_24  and  O_25
REMARK   12  A    between atoms: P_24  and  O_26
REMARK                            x       y       z     vdW  Elec       q    Type
REMARK                         _______ _______ _______ _____ _____    ______ ____
ROOT
ATOM      1  S   UNL     1       8.911  -4.716  25.630  0.00  0.00    +0.059 S 
ATOM      2  O   UNL     1      10.206  -5.237  25.264  0.00  0.00    -0.153 OA
ATOM      3  O   UNL     1       8.445  -4.770  26.996  0.00  0.00    -0.153 OA
ENDROOT
BRANCH   1   4
ATOM      4  C   UNL     1       8.889  -2.999  25.139  0.00  0.00    +0.105 A 
ATOM      5  C   UNL     1       9.521  -2.587  23.967  0.00  0.00    +0.029 A 
ATOM      6  C   UNL     1       9.705  -1.212  23.715  0.00  0.00    +0.010 A 
ATOM      7  C   UNL     1       9.270  -0.218  24.617  0.00  0.00    -0.018 A 
ATOM      8  C   UNL     1       8.656  -0.669  25.799  0.00  0.00    +0.010 A 
ATOM      9  C   UNL     1       8.472  -2.034  26.061  0.00  0.00    +0.029 A 
BRANCH   7  10
ATOM     10  C   UNL     1       9.409   1.237  24.328  0.00  0.00    -0.018 A 
ATOM     11  C   UNL     1       8.520   2.175  24.884  0.00  0.00    +0.012 A 
ATOM     12  C   UNL     1       8.693   3.558  24.720  0.00  0.00    +0.046 A 
ATOM     13  C   UNL     1       9.772   4.049  23.995  0.00  0.00    +0.120 A 
ATOM     14  C   UNL     1      10.654   3.143  23.409  0.00  0.00    +0.046 A 
ATOM     15  C   UNL     1      10.465   1.759  23.558  0.00  0.00    +0.012 A 
BRANCH  13  16
ATOM     16  O   UNL     1      10.101   5.369  23.849  0.00  0.00    -0.495 OA
ATOM     17  C   UNL     1      11.482   5.659  23.670  0.00  0.00    +0.277 C 
ENDBRANCH  13  16
ENDBRANCH   7  10
ENDBRANCH   1   4
BRANCH   1  18
ATOM     18  N   UNL     1       7.808  -5.543  24.646  0.00  0.00    -0.175 NA
ATOM     19  H   UNL     1       7.914  -6.546  24.833  0.00  0.00    +0.149 HD
BRANCH  18  20
ATOM     20  C   UNL     1       6.396  -5.072  24.438  0.00  0.00    +0.192 C 
BRANCH  20  21
ATOM     21  C   UNL     1       6.112  -4.778  22.932  0.00  0.00    +0.013 C 
ATOM     22  C   UNL     1       7.044  -5.473  21.935  0.00  0.00    +0.009 C 
ATOM     23  C   UNL     1       6.033  -3.283  22.640  0.00  0.00    +0.009 C 
ENDBRANCH  20  21
BRANCH  20  24
ATOM     24  P   UNL     1       5.099  -6.147  25.138  0.00  0.00    +0.346 P 
ATOM     25  O   UNL     1       5.409  -6.808  26.440  0.00  0.00    -0.257 OA
BRANCH  24  26
ATOM     26  O   UNL     1       4.671  -7.188  23.994  0.00  0.00    -0.323 OA
ATOM     27  H   UNL     1       3.866  -7.708  24.163  0.00  0.00    +0.220 HD
ENDBRANCH  24  26
BRANCH  24  28
ATOM     28  O   UNL     1       3.787  -5.223  25.170  0.00  0.00    -0.323 OA
ATOM     29  H   UNL     1       3.146  -5.604  24.519  0.00  0.00    +0.220 HD
ENDBRANCH  24  28
ENDBRANCH  20  24
ENDBRANCH  18  20
ENDBRANCH   1  18
TORSDOF 9
ENDMDL
MODEL 2
REMARK VINA RESULT:      -7.1      1.132      1.937
REMARK  Name = 
REMARK  12 active torsions:
REMARK  status: ('A' for Active; 'I' for Inactive)
REMARK    1  A    between atoms: C_2  and  N_3
REMARK    2  A    between atoms: C_2  and  C_21
REMARK    3  A    between atoms: C_2  and  P_24
REMARK    4  A    between atoms: N_3  and  S_4
REMARK    5  A    between atoms: S_4  and  C_7
REMARK    6  A    between atoms: C_10  and  C_13
REMARK    7  A    between atoms: C_16  and  O_17
REMARK    8  A    between atoms: O_17  and  C_18
REMARK    9  A    between atoms: C_21  and  C_22
REMARK   10  A    between atoms: C_21  and  C_23
REMARK   11  A    between atoms: P_24  and  O_25
REMARK   12  A    between atoms: P_24  and  O_26
REMARK                            x       y       z     vdW  Elec       q    Type
REMARK                         _______ _______ _______ _____ _____    ______ ____
ROOT
ATOM      1  S   UNL     1       8.634  -4.473  25.205  0.00  0.00    +0.059 S 
ATOM      2  O   UNL     1       9.819  -5.219  24.853  0.00  0.00    -0.153 OA
ATOM      3  O   UNL     1       7.980  -4.673  26.477  0.00  0.00    -0.153 OA
ENDROOT
BRANCH   1   4
ATOM      4  C   UNL     1       9.067  -2.744  25.106  0.00  0.00    +0.105 A 
ATOM      5  C   UNL     1       8.607  -1.840  26.061  0.00  0.00    +0.029 A 
ATOM      6  C   UNL     1       8.750  -0.454  25.843  0.00  0.00    +0.010 A 
ATOM      7  C   UNL     1       9.348   0.065  24.676  0.00  0.00    -0.018 A 
ATOM      8  C   UNL     1       9.782  -0.873  23.723  0.00  0.00    +0.010 A 
ATOM      9  C   UNL     1       9.641  -2.254  23.928  0.00  0.00    +0.029 A 
BRANCH   7  10
ATOM     10  C   UNL     1       9.555   1.526  24.468  0.00  0.00    -0.018 A 
ATOM     11  C   UNL     1      10.677   2.007  23.769  0.00  0.00    +0.012 A 
ATOM     12  C   UNL     1      10.840   3.367  23.462  0.00  0.00    +0.046 A 
ATOM     13  C   UNL     1       9.876   4.292  23.841  0.00  0.00    +0.120 A 
ATOM     14  C   UNL     1       8.767   3.849  24.560  0.00  0.00    +0.046 A 
ATOM     15  C   UNL     1       8.618   2.491  24.883  0.00  0.00    +0.012 A 
BRANCH  13  16
ATOM     16  O   UNL     1       9.873   5.621  23.516  0.00  0.00    -0.495 OA
ATOM     17  C   UNL     1       8.604   6.261  23.485  0.00  0.00    +0.277 C 
ENDBRANCH  13  16
ENDBRANCH   7  10
ENDBRANCH   1   4
BRANCH   1  18
ATOM     18  N   UNL     1       7.525  -4.795  23.966  0.00  0.00    -0.175 NA
ATOM     19  H   UNL     1       7.870  -5.606  23.441  0.00  0.00    +0.149 HD
BRANCH  18  20
ATOM     20  C   UNL     1       6.039  -4.749  24.178  0.00  0.00    +0.192 C 
BRANCH  20  21
ATOM     21  C   UNL     1       5.447  -3.368  23.756  0.00  0.00    +0.013 C 
ATOM     22  C   UNL     1       6.206  -2.634  22.647  0.00  0.00    +0.009 C 
ATOM     23  C   UNL     1       5.222  -2.447  24.952  0.00  0.00    +0.009 C 
ENDBRANCH  20  21
BRANCH  20  24
ATOM     24  P   UNL     1       5.095  -6.111  23.414  0.00  0.00    +0.346 P 
ATOM     25  O   UNL     1       4.628  -7.196  24.327  0.00  0.00    -0.257 OA
BRANCH  24  26
ATOM     26  O   UNL     1       5.962  -6.661  22.180  0.00  0.00    -0.323 OA
ATOM     27  H   UNL     1       5.991  -6.096  21.388  0.00  0.00    +0.220 HD
ENDBRANCH  24  26
BRANCH  24  28
ATOM     28  O   UNL     1       3.913  -5.379  22.611  0.00  0.00    -0.323 OA
ATOM     29  H   UNL     1       3.064  -5.617  23.060  0.00  0.00    +0.220 HD
ENDBRANCH  24  28
ENDBRANCH  20  24
ENDBRANCH  18  20
ENDBRANCH   1  18
TORSDOF 9
ENDMDL
MODEL 3
REMARK VINA RESULT:      -6.9      1.863      2.555
REMARK  Name = 
REMARK  12 active torsions:
REMARK  status: ('A' for Active; 'I' for Inactive)
REMARK    1  A    between atoms: C_2  and  N_3
REMARK    2  A    between atoms: C_2  and  C_21
REMARK    3  A    between atoms: C_2  and  P_24
REMARK    4  A    between atoms: N_3  and  S_4
REMARK    5  A    between atoms: S_4  and  C_7
REMARK    6  A    between atoms: C_10  and  C_13
REMARK    7  A    between atoms: C_16  and  O_17
REMARK    8  A    between atoms: O_17  and  C_18
REMARK    9  A    between atoms: C_21  and  C_22
REMARK   10  A    between atoms: C_21  and  C_23
REMARK   11  A    between atoms: P_24  and  O_25
REMARK   12  A    between atoms: P_24  and  O_26
REMARK                            x       y       z     vdW  Elec       q    Type
REMARK                         _______ _______ _______ _____ _____    ______ ____
ROOT
ATOM      1  S   UNL     1       7.909  -4.764  23.672  0.00  0.00    +0.059 S 
ATOM      2  O   UNL     1       7.491  -5.253  22.381  0.00  0.00    -0.153 OA
ATOM      3  O   UNL     1       8.975  -5.410  24.403  0.00  0.00    -0.153 OA
ENDROOT
BRANCH   1   4
ATOM      4  C   UNL     1       8.390  -3.060  23.446  0.00  0.00    +0.105 A 
ATOM      5  C   UNL     1       9.596  -2.586  23.962  0.00  0.00    +0.029 A 
ATOM      6  C   UNL     1       9.851  -1.201  23.989  0.00  0.00    +0.010 A 
ATOM      7  C   UNL     1       8.921  -0.255  23.509  0.00  0.00    -0.018 A 
ATOM      8  C   UNL     1       7.706  -0.764  23.016  0.00  0.00    +0.010 A 
ATOM      9  C   UNL     1       7.440  -2.141  22.988  0.00  0.00    +0.029 A 
BRANCH   7  10
ATOM     10  C   UNL     1       9.211   1.206  23.481  0.00  0.00    -0.018 A 
ATOM     11  C   UNL     1       8.184   2.153  23.650  0.00  0.00    +0.012 A 
ATOM     12  C   UNL     1       8.444   3.530  23.739  0.00  0.00    +0.046 A 
ATOM     13  C   UNL     1       9.748   4.004  23.669  0.00  0.00    +0.120 A 
ATOM     14  C   UNL     1      10.784   3.091  23.474  0.00  0.00    +0.046 A 
ATOM     15  C   UNL     1      10.518   1.717  23.364  0.00  0.00    +0.012 A 
BRANCH  13  16
ATOM     16  O   UNL     1      10.134   5.305  23.841  0.00  0.00    -0.495 OA
ATOM     17  C   UNL     1       9.173   6.299  23.507  0.00  0.00    +0.277 C 
ENDBRANCH  13  16
ENDBRANCH   7  10
ENDBRANCH   1   4
BRANCH   1  18
ATOM     18  N   UNL     1       6.509  -4.779  24.626  0.00  0.00    -0.175 NA
ATOM     19  H   UNL     1       6.082  -5.707  24.539  0.00  0.00    +0.149 HD
BRANCH  18  20
ATOM     20  C   UNL     1       6.458  -4.171  25.999  0.00  0.00    +0.192 C 
BRANCH  20  21
ATOM     21  C   UNL     1       5.231  -3.219  26.154  0.00  0.00    +0.013 C 
ATOM     22  C   UNL     1       4.192  -3.292  25.031  0.00  0.00    +0.009 C 
ATOM     23  C   UNL     1       5.650  -1.774  26.405  0.00  0.00    +0.009 C 
ENDBRANCH  20  21
BRANCH  20  24
ATOM     24  P   UNL     1       6.529  -5.357  27.384  0.00  0.00    +0.346 P 
ATOM     25  O   UNL     1       6.032  -4.872  28.705  0.00  0.00    -0.257 OA
BRANCH  24  26
ATOM     26  O   UNL     1       8.028  -5.927  27.448  0.00  0.00    -0.323 OA
ATOM     27  H   UNL     1       8.141  -6.869  27.233  0.00  0.00    +0.220 HD
ENDBRANCH  24  26
BRANCH  24  28
ATOM     28  O   UNL     1       5.766  -6.659  26.836  0.00  0.00    -0.323 OA
ATOM     29  H   UNL     1       4.805  -6.430  26.775  0.00  0.00    +0.220 HD
ENDBRANCH  24  28
ENDBRANCH  20  24
ENDBRANCH  18  20
ENDBRANCH   1  18
TORSDOF 9
ENDMDL
MODEL 4
REMARK VINA RESULT:      -6.7      2.128      3.437
REMARK  Name = 
REMARK  12 active torsions:
REMARK  status: ('A' for Active; 'I' for Inactive)
REMARK    1  A    between atoms: C_2  and  N_3
REMARK    2  A    between atoms: C_2  and  C_21
REMARK    3  A    between atoms: C_2  and  P_24
REMARK    4  A    between atoms: N_3  and  S_4
REMARK    5  A    between atoms: S_4  and  C_7
REMARK    6  A    between atoms: C_10  and  C_13
REMARK    7  A    between atoms: C_16  and  O_17
REMARK    8  A    between atoms: O_17  and  C_18
REMARK    9  A    between atoms: C_21  and  C_22
REMARK   10  A    between atoms: C_21  and  C_23
REMARK   11  A    between atoms: P_24  and  O_25
REMARK   12  A    between atoms: P_24  and  O_26
REMARK                            x       y       z     vdW  Elec       q    Type
REMARK                         _______ _______ _______ _____ _____    ______ ____
ROOT
ATOM      1  S   UNL     1       5.966  -4.709  22.656  0.00  0.00    +0.059 S 
ATOM      2  O   UNL     1       4.569  -4.364  22.537  0.00  0.00    -0.153 OA
ATOM      3  O   UNL     1       6.660  -5.383  21.583  0.00  0.00    -0.153 OA
ENDROOT
BRANCH   1   4
ATOM      4  C   UNL     1       6.845  -3.188  22.973  0.00  0.00    +0.105 A 
ATOM      5  C   UNL     1       6.166  -2.048  23.398  0.00  0.00    +0.029 A 
ATOM      6  C   UNL     1       6.825  -0.802  23.412  0.00  0.00    +0.010 A 
ATOM      7  C   UNL     1       8.167  -0.658  23.005  0.00  0.00    -0.018 A 
ATOM      8  C   UNL     1       8.817  -1.823  22.562  0.00  0.00    +0.010 A 
ATOM      9  C   UNL     1       8.170  -3.067  22.540  0.00  0.00    +0.029 A 
BRANCH   7  10
ATOM     10  C   UNL     1       8.886   0.646  23.074  0.00  0.00    -0.018 A 
ATOM     11  C   UNL     1       8.736   1.499  24.183  0.00  0.00    +0.012 A 
ATOM     12  C   UNL     1       9.485   2.677  24.326  0.00  0.00    +0.046 A 
ATOM     13  C   UNL     1      10.417   3.038  23.362  0.00  0.00    +0.120 A 
ATOM     14  C   UNL     1      10.568   2.227  22.238  0.00  0.00    +0.046 A 
ATOM     15  C   UNL     1       9.802   1.060  22.088  0.00  0.00    +0.012 A 
BRANCH  13  16
ATOM     16  O   UNL     1      11.272   4.104  23.438  0.00  0.00    -0.495 OA
ATOM     17  C   UNL     1      10.685   5.364  23.736  0.00  0.00    +0.277 C 
ENDBRANCH  13  16
ENDBRANCH   7  10
ENDBRANCH   1   4
BRANCH   1  18
ATOM     18  N   UNL     1       6.069  -5.661  24.054  0.00  0.00    -0.175 NA
ATOM     19  H   UNL     1       6.653  -6.474  23.834  0.00  0.00    +0.149 HD
BRANCH  18  20
ATOM     20  C   UNL     1       6.269  -5.072  25.421  0.00  0.00    +0.192 C 
BRANCH  20  21
ATOM     21  C   UNL     1       5.281  -5.692  26.457  0.00  0.00    +0.013 C 
ATOM     22  C   UNL     1       4.552  -6.959  26.000  0.00  0.00    +0.009 C 
ATOM     23  C   UNL     1       4.287  -4.665  26.993  0.00  0.00    +0.009 C 
ENDBRANCH  20  21
BRANCH  20  24
ATOM     24  P   UNL     1       7.980  -5.126  26.054  0.00  0.00    +0.346 P 
ATOM     25  O   UNL     1       9.024  -5.637  25.118  0.00  0.00    -0.257 OA
BRANCH  24  26
ATOM     26  O   UNL     1       7.948  -5.917  27.450  0.00  0.00    -0.323 OA
ATOM     27  H   UNL     1       8.677  -5.732  28.068  0.00  0.00    +0.220 HD
ENDBRANCH  24  26
BRANCH  24  28
ATOM     28  O   UNL     1       8.255  -3.638  26.591  0.00  0.00    -0.323 OA
ATOM     29  H   UNL     1       9.129  -3.352  26.225  0.00  0.00    +0.220 HD
ENDBRANCH  24  28
ENDBRANCH  20  24
ENDBRANCH  18  20
ENDBRANCH   1  18
TORSDOF 9
ENDMDL
MODEL 5
REMARK VINA RESULT:      -6.5      2.219      3.515
REMARK  Name = 
REMARK  12 active torsions:
REMARK  status: ('A' for Active; 'I' for Inactive)
REMARK    1  A    between atoms: C_2  and  N_3
REMARK    2  A    between atoms: C_2  and  C_21
REMARK    3  A    between atoms: C_2  and  P_24
REMARK    4  A    between atoms: N_3  and  S_4
REMARK    5  A    between atoms: S_4  and  C_7
REMARK    6  A    between atoms: C_10  and  C_13
REMARK    7  A    between atoms: C_16  and  O_17
REMARK    8  A    between atoms: O_17  and  C_18
REMARK    9  A    between atoms: C_21  and  C_22
REMARK   10  A    between atoms: C_21  and  C_23
REMARK   11  A    between atoms: P_24  and  O_25
REMARK   12  A    between atoms: P_24  and  O_26
REMARK                            x       y       z     vdW  Elec       q    Type
REMARK                         _______ _______ _______ _____ _____    ______ ____
ROOT
ATOM      1  S   UNL     1       5.579  -5.268  23.062  0.00  0.00    +0.059 S 
ATOM      2  O   UNL     1       4.280  -4.861  22.582  0.00  0.00    -0.153 OA
ATOM      3  O   UNL     1       6.401  -6.181  22.303  0.00  0.00    -0.153 OA
ENDROOT
BRANCH   1   4
ATOM      4  C   UNL     1       6.532  -3.776  23.295  0.00  0.00    +0.105 A 
ATOM      5  C   UNL     1       5.979  -2.528  23.017  0.00  0.00    +0.029 A 
ATOM      6  C   UNL     1       6.807  -1.387  22.972  0.00  0.00    +0.010 A 
ATOM      7  C   UNL     1       8.197  -1.459  23.199  0.00  0.00    -0.018 A 
ATOM      8  C   UNL     1       8.726  -2.736  23.455  0.00  0.00    +0.010 A 
ATOM      9  C   UNL     1       7.912  -3.878  23.499  0.00  0.00    +0.029 A 
BRANCH   7  10
ATOM     10  C   UNL     1       9.066  -0.248  23.212  0.00  0.00    -0.018 A 
ATOM     11  C   UNL     1       9.240   0.532  22.054  0.00  0.00    +0.012 A 
ATOM     12  C   UNL     1       9.960   1.737  22.066  0.00  0.00    +0.046 A 
ATOM     13  C   UNL     1      10.528   2.204  23.245  0.00  0.00    +0.120 A 
ATOM     14  C   UNL     1      10.396   1.437  24.402  0.00  0.00    +0.046 A 
ATOM     15  C   UNL     1       9.692   0.223  24.382  0.00  0.00    +0.012 A 
BRANCH  13  16
ATOM     16  O   UNL     1      11.165   3.404  23.403  0.00  0.00    -0.495 OA
ATOM     17  C   UNL     1      10.334   4.533  23.644  0.00  0.00    +0.277 C 
ENDBRANCH  13  16
ENDBRANCH   7  10
ENDBRANCH   1   4
BRANCH   1  18
ATOM     18  N   UNL     1       5.293  -5.937  24.593  0.00  0.00    -0.175 NA
ATOM     19  H   UNL     1       5.816  -6.816  24.651  0.00  0.00    +0.149 HD
BRANCH  18  20
ATOM     20  C   UNL     1       5.279  -5.110  25.847  0.00  0.00    +0.192 C 
BRANCH  20  21
ATOM     21  C   UNL     1       3.831  -4.659  26.214  0.00  0.00    +0.013 C 
ATOM     22  C   UNL     1       2.713  -5.615  25.789  0.00  0.00    +0.009 C 
ATOM     23  C   UNL     1       3.532  -3.239  25.741  0.00  0.00    +0.009 C 
ENDBRANCH  20  21
BRANCH  20  24
ATOM     24  P   UNL     1       6.102  -5.864  27.291  0.00  0.00    +0.346 P 
ATOM     25  O   UNL     1       5.562  -7.174  27.761  0.00  0.00    -0.257 OA
BRANCH  24  26
ATOM     26  O   UNL     1       6.147  -4.753  28.450  0.00  0.00    -0.323 OA
ATOM     27  H   UNL     1       6.723  -3.986  28.289  0.00  0.00    +0.220 HD
ENDBRANCH  24  26
BRANCH  24  28
ATOM     28  O   UNL     1       7.656  -5.903  26.892  0.00  0.00    -0.323 OA
ATOM     29  H   UNL     1       7.703  -5.944  25.904  0.00  0.00    +0.220 HD
ENDBRANCH  24  28
ENDBRANCH  20  24
ENDBRANCH  18  20
ENDBRANCH   1  18
TORSDOF 9
ENDMDL
MODEL 6
REMARK VINA RESULT:      -6.4      1.507      2.400
REMARK  Name = 
REMARK  12 active torsions:
REMARK  status: ('A' for Active; 'I' for Inactive)
REMARK    1  A    between atoms: C_2  and  N_3
REMARK    2  A    between atoms: C_2  and  C_21
REMARK    3  A    between atoms: C_2  and  P_24
REMARK    4  A    between atoms: N_3  and  S_4
REMARK    5  A    between atoms: S_4  and  C_7
REMARK    6  A    between atoms: C_10  and  C_13
REMARK    7  A    between atoms: C_16  and  O_17
REMARK    8  A    between atoms: O_17  and  C_18
REMARK    9  A    between atoms: C_21  and  C_22
REMARK   10  A    between atoms: C_21  and  C_23
REMARK   11  A    between atoms: P_24  and  O_25
REMARK   12  A    between atoms: P_24  and  O_26
REMARK                            x       y       z     vdW  Elec       q    Type
REMARK                         _______ _______ _______ _____ _____    ______ ____
ROOT
ATOM      1  S   UNL     1       8.103  -4.470  25.620  0.00  0.00    +0.059 S 
ATOM      2  O   UNL     1       8.710  -5.288  24.597  0.00  0.00    -0.153 OA
ATOM      3  O   UNL     1       8.314  -4.751  27.021  0.00  0.00    -0.153 OA
ENDROOT
BRANCH   1   4
ATOM      4  C   UNL     1       8.656  -2.796  25.334  0.00  0.00    +0.105 A 
ATOM      5  C   UNL     1       8.417  -1.798  26.277  0.00  0.00    +0.029 A 
ATOM      6  C   UNL     1       8.639  -0.447  25.940  0.00  0.00    +0.010 A 
ATOM      7  C   UNL     1       9.098  -0.056  24.665  0.00  0.00    -0.018 A 
ATOM      8  C   UNL     1       9.308  -1.086  23.731  0.00  0.00    +0.010 A 
ATOM      9  C   UNL     1       9.087  -2.433  24.054  0.00  0.00    +0.029 A 
BRANCH   7  10
ATOM     10  C   UNL     1       9.391   1.364  24.323  0.00  0.00    -0.018 A 
ATOM     11  C   UNL     1       8.569   2.407  24.790  0.00  0.00    +0.012 A 
ATOM     12  C   UNL     1       8.883   3.758  24.579  0.00  0.00    +0.046 A 
ATOM     13  C   UNL     1      10.039   4.112  23.895  0.00  0.00    +0.120 A 
ATOM     14  C   UNL     1      10.859   3.100  23.396  0.00  0.00    +0.046 A 
ATOM     15  C   UNL     1      10.531   1.749  23.592  0.00  0.00    +0.012 A 
BRANCH  13  16
ATOM     16  O   UNL     1      10.501   5.386  23.713  0.00  0.00    -0.495 OA
ATOM     17  C   UNL     1      11.907   5.533  23.557  0.00  0.00    +0.277 C 
ENDBRANCH  13  16
ENDBRANCH   7  10
ENDBRANCH   1   4
BRANCH   1  18
ATOM     18  N   UNL     1       6.440  -4.522  25.298  0.00  0.00    -0.175 NA
ATOM     19  H   UNL     1       6.233  -3.791  24.610  0.00  0.00    +0.149 HD
BRANCH  18  20
ATOM     20  C   UNL     1       5.691  -5.811  25.115  0.00  0.00    +0.192 C 
BRANCH  20  21
ATOM     21  C   UNL     1       4.661  -6.037  26.266  0.00  0.00    +0.013 C 
ATOM     22  C   UNL     1       3.687  -4.882  26.518  0.00  0.00    +0.009 C 
ATOM     23  C   UNL     1       5.333  -6.466  27.567  0.00  0.00    +0.009 C 
ENDBRANCH  20  21
BRANCH  20  24
ATOM     24  P   UNL     1       4.895  -6.031  23.489  0.00  0.00    +0.346 P 
ATOM     25  O   UNL     1       4.153  -4.857  22.942  0.00  0.00    -0.257 OA
BRANCH  24  26
ATOM     26  O   UNL     1       3.995  -7.357  23.572  0.00  0.00    -0.323 OA
ATOM     27  H   UNL     1       3.063  -7.231  23.822  0.00  0.00    +0.220 HD
ENDBRANCH  24  26
BRANCH  24  28
ATOM     28  O   UNL     1       6.073  -6.562  22.535  0.00  0.00    -0.323 OA
ATOM     29  H   UNL     1       6.918  -6.173  22.871  0.00  0.00    +0.220 HD
ENDBRANCH  24  28
ENDBRANCH  20  24
ENDBRANCH  18  20
ENDBRANCH   1  18
TORSDOF 9
ENDMDL
MODEL 7
REMARK VINA RESULT:      -6.3      1.476      2.172
REMARK  Name = 
REMARK  12 active torsions:
REMARK  status: ('A' for Active; 'I' for Inactive)
REMARK    1  A    between atoms: C_2  and  N_3
REMARK    2  A    between atoms: C_2  and  C_21
REMARK    3  A    between atoms: C_2  and  P_24
REMARK    4  A    between atoms: N_3  and  S_4
REMARK    5  A    between atoms: S_4  and  C_7
REMARK    6  A    between atoms: C_10  and  C_13
REMARK    7  A    between atoms: C_16  and  O_17
REMARK    8  A    between atoms: O_17  and  C_18
REMARK    9  A    between atoms: C_21  and  C_22
REMARK   10  A    between atoms: C_21  and  C_23
REMARK   11  A    between atoms: P_24  and  O_25
REMARK   12  A    between atoms: P_24  and  O_26
REMARK                            x       y       z     vdW  Elec       q    Type
REMARK                         _______ _______ _______ _____ _____    ______ ____
ROOT
ATOM      1  S   UNL     1       6.467  -4.649  26.875  0.00  0.00    +0.059 S 
ATOM      2  O   UNL     1       7.462  -5.433  27.567  0.00  0.00    -0.153 OA
ATOM      3  O   UNL     1       5.207  -4.325  27.502  0.00  0.00    -0.153 OA
ENDROOT
BRANCH   1   4
ATOM      4  C   UNL     1       7.245  -3.103  26.436  0.00  0.00    +0.105 A 
ATOM      5  C   UNL     1       6.525  -1.911  26.467  0.00  0.00    +0.029 A 
ATOM      6  C   UNL     1       7.071  -0.745  25.893  0.00  0.00    +0.010 A 
ATOM      7  C   UNL     1       8.339  -0.736  25.274  0.00  0.00    -0.018 A 
ATOM      8  C   UNL     1       9.029  -1.960  25.240  0.00  0.00    +0.010 A 
ATOM      9  C   UNL     1       8.493  -3.127  25.806  0.00  0.00    +0.029 A 
BRANCH   7  10
ATOM     10  C   UNL     1       8.946   0.506  24.719  0.00  0.00    -0.018 A 
ATOM     11  C   UNL     1       8.239   1.722  24.718  0.00  0.00    +0.012 A 
ATOM     12  C   UNL     1       8.826   2.929  24.305  0.00  0.00    +0.046 A 
ATOM     13  C   UNL     1      10.149   2.958  23.884  0.00  0.00    +0.120 A 
ATOM     14  C   UNL     1      10.867   1.763  23.848  0.00  0.00    +0.046 A 
ATOM     15  C   UNL     1      10.270   0.555  24.242  0.00  0.00    +0.012 A 
BRANCH  13  16
ATOM     16  O   UNL     1      10.857   4.080  23.554  0.00  0.00    -0.495 OA
ATOM     17  C   UNL     1      10.283   5.324  23.936  0.00  0.00    +0.277 C 
ENDBRANCH  13  16
ENDBRANCH   7  10
ENDBRANCH   1   4
BRANCH   1  18
ATOM     18  N   UNL     1       6.159  -5.494  25.439  0.00  0.00    -0.175 NA
ATOM     19  H   UNL     1       6.014  -6.479  25.682  0.00  0.00    +0.149 HD
BRANCH  18  20
ATOM     20  C   UNL     1       5.261  -4.956  24.361  0.00  0.00    +0.192 C 
BRANCH  20  21
ATOM     21  C   UNL     1       6.074  -4.566  23.087  0.00  0.00    +0.013 C 
ATOM     22  C   UNL     1       7.489  -5.145  23.003  0.00  0.00    +0.009 C 
ATOM     23  C   UNL     1       6.096  -3.058  22.856  0.00  0.00    +0.009 C 
ENDBRANCH  20  21
BRANCH  20  24
ATOM     24  P   UNL     1       3.845  -6.018  23.918  0.00  0.00    +0.346 P 
ATOM     25  O   UNL     1       3.076  -5.633  22.698  0.00  0.00    -0.257 OA
BRANCH  24  26
ATOM     26  O   UNL     1       2.922  -6.154  25.224  0.00  0.00    -0.323 OA
ATOM     27  H   UNL     1       2.204  -5.503  25.315  0.00  0.00    +0.220 HD
ENDBRANCH  24  26
BRANCH  24  28
ATOM     28  O   UNL     1       4.458  -7.501  23.863  0.00  0.00    -0.323 OA
ATOM     29  H   UNL     1       5.433  -7.419  24.011  0.00  0.00    +0.220 HD
ENDBRANCH  24  28
ENDBRANCH  20  24
ENDBRANCH  18  20
ENDBRANCH   1  18
TORSDOF 9
ENDMDL
MODEL 8
REMARK VINA RESULT:      -6.1      3.814      9.127
REMARK  Name = 
REMARK  12 active torsions:
REMARK  status: ('A' for Active; 'I' for Inactive)
REMARK    1  A    between atoms: C_2  and  N_3
REMARK    2  A    between atoms: C_2  and  C_21
REMARK    3  A    between atoms: C_2  and  P_24
REMARK    4  A    between atoms: N_3  and  S_4
REMARK    5  A    between atoms: S_4  and  C_7
REMARK    6  A    between atoms: C_10  and  C_13
REMARK    7  A    between atoms: C_16  and  O_17
REMARK    8  A    between atoms: O_17  and  C_18
REMARK    9  A    between atoms: C_21  and  C_22
REMARK   10  A    between atoms: C_21  and  C_23
REMARK   11  A    between atoms: P_24  and  O_25
REMARK   12  A    between atoms: P_24  and  O_26
REMARK                            x       y       z     vdW  Elec       q    Type
REMARK                         _______ _______ _______ _____ _____    ______ ____
ROOT
ATOM      1  S   UNL     1       9.246  -2.116  22.972  0.00  0.00    +0.059 S 
ATOM      2  O   UNL     1      10.286  -2.713  23.774  0.00  0.00    -0.153 OA
ATOM      3  O   UNL     1       9.478  -1.767  21.590  0.00  0.00    -0.153 OA
ENDROOT
BRANCH   1   4
ATOM      4  C   UNL     1       7.864  -3.246  22.999  0.00  0.00    +0.105 A 
ATOM      5  C   UNL     1       6.622  -2.864  22.496  0.00  0.00    +0.029 A 
ATOM      6  C   UNL     1       5.488  -3.666  22.739  0.00  0.00    +0.010 A 
ATOM      7  C   UNL     1       5.559  -4.859  23.487  0.00  0.00    -0.018 A 
ATOM      8  C   UNL     1       6.822  -5.205  24.000  0.00  0.00    +0.010 A 
ATOM      9  C   UNL     1       7.956  -4.413  23.766  0.00  0.00    +0.029 A 
BRANCH   7  10
ATOM     10  C   UNL     1       4.376  -5.740  23.697  0.00  0.00    -0.018 A 
ATOM     11  C   UNL     1       4.445  -6.858  24.548  0.00  0.00    +0.012 A 
ATOM     12  C   UNL     1       3.318  -7.639  24.851  0.00  0.00    +0.046 A 
ATOM     13  C   UNL     1       2.078  -7.319  24.314  0.00  0.00    +0.120 A 
ATOM     14  C   UNL     1       1.984  -6.233  23.445  0.00  0.00    +0.046 A 
ATOM     15  C   UNL     1       3.117  -5.467  23.128  0.00  0.00    +0.012 A 
BRANCH  13  16
ATOM     16  O   UNL     1       0.896  -7.940  24.611  0.00  0.00    -0.495 OA
ATOM     17  C   UNL     1       0.961  -9.339  24.858  0.00  0.00    +0.277 C 
ENDBRANCH  13  16
ENDBRANCH   7  10
ENDBRANCH   1   4
BRANCH   1  18
ATOM     18  N   UNL     1       8.783  -0.721  23.815  0.00  0.00    -0.175 NA
ATOM     19  H   UNL     1       9.315  -0.695  24.690  0.00  0.00    +0.149 HD
BRANCH  18  20
ATOM     20  C   UNL     1       8.588   0.606  23.138  0.00  0.00    +0.192 C 
BRANCH  20  21
ATOM     21  C   UNL     1       7.251   1.278  23.581  0.00  0.00    +0.013 C 
ATOM     22  C   UNL     1       6.276   0.374  24.340  0.00  0.00    +0.009 C 
ATOM     23  C   UNL     1       6.545   1.977  22.423  0.00  0.00    +0.009 C 
ENDBRANCH  20  21
BRANCH  20  24
ATOM     24  P   UNL     1       9.978   1.777  23.295  0.00  0.00    +0.346 P 
ATOM     25  O   UNL     1      11.184   1.290  24.027  0.00  0.00    -0.257 OA
BRANCH  24  26
ATOM     26  O   UNL     1       9.387   3.142  23.898  0.00  0.00    -0.323 OA
ATOM     27  H   UNL     1       9.682   3.381  24.794  0.00  0.00    +0.220 HD
ENDBRANCH  24  26
BRANCH  24  28
ATOM     28  O   UNL     1      10.274   2.251  21.789  0.00  0.00    -0.323 OA
ATOM     29  H   UNL     1       9.513   1.949  21.233  0.00  0.00    +0.220 HD
ENDBRANCH  24  28
ENDBRANCH  20  24
ENDBRANCH  18  20
ENDBRANCH   1  18
TORSDOF 9
ENDMDL
MODEL 9
REMARK VINA RESULT:      -6.1      3.798      8.939
REMARK  Name = 
REMARK  12 active torsions:
REMARK  status: ('A' for Active; 'I' for Inactive)
REMARK    1  A    between atoms: C_2  and  N_3
REMARK    2  A    between atoms: C_2  and  C_21
REMARK    3  A    between atoms: C_2  and  P_24
REMARK    4  A    between atoms: N_3  and  S_4
REMARK    5  A    between atoms: S_4  and  C_7
REMARK    6  A    between atoms: C_10  and  C_13
REMARK    7  A    between atoms: C_16  and  O_17
REMARK    8  A    between atoms: O_17  and  C_18
REMARK    9  A    between atoms: C_21  and  C_22
REMARK   10  A    between atoms: C_21  and  C_23
REMARK   11  A    between atoms: P_24  and  O_25
REMARK   12  A    between atoms: P_24  and  O_26
REMARK                            x       y       z     vdW  Elec       q    Type
REMARK                         _______ _______ _______ _____ _____    ______ ____
ROOT
ATOM      1  S   UNL     1      10.120   0.826  23.672  0.00  0.00    +0.059 S 
ATOM      2  O   UNL     1      11.330   0.759  24.456  0.00  0.00    -0.153 OA
ATOM      3  O   UNL     1      10.170   0.963  22.235  0.00  0.00    -0.153 OA
ENDROOT
BRANCH   1   4
ATOM      4  C   UNL     1       9.197  -0.661  24.023  0.00  0.00    +0.105 A 
ATOM      5  C   UNL     1       9.820  -1.907  24.001  0.00  0.00    +0.029 A 
ATOM      6  C   UNL     1       9.042  -3.082  24.040  0.00  0.00    +0.010 A 
ATOM      7  C   UNL     1       7.633  -3.049  24.099  0.00  0.00    -0.018 A 
ATOM      8  C   UNL     1       7.035  -1.776  24.098  0.00  0.00    +0.010 A 
ATOM      9  C   UNL     1       7.800  -0.601  24.056  0.00  0.00    +0.029 A 
BRANCH   7  10
ATOM     10  C   UNL     1       6.810  -4.286  24.201  0.00  0.00    -0.018 A 
ATOM     11  C   UNL     1       6.431  -4.805  25.452  0.00  0.00    +0.012 A 
ATOM     12  C   UNL     1       5.564  -5.903  25.576  0.00  0.00    +0.046 A 
ATOM     13  C   UNL     1       5.041  -6.515  24.444  0.00  0.00    +0.120 A 
ATOM     14  C   UNL     1       5.421  -6.040  23.189  0.00  0.00    +0.046 A 
ATOM     15  C   UNL     1       6.304  -4.955  23.070  0.00  0.00    +0.012 A 
BRANCH  13  16
ATOM     16  O   UNL     1       4.116  -7.522  24.437  0.00  0.00    -0.495 OA
ATOM     17  C   UNL     1       2.795  -7.163  24.052  0.00  0.00    +0.277 C 
ENDBRANCH  13  16
ENDBRANCH   7  10
ENDBRANCH   1   4
BRANCH   1  18
ATOM     18  N   UNL     1       9.250   2.132  24.313  0.00  0.00    -0.175 NA
ATOM     19  H   UNL     1       9.713   2.418  25.181  0.00  0.00    +0.149 HD
BRANCH  18  20
ATOM     20  C   UNL     1       8.728   3.253  23.460  0.00  0.00    +0.192 C 
BRANCH  20  21
ATOM     21  C   UNL     1       7.168   3.278  23.448  0.00  0.00    +0.013 C 
ATOM     22  C   UNL     1       6.490   2.872  24.759  0.00  0.00    +0.009 C 
ATOM     23  C   UNL     1       6.587   2.491  22.276  0.00  0.00    +0.009 C 
ENDBRANCH  20  21
BRANCH  20  24
ATOM     24  P   UNL     1       9.394   4.907  23.847  0.00  0.00    +0.346 P 
ATOM     25  O   UNL     1       9.196   5.398  25.242  0.00  0.00    -0.257 OA
BRANCH  24  26
ATOM     26  O   UNL     1       8.827   5.922  22.739  0.00  0.00    -0.323 OA
ATOM     27  H   UNL     1       9.203   5.839  21.846  0.00  0.00    +0.220 HD
ENDBRANCH  24  26
BRANCH  24  28
ATOM     28  O   UNL     1      10.931   4.838  23.390  0.00  0.00    -0.323 OA
ATOM     29  H   UNL     1      11.231   3.903  23.517  0.00  0.00    +0.220 HD
ENDBRANCH  24  28
ENDBRANCH  20  24
ENDBRANCH  18  20
ENDBRANCH   1  18
TORSDOF 9
ENDMDL
