MODEL 1
REMARK VINA RESULT:      -3.8      0.000      0.000
REMARK  Name = 
REMARK  5 active torsions:
REMARK  status: ('A' for Active; 'I' for Inactive)
REMARK    1  A    between atoms: C_1  and  C_2
REMARK    2  A    between atoms: C_2  and  O_4
REMARK    3  A    between atoms: O_4  and  P_5
REMARK    4  A    between atoms: P_5  and  O_6
REMARK    5  A    between atoms: P_5  and  O_7
REMARK                            x       y       z     vdW  Elec       q    Type
REMARK                         _______ _______ _______ _____ _____    ______ ____
ROOT
ATOM      1  P   UNL     1       9.037  -4.723  25.285  0.00  0.00    +0.530 P 
ATOM      2  O   UNL     1       8.184  -5.690  26.141  0.00  0.00    -0.216 OA
ENDROOT
BRANCH   1   3
ATOM      3  O   UNL     1      10.407  -5.619  25.453  0.00  0.00    -0.293 OA
ATOM      4  H   UNL     1      11.125  -5.193  24.944  0.00  0.00    +0.223 HD
ENDBRANCH   1   3
BRANCH   1   5
ATOM      5  O   UNL     1       8.605  -5.434  23.873  0.00  0.00    -0.293 OA
ATOM      6  H   UNL     1       8.999  -6.326  23.877  0.00  0.00    +0.223 HD
ENDBRANCH   1   5
BRANCH   1   7
ATOM      7  O   UNL     1       9.990  -3.641  24.328  0.00  0.00    -0.372 OA
BRANCH   7   9
ATOM      8  C   UNL     1      10.154  -1.747  22.961  0.00  0.00    +0.136 C 
ATOM      9  C   UNL     1       9.264  -2.682  23.721  0.00  0.00    +0.312 C 
ATOM     10  O   UNL     1       8.075  -2.501  23.926  0.00  0.00    -0.251 OA
ENDBRANCH   7   9
ENDBRANCH   1   7
TORSDOF 4
ENDMDL
MODEL 2
REMARK VINA RESULT:      -3.8      2.490      3.760
REMARK  Name = 
REMARK  5 active torsions:
REMARK  status: ('A' for Active; 'I' for Inactive)
REMARK    1  A    between atoms: C_1  and  C_2
REMARK    2  A    between atoms: C_2  and  O_4
REMARK    3  A    between atoms: O_4  and  P_5
REMARK    4  A    between atoms: P_5  and  O_6
REMARK    5  A    between atoms: P_5  and  O_7
REMARK                            x       y       z     vdW  Elec       q    Type
REMARK                         _______ _______ _______ _____ _____    ______ ____
ROOT
ATOM      1  P   UNL     1       9.002  -4.679  25.114  0.00  0.00    +0.530 P 
ATOM      2  O   UNL     1       9.896  -3.655  24.373  0.00  0.00    -0.216 OA
ENDROOT
BRANCH   1   3
ATOM      3  O   UNL     1       8.542  -5.436  23.727  0.00  0.00    -0.293 OA
ATOM      4  H   UNL     1       9.102  -6.226  23.599  0.00  0.00    +0.223 HD
ENDBRANCH   1   3
BRANCH   1   5
ATOM      5  O   UNL     1      10.246  -5.707  25.400  0.00  0.00    -0.293 OA
ATOM      6  H   UNL     1      11.048  -5.160  25.483  0.00  0.00    +0.223 HD
ENDBRANCH   1   5
BRANCH   1   7
ATOM      7  O   UNL     1       8.003  -5.823  25.943  0.00  0.00    -0.372 OA
BRANCH   7   9
ATOM      8  C   UNL     1       7.157  -3.850  26.881  0.00  0.00    +0.136 C 
ATOM      9  C   UNL     1       7.409  -5.318  27.042  0.00  0.00    +0.312 C 
ATOM     10  O   UNL     1       7.276  -5.939  28.084  0.00  0.00    -0.251 OA
ENDBRANCH   7   9
ENDBRANCH   1   7
TORSDOF 4
ENDMDL
MODEL 3
REMARK VINA RESULT:      -3.7      2.063      2.690
REMARK  Name = 
REMARK  5 active torsions:
REMARK  status: ('A' for Active; 'I' for Inactive)
REMARK    1  A    between atoms: C_1  and  C_2
REMARK    2  A    between atoms: C_2  and  O_4
REMARK    3  A    between atoms: O_4  and  P_5
REMARK    4  A    between atoms: P_5  and  O_6
REMARK    5  A    between atoms: P_5  and  O_7
REMARK                            x       y       z     vdW  Elec       q    Type
REMARK                         _______ _______ _______ _____ _____    ______ ____
ROOT
ATOM      1  P   UNL     1       8.818  -4.866  25.233  0.00  0.00    +0.530 P 
ATOM      2  O   UNL     1       9.076  -4.219  26.616  0.00  0.00    -0.216 OA
ENDROOT
BRANCH   1   3
ATOM      3  O   UNL     1       9.894  -3.889  24.461  0.00  0.00    -0.293 OA
ATOM      4  H   UNL     1      10.562  -3.585  25.106  0.00  0.00    +0.223 HD
ENDBRANCH   1   3
BRANCH   1   5
ATOM      5  O   UNL     1       9.907  -6.065  25.482  0.00  0.00    -0.293 OA
ATOM      6  H   UNL     1      10.724  -5.639  25.801  0.00  0.00    +0.223 HD
ENDBRANCH   1   5
BRANCH   1   7
ATOM      7  O   UNL     1       8.529  -5.589  23.689  0.00  0.00    -0.372 OA
BRANCH   7   9
ATOM      8  C   UNL     1       7.097  -5.857  21.855  0.00  0.00    +0.136 C 
ATOM      9  C   UNL     1       7.544  -4.990  22.992  0.00  0.00    +0.312 C 
ATOM     10  O   UNL     1       7.207  -3.829  23.158  0.00  0.00    -0.251 OA
ENDBRANCH   7   9
ENDBRANCH   1   7
TORSDOF 4
ENDMDL
MODEL 4
REMARK VINA RESULT:      -3.6      4.333      5.991
REMARK  Name = 
REMARK  5 active torsions:
REMARK  status: ('A' for Active; 'I' for Inactive)
REMARK    1  A    between atoms: C_1  and  C_2
REMARK    2  A    between atoms: C_2  and  O_4
REMARK    3  A    between atoms: O_4  and  P_5
REMARK    4  A    between atoms: P_5  and  O_6
REMARK    5  A    between atoms: P_5  and  O_7
REMARK                            x       y       z     vdW  Elec       q    Type
REMARK                         _______ _______ _______ _____ _____    ______ ____
ROOT
ATOM      1  P   UNL     1       9.108   1.266  22.160  0.00  0.00    +0.530 P 
ATOM      2  O   UNL     1       7.918   2.034  21.536  0.00  0.00    -0.216 OA
ENDROOT
BRANCH   1   3
ATOM      3  O   UNL     1       9.266   0.256  20.871  0.00  0.00    -0.293 OA
ATOM      4  H   UNL     1       9.270  -0.667  21.193  0.00  0.00    +0.223 HD
ENDBRANCH   1   3
BRANCH   1   5
ATOM      5  O   UNL     1      10.217   2.337  21.605  0.00  0.00    -0.293 OA
ATOM      6  H   UNL     1       9.933   3.218  21.911  0.00  0.00    +0.223 HD
ENDBRANCH   1   5
BRANCH   1   7
ATOM      7  O   UNL     1      10.438   0.409  22.859  0.00  0.00    -0.372 OA
BRANCH   7   9
ATOM      8  C   UNL     1       9.520  -1.129  24.368  0.00  0.00    +0.136 C 
ATOM      9  C   UNL     1      10.191  -0.903  23.048  0.00  0.00    +0.312 C 
ATOM     10  O   UNL     1      10.628  -1.784  22.326  0.00  0.00    -0.251 OA
ENDBRANCH   7   9
ENDBRANCH   1   7
TORSDOF 4
ENDMDL
MODEL 5
REMARK VINA RESULT:      -3.5      3.259      4.137
REMARK  Name = 
REMARK  5 active torsions:
REMARK  status: ('A' for Active; 'I' for Inactive)
REMARK    1  A    between atoms: C_1  and  C_2
REMARK    2  A    between atoms: C_2  and  O_4
REMARK    3  A    between atoms: O_4  and  P_5
REMARK    4  A    between atoms: P_5  and  O_6
REMARK    5  A    between atoms: P_5  and  O_7
REMARK                            x       y       z     vdW  Elec       q    Type
REMARK                         _______ _______ _______ _____ _____    ______ ____
ROOT
ATOM      1  P   UNL     1       9.356  -1.557  22.816  0.00  0.00    +0.530 P 
ATOM      2  O   UNL     1       8.308  -2.564  22.283  0.00  0.00    -0.216 OA
ENDROOT
BRANCH   1   3
ATOM      3  O   UNL     1      10.253  -2.724  23.553  0.00  0.00    -0.293 OA
ATOM      4  H   UNL     1      10.909  -3.066  22.915  0.00  0.00    +0.223 HD
ENDBRANCH   1   3
BRANCH   1   5
ATOM      5  O   UNL     1      10.236  -1.590  21.434  0.00  0.00    -0.293 OA
ATOM      6  H   UNL     1      11.158  -1.393  21.685  0.00  0.00    +0.223 HD
ENDBRANCH   1   5
BRANCH   1   7
ATOM      7  O   UNL     1      10.527  -0.432  23.413  0.00  0.00    -0.372 OA
BRANCH   7   9
ATOM      8  C   UNL     1       9.885   1.617  24.350  0.00  0.00    +0.136 C 
ATOM      9  C   UNL     1      10.240   0.850  23.112  0.00  0.00    +0.312 C 
ATOM     10  O   UNL     1      10.107   1.264  21.973  0.00  0.00    -0.251 OA
ENDBRANCH   7   9
ENDBRANCH   1   7
TORSDOF 4
ENDMDL
MODEL 6
REMARK VINA RESULT:      -3.3      1.932      2.700
REMARK  Name = 
REMARK  5 active torsions:
REMARK  status: ('A' for Active; 'I' for Inactive)
REMARK    1  A    between atoms: C_1  and  C_2
REMARK    2  A    between atoms: C_2  and  O_4
REMARK    3  A    between atoms: O_4  and  P_5
REMARK    4  A    between atoms: P_5  and  O_6
REMARK    5  A    between atoms: P_5  and  O_7
REMARK                            x       y       z     vdW  Elec       q    Type
REMARK                         _______ _______ _______ _____ _____    ______ ____
ROOT
ATOM      1  P   UNL     1       7.085  -4.986  26.431  0.00  0.00    +0.530 P 
ATOM      2  O   UNL     1       6.772  -4.774  27.932  0.00  0.00    -0.216 OA
ENDROOT
BRANCH   1   3
ATOM      3  O   UNL     1       8.407  -5.918  26.734  0.00  0.00    -0.293 OA
ATOM      4  H   UNL     1       8.753  -6.259  25.886  0.00  0.00    +0.223 HD
ENDBRANCH   1   3
BRANCH   1   5
ATOM      5  O   UNL     1       6.069  -6.266  26.300  0.00  0.00    -0.293 OA
ATOM      6  H   UNL     1       5.443  -6.054  25.583  0.00  0.00    +0.223 HD
ENDBRANCH   1   5
BRANCH   1   7
ATOM      7  O   UNL     1       7.435  -5.224  24.754  0.00  0.00    -0.372 OA
BRANCH   7   9
ATOM      8  C   UNL     1       7.809  -3.530  23.181  0.00  0.00    +0.136 C 
ATOM      9  C   UNL     1       8.372  -4.382  24.277  0.00  0.00    +0.312 C 
ATOM     10  O   UNL     1       9.554  -4.447  24.573  0.00  0.00    -0.251 OA
ENDBRANCH   7   9
ENDBRANCH   1   7
TORSDOF 4
ENDMDL
MODEL 7
REMARK VINA RESULT:      -3.3      1.731      2.727
REMARK  Name = 
REMARK  5 active torsions:
REMARK  status: ('A' for Active; 'I' for Inactive)
REMARK    1  A    between atoms: C_1  and  C_2
REMARK    2  A    between atoms: C_2  and  O_4
REMARK    3  A    between atoms: O_4  and  P_5
REMARK    4  A    between atoms: P_5  and  O_6
REMARK    5  A    between atoms: P_5  and  O_7
REMARK                            x       y       z     vdW  Elec       q    Type
REMARK                         _______ _______ _______ _____ _____    ______ ____
ROOT
ATOM      1  P   UNL     1       7.128  -5.115  26.202  0.00  0.00    +0.530 P 
ATOM      2  O   UNL     1       6.129  -6.245  26.553  0.00  0.00    -0.216 OA
ENDROOT
BRANCH   1   3
ATOM      3  O   UNL     1       6.749  -4.226  27.534  0.00  0.00    -0.293 OA
ATOM      4  H   UNL     1       7.225  -4.595  28.304  0.00  0.00    +0.223 HD
ENDBRANCH   1   3
BRANCH   1   5
ATOM      5  O   UNL     1       8.390  -5.872  26.923  0.00  0.00    -0.293 OA
ATOM      6  H   UNL     1       9.195  -5.397  26.649  0.00  0.00    +0.223 HD
ENDBRANCH   1   5
BRANCH   1   7
ATOM      7  O   UNL     1       8.244  -3.853  25.810  0.00  0.00    -0.372 OA
BRANCH   7   9
ATOM      8  C   UNL     1       9.603  -2.920  24.146  0.00  0.00    +0.136 C 
ATOM      9  C   UNL     1       9.066  -4.163  24.787  0.00  0.00    +0.312 C 
ATOM     10  O   UNL     1       9.193  -5.290  24.339  0.00  0.00    -0.251 OA
ENDBRANCH   7   9
ENDBRANCH   1   7
TORSDOF 4
ENDMDL
MODEL 8
REMARK VINA RESULT:      -3.3      2.708      3.938
REMARK  Name = 
REMARK  5 active torsions:
REMARK  status: ('A' for Active; 'I' for Inactive)
REMARK    1  A    between atoms: C_1  and  C_2
REMARK    2  A    between atoms: C_2  and  O_4
REMARK    3  A    between atoms: O_4  and  P_5
REMARK    4  A    between atoms: P_5  and  O_6
REMARK    5  A    between atoms: P_5  and  O_7
REMARK                            x       y       z     vdW  Elec       q    Type
REMARK                         _______ _______ _______ _____ _____    ______ ____
ROOT
ATOM      1  P   UNL     1       9.450  -1.532  22.977  0.00  0.00    +0.530 P 
ATOM      2  O   UNL     1      10.443  -0.514  23.589  0.00  0.00    -0.216 OA
ENDROOT
BRANCH   1   3
ATOM      3  O   UNL     1      10.256  -1.612  21.544  0.00  0.00    -0.293 OA
ATOM      4  H   UNL     1      10.241  -2.536  21.226  0.00  0.00    +0.223 HD
ENDBRANCH   1   3
BRANCH   1   5
ATOM      5  O   UNL     1      10.226  -2.824  23.619  0.00  0.00    -0.293 OA
ATOM      6  H   UNL     1      10.748  -3.223  22.899  0.00  0.00    +0.223 HD
ENDBRANCH   1   5
BRANCH   1   7
ATOM      7  O   UNL     1       8.340  -2.669  22.293  0.00  0.00    -0.372 OA
BRANCH   7   9
ATOM      8  C   UNL     1       7.308  -4.750  22.594  0.00  0.00    +0.136 C 
ATOM      9  C   UNL     1       7.746  -3.457  23.211  0.00  0.00    +0.312 C 
ATOM     10  O   UNL     1       7.445  -3.081  24.332  0.00  0.00    -0.251 OA
ENDBRANCH   7   9
ENDBRANCH   1   7
TORSDOF 4
ENDMDL
MODEL 9
REMARK VINA RESULT:      -3.3      5.147      6.359
REMARK  Name = 
REMARK  5 active torsions:
REMARK  status: ('A' for Active; 'I' for Inactive)
REMARK    1  A    between atoms: C_1  and  C_2
REMARK    2  A    between atoms: C_2  and  O_4
REMARK    3  A    between atoms: O_4  and  P_5
REMARK    4  A    between atoms: P_5  and  O_6
REMARK    5  A    between atoms: P_5  and  O_7
REMARK                            x       y       z     vdW  Elec       q    Type
REMARK                         _______ _______ _______ _____ _____    ______ ____
ROOT
ATOM      1  P   UNL     1       9.521   1.899  22.985  0.00  0.00    +0.530 P 
ATOM      2  O   UNL     1       8.672   3.193  22.989  0.00  0.00    -0.216 OA
ENDROOT
BRANCH   1   3
ATOM      3  O   UNL     1      10.173   2.210  21.506  0.00  0.00    -0.293 OA
ATOM      4  H   UNL     1       9.998   1.449  20.919  0.00  0.00    +0.223 HD
ENDBRANCH   1   3
BRANCH   1   5
ATOM      5  O   UNL     1      10.759   2.592  23.806  0.00  0.00    -0.293 OA
ATOM      6  H   UNL     1      11.524   2.603  23.202  0.00  0.00    +0.223 HD
ENDBRANCH   1   5
BRANCH   1   7
ATOM      7  O   UNL     1      10.471   0.453  22.981  0.00  0.00    -0.372 OA
BRANCH   7   9
ATOM      8  C   UNL     1      10.136  -1.865  23.022  0.00  0.00    +0.136 C 
ATOM      9  C   UNL     1       9.892  -0.566  22.316  0.00  0.00    +0.312 C 
ATOM     10  O   UNL     1       9.406  -0.458  21.202  0.00  0.00    -0.251 OA
ENDBRANCH   7   9
ENDBRANCH   1   7
TORSDOF 4
ENDMDL
