MODEL 1
REMARK VINA RESULT:      -6.7      0.000      0.000
REMARK  Name = 
REMARK  4 active torsions:
REMARK  status: ('A' for Active; 'I' for Inactive)
REMARK    1  A    between atoms: O_1  and  C_2
REMARK    2  A    between atoms: C_3  and  C_9
REMARK    3  A    between atoms: C_11  and  C_12
REMARK    4  A    between atoms: C_18  and  C_19
REMARK                            x       y       z     vdW  Elec       q    Type
REMARK                         _______ _______ _______ _____ _____    ______ ____
ROOT
ATOM      1  C   UNL     1       7.493  -2.011  23.843  0.00  0.00    +0.053 A 
ATOM      2  N   UNL     1       8.362  -2.643  24.699  0.00  0.00    -0.321 N 
ATOM      3  H   UNL     1       9.330  -2.338  24.754  0.00  0.00    +0.169 HD
ATOM      4  C   UNL     1       8.028  -3.698  25.516  0.00  0.00    +0.267 A 
ATOM      5  O   UNL     1       8.841  -4.144  26.320  0.00  0.00    -0.266 OA
ATOM      6  C   UNL     1       6.653  -4.265  25.362  0.00  0.00    +0.124 A 
ATOM      7  C   UNL     1       5.811  -3.681  24.479  0.00  0.00    +0.007 A 
ATOM      8  C   UNL     1       6.237  -2.486  23.754  0.00  0.00    +0.036 A 
ENDROOT
BRANCH   1  15
ATOM      9  C   UNL     1       9.149  -0.862  22.279  0.00  0.00    +0.126 A 
ATOM     10  C   UNL     1       9.533   0.229  21.496  0.00  0.00    +0.047 A 
ATOM     11  C   UNL     1       8.771   1.395  21.500  0.00  0.00    +0.019 A 
ATOM     12  C   UNL     1       7.617   1.447  22.273  0.00  0.00    +0.019 A 
ATOM     13 BR   UNL     1       6.572   3.024  22.296  0.00  0.00    -0.050 Br
ATOM     14  C   UNL     1       7.214   0.344  23.031  0.00  0.00    +0.028 A 
ATOM     15  C   UNL     1       7.976  -0.841  23.061  0.00  0.00    +0.041 A 
BRANCH   9  16
ATOM     16  O   UNL     1       9.993  -1.940  22.243  0.00  0.00    -0.506 OA
ATOM     17  H   UNL     1       9.878  -2.374  21.379  0.00  0.00    +0.292 HD
ENDBRANCH   9  16
ENDBRANCH   1  15
BRANCH   7  18
ATOM     18  C   UNL     1       4.469  -4.255  24.215  0.00  0.00    -0.016 A 
ATOM     19  C   UNL     1       3.347  -3.787  24.918  0.00  0.00    +0.008 A 
ATOM     20  C   UNL     1       2.088  -4.344  24.690  0.00  0.00    +0.001 A 
ATOM     21  C   UNL     1       1.937  -5.377  23.765  0.00  0.00    +0.000 A 
ATOM     22  C   UNL     1       3.047  -5.856  23.073  0.00  0.00    +0.001 A 
ATOM     23  C   UNL     1       4.312  -5.302  23.298  0.00  0.00    +0.008 A 
ENDBRANCH   7  18
BRANCH   6  24
ATOM     24  C   UNL     1       6.326  -5.414  26.133  0.00  0.00    +0.105 C 
ATOM     25  N   UNL     1       6.023  -6.345  26.763  0.00  0.00    -0.191 NA
ENDBRANCH   6  24
TORSDOF 4
ENDMDL
MODEL 2
REMARK VINA RESULT:      -6.6      2.064      3.129
REMARK  Name = 
REMARK  4 active torsions:
REMARK  status: ('A' for Active; 'I' for Inactive)
REMARK    1  A    between atoms: O_1  and  C_2
REMARK    2  A    between atoms: C_3  and  C_9
REMARK    3  A    between atoms: C_11  and  C_12
REMARK    4  A    between atoms: C_18  and  C_19
REMARK                            x       y       z     vdW  Elec       q    Type
REMARK                         _______ _______ _______ _____ _____    ______ ____
ROOT
ATOM      1  C   UNL     1       7.219  -2.251  22.945  0.00  0.00    +0.053 A 
ATOM      2  N   UNL     1       6.744  -3.040  21.926  0.00  0.00    -0.321 N 
ATOM      3  H   UNL     1       6.784  -2.706  20.966  0.00  0.00    +0.169 HD
ATOM      4  C   UNL     1       6.191  -4.288  22.093  0.00  0.00    +0.267 A 
ATOM      5  O   UNL     1       5.879  -4.966  21.120  0.00  0.00    -0.266 OA
ATOM      6  C   UNL     1       5.986  -4.754  23.499  0.00  0.00    +0.124 A 
ATOM      7  C   UNL     1       6.401  -3.956  24.509  0.00  0.00    +0.007 A 
ATOM      8  C   UNL     1       7.089  -2.703  24.206  0.00  0.00    +0.036 A 
ENDROOT
BRANCH   1  15
ATOM      9  C   UNL     1       9.083  -0.829  21.940  0.00  0.00    +0.126 A 
ATOM     10  C   UNL     1       9.610   0.411  21.574  0.00  0.00    +0.047 A 
ATOM     11  C   UNL     1       8.933   1.583  21.902  0.00  0.00    +0.019 A 
ATOM     12  C   UNL     1       7.720   1.498  22.577  0.00  0.00    +0.019 A 
ATOM     13 BR   UNL     1       6.788   3.078  23.037  0.00  0.00    -0.050 Br
ATOM     14  C   UNL     1       7.176   0.255  22.914  0.00  0.00    +0.028 A 
ATOM     15  C   UNL     1       7.849  -0.945  22.612  0.00  0.00    +0.041 A 
BRANCH   9  16
ATOM     16  O   UNL     1       9.851  -1.916  21.614  0.00  0.00    -0.506 OA
ATOM     17  H   UNL     1       9.435  -2.701  22.012  0.00  0.00    +0.292 HD
ENDBRANCH   9  16
ENDBRANCH   1  15
BRANCH   7  18
ATOM     18  C   UNL     1       6.141  -4.321  25.923  0.00  0.00    -0.016 A 
ATOM     19  C   UNL     1       7.004  -5.198  26.599  0.00  0.00    +0.008 A 
ATOM     20  C   UNL     1       6.747  -5.564  27.921  0.00  0.00    +0.001 A 
ATOM     21  C   UNL     1       5.623  -5.066  28.578  0.00  0.00    +0.000 A 
ATOM     22  C   UNL     1       4.753  -4.205  27.911  0.00  0.00    +0.001 A 
ATOM     23  C   UNL     1       5.006  -3.836  26.585  0.00  0.00    +0.008 A 
ENDBRANCH   7  18
BRANCH   6  24
ATOM     24  C   UNL     1       5.331  -6.002  23.689  0.00  0.00    +0.105 C 
ATOM     25  N   UNL     1       4.771  -7.007  23.866  0.00  0.00    -0.191 NA
ENDBRANCH   6  24
TORSDOF 4
ENDMDL
MODEL 3
REMARK VINA RESULT:      -6.3      1.862      2.427
REMARK  Name = 
REMARK  4 active torsions:
REMARK  status: ('A' for Active; 'I' for Inactive)
REMARK    1  A    between atoms: O_1  and  C_2
REMARK    2  A    between atoms: C_3  and  C_9
REMARK    3  A    between atoms: C_11  and  C_12
REMARK    4  A    between atoms: C_18  and  C_19
REMARK                            x       y       z     vdW  Elec       q    Type
REMARK                         _______ _______ _______ _____ _____    ______ ____
ROOT
ATOM      1  C   UNL     1       7.240  -2.142  22.961  0.00  0.00    +0.053 A 
ATOM      2  N   UNL     1       7.423  -3.238  22.154  0.00  0.00    -0.321 N 
ATOM      3  H   UNL     1       7.958  -3.150  21.293  0.00  0.00    +0.169 HD
ATOM      4  C   UNL     1       6.922  -4.494  22.410  0.00  0.00    +0.267 A 
ATOM      5  O   UNL     1       7.211  -5.439  21.685  0.00  0.00    -0.266 OA
ATOM      6  C   UNL     1       6.014  -4.631  23.590  0.00  0.00    +0.124 A 
ATOM      7  C   UNL     1       5.785  -3.541  24.358  0.00  0.00    +0.007 A 
ATOM      8  C   UNL     1       6.473  -2.287  24.057  0.00  0.00    +0.036 A 
ENDROOT
BRANCH   1  15
ATOM      9  C   UNL     1       9.193  -0.777  22.052  0.00  0.00    +0.126 A 
ATOM     10  C   UNL     1       9.747   0.438  21.643  0.00  0.00    +0.047 A 
ATOM     11  C   UNL     1       9.029   1.621  21.796  0.00  0.00    +0.019 A 
ATOM     12  C   UNL     1       7.750   1.571  22.339  0.00  0.00    +0.019 A 
ATOM     13 BR   UNL     1       6.761   3.168  22.561  0.00  0.00    -0.050 Br
ATOM     14  C   UNL     1       7.182   0.351  22.717  0.00  0.00    +0.028 A 
ATOM     15  C   UNL     1       7.893  -0.858  22.591  0.00  0.00    +0.041 A 
BRANCH   9  16
ATOM     16  O   UNL     1      10.001  -1.873  21.903  0.00  0.00    -0.506 OA
ATOM     17  H   UNL     1      10.729  -1.624  21.307  0.00  0.00    +0.292 HD
ENDBRANCH   9  16
ENDBRANCH   1  15
BRANCH   7  18
ATOM     18  C   UNL     1       4.822  -3.593  25.485  0.00  0.00    -0.016 A 
ATOM     19  C   UNL     1       3.457  -3.351  25.262  0.00  0.00    +0.008 A 
ATOM     20  C   UNL     1       2.554  -3.373  26.325  0.00  0.00    +0.001 A 
ATOM     21  C   UNL     1       3.003  -3.628  27.620  0.00  0.00    +0.000 A 
ATOM     22  C   UNL     1       4.358  -3.856  27.852  0.00  0.00    +0.001 A 
ATOM     23  C   UNL     1       5.269  -3.835  26.791  0.00  0.00    +0.008 A 
ENDBRANCH   7  18
BRANCH   6  24
ATOM     24  C   UNL     1       5.415  -5.901  23.813  0.00  0.00    +0.105 C 
ATOM     25  N   UNL     1       4.908  -6.928  24.025  0.00  0.00    -0.191 NA
ENDBRANCH   6  24
TORSDOF 4
ENDMDL
MODEL 4
REMARK VINA RESULT:      -6.3      4.881      9.171
REMARK  Name = 
REMARK  4 active torsions:
REMARK  status: ('A' for Active; 'I' for Inactive)
REMARK    1  A    between atoms: O_1  and  C_2
REMARK    2  A    between atoms: C_3  and  C_9
REMARK    3  A    between atoms: C_11  and  C_12
REMARK    4  A    between atoms: C_18  and  C_19
REMARK                            x       y       z     vdW  Elec       q    Type
REMARK                         _______ _______ _______ _____ _____    ______ ____
ROOT
ATOM      1  C   UNL     1       8.558   1.650  23.292  0.00  0.00    +0.053 A 
ATOM      2  N   UNL     1       7.461   2.043  22.564  0.00  0.00    -0.321 N 
ATOM      3  H   UNL     1       6.881   1.344  22.105  0.00  0.00    +0.169 HD
ATOM      4  C   UNL     1       7.065   3.348  22.385  0.00  0.00    +0.267 A 
ATOM      5  O   UNL     1       6.019   3.606  21.798  0.00  0.00    -0.266 OA
ATOM      6  C   UNL     1       7.970   4.409  22.925  0.00  0.00    +0.124 A 
ATOM      7  C   UNL     1       9.081   4.028  23.596  0.00  0.00    +0.007 A 
ATOM      8  C   UNL     1       9.335   2.608  23.830  0.00  0.00    +0.036 A 
ENDROOT
BRANCH   1  15
ATOM      9  C   UNL     1       9.462  -0.587  22.463  0.00  0.00    +0.126 A 
ATOM     10  C   UNL     1       9.776  -1.931  22.675  0.00  0.00    +0.047 A 
ATOM     11  C   UNL     1       9.435  -2.547  23.877  0.00  0.00    +0.019 A 
ATOM     12  C   UNL     1       8.802  -1.801  24.864  0.00  0.00    +0.019 A 
ATOM     13 BR   UNL     1       8.325  -2.621  26.501  0.00  0.00    -0.050 Br
ATOM     14  C   UNL     1       8.518  -0.447  24.664  0.00  0.00    +0.028 A 
ATOM     15  C   UNL     1       8.833   0.197  23.452  0.00  0.00    +0.041 A 
BRANCH   9  16
ATOM     16  O   UNL     1       9.796  -0.091  21.230  0.00  0.00    -0.506 OA
ATOM     17  H   UNL     1      10.296  -0.782  20.760  0.00  0.00    +0.292 HD
ENDBRANCH   9  16
ENDBRANCH   1  15
BRANCH   7  18
ATOM     18  C   UNL     1      10.063   5.033  24.072  0.00  0.00    -0.016 A 
ATOM     19  C   UNL     1      11.369   5.047  23.557  0.00  0.00    +0.008 A 
ATOM     20  C   UNL     1      12.302   5.974  24.023  0.00  0.00    +0.001 A 
ATOM     21  C   UNL     1      11.945   6.889  25.012  0.00  0.00    +0.000 A 
ATOM     22  C   UNL     1      10.654   6.874  25.539  0.00  0.00    +0.001 A 
ATOM     23  C   UNL     1       9.715   5.946  25.076  0.00  0.00    +0.008 A 
ENDBRANCH   7  18
BRANCH   6  24
ATOM     24  C   UNL     1       7.621   5.763  22.668  0.00  0.00    +0.105 C 
ATOM     25  N   UNL     1       7.317   6.861  22.428  0.00  0.00    -0.191 NA
ENDBRANCH   6  24
TORSDOF 4
ENDMDL
MODEL 5
REMARK VINA RESULT:      -6.3      3.130      6.804
REMARK  Name = 
REMARK  4 active torsions:
REMARK  status: ('A' for Active; 'I' for Inactive)
REMARK    1  A    between atoms: O_1  and  C_2
REMARK    2  A    between atoms: C_3  and  C_9
REMARK    3  A    between atoms: C_11  and  C_12
REMARK    4  A    between atoms: C_18  and  C_19
REMARK                            x       y       z     vdW  Elec       q    Type
REMARK                         _______ _______ _______ _____ _____    ______ ____
ROOT
ATOM      1  C   UNL     1       7.174  -2.483  23.062  0.00  0.00    +0.053 A 
ATOM      2  N   UNL     1       8.497  -2.597  22.711  0.00  0.00    -0.321 N 
ATOM      3  H   UNL     1       8.935  -3.515  22.677  0.00  0.00    +0.169 HD
ATOM      4  C   UNL     1       9.319  -1.540  22.396  0.00  0.00    +0.267 A 
ATOM      5  O   UNL     1      10.464  -1.738  22.003  0.00  0.00    -0.266 OA
ATOM      6  C   UNL     1       8.753  -0.168  22.572  0.00  0.00    +0.124 A 
ATOM      7  C   UNL     1       7.466  -0.048  22.970  0.00  0.00    +0.007 A 
ATOM      8  C   UNL     1       6.651  -1.246  23.157  0.00  0.00    +0.036 A 
ENDROOT
BRANCH   1  15
ATOM      9  C   UNL     1       5.748  -4.455  22.298  0.00  0.00    +0.126 A 
ATOM     10  C   UNL     1       5.081  -5.654  22.561  0.00  0.00    +0.047 A 
ATOM     11  C   UNL     1       5.001  -6.138  23.865  0.00  0.00    +0.019 A 
ATOM     12  C   UNL     1       5.610  -5.424  24.891  0.00  0.00    +0.019 A 
ATOM     13 BR   UNL     1       5.507  -6.061  26.668  0.00  0.00    -0.050 Br
ATOM     14  C   UNL     1       6.306  -4.241  24.622  0.00  0.00    +0.028 A 
ATOM     15  C   UNL     1       6.386  -3.719  23.317  0.00  0.00    +0.041 A 
BRANCH   9  16
ATOM     16  O   UNL     1       5.726  -4.043  20.992  0.00  0.00    -0.506 OA
ATOM     17  H   UNL     1       5.599  -4.832  20.436  0.00  0.00    +0.292 HD
ENDBRANCH   9  16
ENDBRANCH   1  15
BRANCH   7  18
ATOM     18  C   UNL     1       6.877   1.285  23.251  0.00  0.00    -0.016 A 
ATOM     19  C   UNL     1       6.474   2.117  22.196  0.00  0.00    +0.008 A 
ATOM     20  C   UNL     1       5.944   3.382  22.457  0.00  0.00    +0.001 A 
ATOM     21  C   UNL     1       5.820   3.831  23.771  0.00  0.00    +0.000 A 
ATOM     22  C   UNL     1       6.231   3.016  24.824  0.00  0.00    +0.001 A 
ATOM     23  C   UNL     1       6.763   1.748  24.568  0.00  0.00    +0.008 A 
ENDBRANCH   7  18
BRANCH   6  24
ATOM     24  C   UNL     1       9.619   0.935  22.340  0.00  0.00    +0.105 C 
ATOM     25  N   UNL     1      10.302   1.855  22.132  0.00  0.00    -0.191 NA
ENDBRANCH   6  24
TORSDOF 4
ENDMDL
MODEL 6
REMARK VINA RESULT:      -6.0      2.251      3.039
REMARK  Name = 
REMARK  4 active torsions:
REMARK  status: ('A' for Active; 'I' for Inactive)
REMARK    1  A    between atoms: O_1  and  C_2
REMARK    2  A    between atoms: C_3  and  C_9
REMARK    3  A    between atoms: C_11  and  C_12
REMARK    4  A    between atoms: C_18  and  C_19
REMARK                            x       y       z     vdW  Elec       q    Type
REMARK                         _______ _______ _______ _____ _____    ______ ____
ROOT
ATOM      1  C   UNL     1       7.466  -0.015  24.249  0.00  0.00    +0.053 A 
ATOM      2  N   UNL     1       8.221  -0.040  25.397  0.00  0.00    -0.321 N 
ATOM      3  H   UNL     1       8.655   0.814  25.736  0.00  0.00    +0.169 HD
ATOM      4  C   UNL     1       8.457  -1.163  26.155  0.00  0.00    +0.267 A 
ATOM      5  O   UNL     1       9.065  -1.080  27.217  0.00  0.00    -0.266 OA
ATOM      6  C   UNL     1       7.954  -2.463  25.614  0.00  0.00    +0.124 A 
ATOM      7  C   UNL     1       7.257  -2.452  24.455  0.00  0.00    +0.007 A 
ATOM      8  C   UNL     1       6.961  -1.179  23.800  0.00  0.00    +0.036 A 
ENDROOT
BRANCH   1  15
ATOM      9  C   UNL     1       8.281   2.049  22.991  0.00  0.00    +0.126 A 
ATOM     10  C   UNL     1       8.028   3.227  22.286  0.00  0.00    +0.047 A 
ATOM     11  C   UNL     1       6.724   3.702  22.162  0.00  0.00    +0.019 A 
ATOM     12  C   UNL     1       5.683   2.976  22.728  0.00  0.00    +0.019 A 
ATOM     13 BR   UNL     1       3.906   3.607  22.575  0.00  0.00    -0.050 Br
ATOM     14  C   UNL     1       5.932   1.778  23.405  0.00  0.00    +0.028 A 
ATOM     15  C   UNL     1       7.242   1.286  23.562  0.00  0.00    +0.041 A 
BRANCH   9  16
ATOM     16  O   UNL     1       9.600   1.696  23.097  0.00  0.00    -0.506 OA
ATOM     17  H   UNL     1       9.871   1.841  24.021  0.00  0.00    +0.292 HD
ENDBRANCH   9  16
ENDBRANCH   1  15
BRANCH   7  18
ATOM     18  C   UNL     1       6.813  -3.718  23.822  0.00  0.00    -0.016 A 
ATOM     19  C   UNL     1       7.592  -4.321  22.823  0.00  0.00    +0.008 A 
ATOM     20  C   UNL     1       7.163  -5.498  22.208  0.00  0.00    +0.001 A 
ATOM     21  C   UNL     1       5.951  -6.079  22.576  0.00  0.00    +0.000 A 
ATOM     22  C   UNL     1       5.164  -5.479  23.558  0.00  0.00    +0.001 A 
ATOM     23  C   UNL     1       5.588  -4.299  24.178  0.00  0.00    +0.008 A 
ENDBRANCH   7  18
BRANCH   6  24
ATOM     24  C   UNL     1       8.271  -3.644  26.340  0.00  0.00    +0.105 C 
ATOM     25  N   UNL     1       8.506  -4.628  26.916  0.00  0.00    -0.191 NA
ENDBRANCH   6  24
TORSDOF 4
ENDMDL
MODEL 7
REMARK VINA RESULT:      -6.0      2.711      6.711
REMARK  Name = 
REMARK  4 active torsions:
REMARK  status: ('A' for Active; 'I' for Inactive)
REMARK    1  A    between atoms: O_1  and  C_2
REMARK    2  A    between atoms: C_3  and  C_9
REMARK    3  A    between atoms: C_11  and  C_12
REMARK    4  A    between atoms: C_18  and  C_19
REMARK                            x       y       z     vdW  Elec       q    Type
REMARK                         _______ _______ _______ _____ _____    ______ ____
ROOT
ATOM      1  C   UNL     1       7.533  -2.467  23.833  0.00  0.00    +0.053 A 
ATOM      2  N   UNL     1       8.815  -2.588  23.356  0.00  0.00    -0.321 N 
ATOM      3  H   UNL     1       9.291  -3.486  23.403  0.00  0.00    +0.169 HD
ATOM      4  C   UNL     1       9.547  -1.562  22.805  0.00  0.00    +0.267 A 
ATOM      5  O   UNL     1      10.652  -1.778  22.317  0.00  0.00    -0.266 OA
ATOM      6  C   UNL     1       8.937  -0.198  22.846  0.00  0.00    +0.124 A 
ATOM      7  C   UNL     1       7.695  -0.063  23.366  0.00  0.00    +0.007 A 
ATOM      8  C   UNL     1       6.964  -1.248  23.810  0.00  0.00    +0.036 A 
ENDROOT
BRANCH   1  15
ATOM      9  C   UNL     1       7.279  -4.404  25.473  0.00  0.00    +0.126 A 
ATOM     10  C   UNL     1       6.561  -5.491  25.977  0.00  0.00    +0.047 A 
ATOM     11  C   UNL     1       5.393  -5.910  25.345  0.00  0.00    +0.019 A 
ATOM     12  C   UNL     1       4.943  -5.220  24.225  0.00  0.00    +0.019 A 
ATOM     13 BR   UNL     1       3.362  -5.777  23.350  0.00  0.00    -0.050 Br
ATOM     14  C   UNL     1       5.644  -4.111  23.741  0.00  0.00    +0.028 A 
ATOM     15  C   UNL     1       6.838  -3.678  24.348  0.00  0.00    +0.041 A 
BRANCH   9  16
ATOM     16  O   UNL     1       8.439  -4.105  26.138  0.00  0.00    -0.506 OA
ATOM     17  H   UNL     1       8.622  -4.836  26.754  0.00  0.00    +0.292 HD
ENDBRANCH   9  16
ENDBRANCH   1  15
BRANCH   7  18
ATOM     18  C   UNL     1       7.076   1.276  23.519  0.00  0.00    -0.016 A 
ATOM     19  C   UNL     1       7.081   1.920  24.767  0.00  0.00    +0.008 A 
ATOM     20  C   UNL     1       6.476   3.168  24.919  0.00  0.00    +0.001 A 
ATOM     21  C   UNL     1       5.854   3.782  23.832  0.00  0.00    +0.000 A 
ATOM     22  C   UNL     1       5.833   3.143  22.594  0.00  0.00    +0.001 A 
ATOM     23  C   UNL     1       6.437   1.892  22.435  0.00  0.00    +0.008 A 
ENDBRANCH   7  18
BRANCH   6  24
ATOM     24  C   UNL     1       9.719   0.887  22.364  0.00  0.00    +0.105 C 
ATOM     25  N   UNL     1      10.331   1.796  21.971  0.00  0.00    -0.191 NA
ENDBRANCH   6  24
TORSDOF 4
ENDMDL
MODEL 8
REMARK VINA RESULT:      -5.9      3.965      6.781
REMARK  Name = 
REMARK  4 active torsions:
REMARK  status: ('A' for Active; 'I' for Inactive)
REMARK    1  A    between atoms: O_1  and  C_2
REMARK    2  A    between atoms: C_3  and  C_9
REMARK    3  A    between atoms: C_11  and  C_12
REMARK    4  A    between atoms: C_18  and  C_19
REMARK                            x       y       z     vdW  Elec       q    Type
REMARK                         _______ _______ _______ _____ _____    ______ ____
ROOT
ATOM      1  C   UNL     1       8.594  -1.211  25.033  0.00  0.00    +0.053 A 
ATOM      2  N   UNL     1       9.889  -0.751  25.041  0.00  0.00    -0.321 N 
ATOM      3  H   UNL     1      10.640  -1.357  25.363  0.00  0.00    +0.169 HD
ATOM      4  C   UNL     1      10.276   0.508  24.644  0.00  0.00    +0.267 A 
ATOM      5  O   UNL     1      11.465   0.807  24.594  0.00  0.00    -0.266 OA
ATOM      6  C   UNL     1       9.187   1.473  24.299  0.00  0.00    +0.124 A 
ATOM      7  C   UNL     1       7.906   1.041  24.342  0.00  0.00    +0.007 A 
ATOM      8  C   UNL     1       7.623  -0.357  24.660  0.00  0.00    +0.036 A 
ENDROOT
BRANCH   1  15
ATOM      9  C   UNL     1       9.119  -3.707  25.010  0.00  0.00    +0.126 A 
ATOM     10  C   UNL     1       8.888  -5.007  25.465  0.00  0.00    +0.047 A 
ATOM     11  C   UNL     1       7.829  -5.267  26.332  0.00  0.00    +0.019 A 
ATOM     12  C   UNL     1       7.024  -4.214  26.752  0.00  0.00    +0.019 A 
ATOM     13 BR   UNL     1       5.577  -4.547  27.924  0.00  0.00    -0.050 Br
ATOM     14  C   UNL     1       7.276  -2.907  26.323  0.00  0.00    +0.028 A 
ATOM     15  C   UNL     1       8.327  -2.619  25.432  0.00  0.00    +0.041 A 
BRANCH   9  16
ATOM     16  O   UNL     1      10.154  -3.568  24.123  0.00  0.00    -0.506 OA
ATOM     17  H   UNL     1       9.981  -4.164  23.373  0.00  0.00    +0.292 HD
ENDBRANCH   9  16
ENDBRANCH   1  15
BRANCH   7  18
ATOM     18  C   UNL     1       6.780   1.976  24.101  0.00  0.00    -0.016 A 
ATOM     19  C   UNL     1       6.122   2.587  25.180  0.00  0.00    +0.008 A 
ATOM     20  C   UNL     1       5.046   3.446  24.957  0.00  0.00    +0.001 A 
ATOM     21  C   UNL     1       4.610   3.698  23.656  0.00  0.00    +0.000 A 
ATOM     22  C   UNL     1       5.249   3.086  22.580  0.00  0.00    +0.001 A 
ATOM     23  C   UNL     1       6.328   2.223  22.798  0.00  0.00    +0.008 A 
ENDBRANCH   7  18
BRANCH   6  24
ATOM     24  C   UNL     1       9.568   2.804  23.976  0.00  0.00    +0.105 C 
ATOM     25  N   UNL     1       9.854   3.895  23.686  0.00  0.00    -0.191 NA
ENDBRANCH   6  24
TORSDOF 4
ENDMDL
MODEL 9
REMARK VINA RESULT:      -5.9      2.678      3.464
REMARK  Name = 
REMARK  4 active torsions:
REMARK  status: ('A' for Active; 'I' for Inactive)
REMARK    1  A    between atoms: O_1  and  C_2
REMARK    2  A    between atoms: C_3  and  C_9
REMARK    3  A    between atoms: C_11  and  C_12
REMARK    4  A    between atoms: C_18  and  C_19
REMARK                            x       y       z     vdW  Elec       q    Type
REMARK                         _______ _______ _______ _____ _____    ______ ____
ROOT
ATOM      1  C   UNL     1       7.378  -0.044  24.222  0.00  0.00    +0.053 A 
ATOM      2  N   UNL     1       6.366   0.096  25.141  0.00  0.00    -0.321 N 
ATOM      3  H   UNL     1       6.336   0.917  25.740  0.00  0.00    +0.169 HD
ATOM      4  C   UNL     1       5.353  -0.814  25.337  0.00  0.00    +0.267 A 
ATOM      5  O   UNL     1       4.436  -0.568  26.113  0.00  0.00    -0.266 OA
ATOM      6  C   UNL     1       5.441  -2.098  24.575  0.00  0.00    +0.124 A 
ATOM      7  C   UNL     1       6.466  -2.264  23.708  0.00  0.00    +0.007 A 
ATOM      8  C   UNL     1       7.416  -1.175  23.493  0.00  0.00    +0.036 A 
ENDROOT
BRANCH   1  15
ATOM      9  C   UNL     1       9.767   0.847  24.159  0.00  0.00    +0.126 A 
ATOM     10  C   UNL     1      10.678   1.882  23.940  0.00  0.00    +0.047 A 
ATOM     11  C   UNL     1      10.222   3.169  23.666  0.00  0.00    +0.019 A 
ATOM     12  C   UNL     1       8.853   3.401  23.593  0.00  0.00    +0.019 A 
ATOM     13 BR   UNL     1       8.213   5.143  23.228  0.00  0.00    -0.050 Br
ATOM     14  C   UNL     1       7.941   2.357  23.779  0.00  0.00    +0.028 A 
ATOM     15  C   UNL     1       8.375   1.051  24.076  0.00  0.00    +0.041 A 
BRANCH   9  16
ATOM     16  O   UNL     1      10.319  -0.369  24.469  0.00  0.00    -0.506 OA
ATOM     17  H   UNL     1       9.907  -1.035  23.891  0.00  0.00    +0.292 HD
ENDBRANCH   9  16
ENDBRANCH   1  15
BRANCH   7  18
ATOM     18  C   UNL     1       6.658  -3.550  22.995  0.00  0.00    -0.016 A 
ATOM     19  C   UNL     1       5.977  -3.802  21.793  0.00  0.00    +0.008 A 
ATOM     20  C   UNL     1       6.136  -5.022  21.134  0.00  0.00    +0.001 A 
ATOM     21  C   UNL     1       6.967  -6.004  21.670  0.00  0.00    +0.000 A 
ATOM     22  C   UNL     1       7.636  -5.768  22.870  0.00  0.00    +0.001 A 
ATOM     23  C   UNL     1       7.481  -4.547  23.536  0.00  0.00    +0.008 A 
ENDBRANCH   7  18
BRANCH   6  24
ATOM     24  C   UNL     1       4.452  -3.085  24.835  0.00  0.00    +0.105 C 
ATOM     25  N   UNL     1       3.627  -3.872  25.073  0.00  0.00    -0.191 NA
ENDBRANCH   6  24
TORSDOF 4
ENDMDL
