MODEL 1
REMARK VINA RESULT:      -7.4      0.000      0.000
REMARK  Name = 
REMARK  9 active torsions:
REMARK  status: ('A' for Active; 'I' for Inactive)
REMARK    1  A    between atoms: C_2  and  O_3
REMARK    2  A    between atoms: C_6  and  O_8
REMARK    3  A    between atoms: C_9  and  O_11
REMARK    4  A    between atoms: O_11  and  C_12
REMARK    5  A    between atoms: C_12  and  C_14
REMARK    6  A    between atoms: C_15  and  O_16
REMARK    7  A    between atoms: C_20  and  C_21
REMARK    8  A    between atoms: C_23  and  O_24
REMARK    9  A    between atoms: O_24  and  C_25
REMARK                            x       y       z     vdW  Elec       q    Type
REMARK                         _______ _______ _______ _____ _____    ______ ____
ROOT
ATOM      1  C   UNL     1       8.113  -4.428  25.234  0.00  0.00    +0.108 A 
ATOM      2  C   UNL     1       6.898  -4.756  24.569  0.00  0.00    +0.003 A 
ATOM      3  C   UNL     1       5.840  -5.364  25.305  0.00  0.00    -0.014 A 
ATOM      4  C   UNL     1       4.617  -5.676  24.650  0.00  0.00    -0.039 A 
ATOM      5  C   UNL     1       4.509  -5.507  23.259  0.00  0.00    +0.049 A 
ATOM      6  C   UNL     1       5.563  -4.991  22.518  0.00  0.00    +0.121 A 
ATOM      7  C   UNL     1       3.409  -6.268  25.339  0.00  0.00    +0.044 C 
ATOM      8  C   UNL     1       6.066  -5.667  26.668  0.00  0.00    +0.012 A 
ATOM      9  C   UNL     1       7.312  -5.479  27.260  0.00  0.00    +0.047 A 
ATOM     10  C   UNL     1       6.719  -4.576  23.177  0.00  0.00    +0.055 A 
ATOM     11  C   UNL     1       8.334  -4.893  26.537  0.00  0.00    +0.131 A 
ENDROOT
BRANCH   1  12
ATOM     12  C   UNL     1       9.186  -3.581  24.638  0.00  0.00    +0.344 C 
ATOM     13  O   UNL     1      10.284  -4.018  24.339  0.00  0.00    -0.245 OA
BRANCH  12  14
ATOM     14  O   UNL     1       8.836  -2.269  24.688  0.00  0.00    -0.452 OA
BRANCH  14  16
ATOM     15  C   UNL     1       9.495   0.075  24.593  0.00  0.00    +0.181 C 
ATOM     16  C   UNL     1       9.718  -1.341  24.001  0.00  0.00    +0.241 C 
ATOM     17  C   UNL     1       9.349  -1.204  22.500  0.00  0.00    +0.181 C 
ATOM     18  C   UNL     1       9.269   0.268  22.272  0.00  0.00    +0.006 C 
ATOM     19  C   UNL     1       9.355   0.967  23.403  0.00  0.00    +0.006 C 
BRANCH  15  20
ATOM     20  O   UNL     1      10.611   0.491  25.371  0.00  0.00    -0.384 OA
ATOM     21  H   UNL     1      11.396   0.497  24.797  0.00  0.00    +0.210 HD
ENDBRANCH  15  20
BRANCH  17  22
ATOM     22  O   UNL     1      10.339  -1.701  21.609  0.00  0.00    -0.384 OA
ATOM     23  H   UNL     1      10.858  -2.388  22.057  0.00  0.00    +0.210 HD
ENDBRANCH  17  22
ENDBRANCH  14  16
ENDBRANCH  12  14
ENDBRANCH   1  12
BRANCH   6  24
ATOM     24  O   UNL     1       5.593  -4.858  21.157  0.00  0.00    -0.495 OA
ATOM     25  C   UNL     1       6.158  -5.942  20.427  0.00  0.00    +0.277 C 
ENDBRANCH   6  24
BRANCH  11  26
ATOM     26  O   UNL     1       9.553  -4.827  27.165  0.00  0.00    -0.506 OA
ATOM     27  H   UNL     1       9.807  -5.733  27.449  0.00  0.00    +0.292 HD
ENDBRANCH  11  26
TORSDOF 7
ENDMDL
MODEL 2
REMARK VINA RESULT:      -7.0      1.222      3.482
REMARK  Name = 
REMARK  9 active torsions:
REMARK  status: ('A' for Active; 'I' for Inactive)
REMARK    1  A    between atoms: C_2  and  O_3
REMARK    2  A    between atoms: C_6  and  O_8
REMARK    3  A    between atoms: C_9  and  O_11
REMARK    4  A    between atoms: O_11  and  C_12
REMARK    5  A    between atoms: C_12  and  C_14
REMARK    6  A    between atoms: C_15  and  O_16
REMARK    7  A    between atoms: C_20  and  C_21
REMARK    8  A    between atoms: C_23  and  O_24
REMARK    9  A    between atoms: O_24  and  C_25
REMARK                            x       y       z     vdW  Elec       q    Type
REMARK                         _______ _______ _______ _____ _____    ______ ____
ROOT
ATOM      1  C   UNL     1       7.362  -4.095  23.997  0.00  0.00    +0.108 A 
ATOM      2  C   UNL     1       6.689  -4.915  24.945  0.00  0.00    +0.003 A 
ATOM      3  C   UNL     1       5.548  -5.665  24.537  0.00  0.00    -0.014 A 
ATOM      4  C   UNL     1       4.883  -6.502  25.476  0.00  0.00    -0.039 A 
ATOM      5  C   UNL     1       5.272  -6.478  26.827  0.00  0.00    +0.049 A 
ATOM      6  C   UNL     1       6.331  -5.689  27.251  0.00  0.00    +0.121 A 
ATOM      7  C   UNL     1       3.702  -7.383  25.145  0.00  0.00    +0.044 C 
ATOM      8  C   UNL     1       5.098  -5.518  23.204  0.00  0.00    +0.012 A 
ATOM      9  C   UNL     1       5.676  -4.596  22.337  0.00  0.00    +0.047 A 
ATOM     10  C   UNL     1       7.057  -4.960  26.311  0.00  0.00    +0.055 A 
ATOM     11  C   UNL     1       6.780  -3.870  22.742  0.00  0.00    +0.131 A 
ENDROOT
BRANCH   1  12
ATOM     12  C   UNL     1       8.690  -3.462  24.238  0.00  0.00    +0.344 C 
ATOM     13  O   UNL     1       9.705  -4.109  24.439  0.00  0.00    -0.245 OA
BRANCH  12  14
ATOM     14  O   UNL     1       8.553  -2.122  24.409  0.00  0.00    -0.452 OA
BRANCH  14  16
ATOM     15  C   UNL     1       9.484   0.123  24.598  0.00  0.00    +0.181 C 
ATOM     16  C   UNL     1       9.687  -1.303  24.020  0.00  0.00    +0.241 C 
ATOM     17  C   UNL     1       9.749  -1.100  22.483  0.00  0.00    +0.181 C 
ATOM     18  C   UNL     1       9.905   0.373  22.309  0.00  0.00    +0.006 C 
ATOM     19  C   UNL     1       9.770   1.041  23.455  0.00  0.00    +0.006 C 
BRANCH  15  20
ATOM     20  O   UNL     1      10.395   0.385  25.658  0.00  0.00    -0.384 OA
ATOM     21  H   UNL     1      10.464  -0.416  26.205  0.00  0.00    +0.210 HD
ENDBRANCH  15  20
BRANCH  17  22
ATOM     22  O   UNL     1      10.874  -1.706  21.860  0.00  0.00    -0.384 OA
ATOM     23  H   UNL     1      11.530  -1.938  22.537  0.00  0.00    +0.210 HD
ENDBRANCH  17  22
ENDBRANCH  14  16
ENDBRANCH  12  14
ENDBRANCH   1  12
BRANCH   6  24
ATOM     24  O   UNL     1       6.742  -5.533  28.547  0.00  0.00    -0.495 OA
ATOM     25  C   UNL     1       6.050  -6.298  29.528  0.00  0.00    +0.277 C 
ENDBRANCH   6  24
BRANCH  11  26
ATOM     26  O   UNL     1       7.232  -2.921  21.860  0.00  0.00    -0.506 OA
ATOM     27  H   UNL     1       6.493  -2.306  21.658  0.00  0.00    +0.292 HD
ENDBRANCH  11  26
TORSDOF 7
ENDMDL
MODEL 3
REMARK VINA RESULT:      -7.0      2.549      6.440
REMARK  Name = 
REMARK  9 active torsions:
REMARK  status: ('A' for Active; 'I' for Inactive)
REMARK    1  A    between atoms: C_2  and  O_3
REMARK    2  A    between atoms: C_6  and  O_8
REMARK    3  A    between atoms: C_9  and  O_11
REMARK    4  A    between atoms: O_11  and  C_12
REMARK    5  A    between atoms: C_12  and  C_14
REMARK    6  A    between atoms: C_15  and  O_16
REMARK    7  A    between atoms: C_20  and  C_21
REMARK    8  A    between atoms: C_23  and  O_24
REMARK    9  A    between atoms: O_24  and  C_25
REMARK                            x       y       z     vdW  Elec       q    Type
REMARK                         _______ _______ _______ _____ _____    ______ ____
ROOT
ATOM      1  C   UNL     1       8.308  -1.072  22.592  0.00  0.00    +0.108 A 
ATOM      2  C   UNL     1       7.424  -0.072  23.087  0.00  0.00    +0.003 A 
ATOM      3  C   UNL     1       7.592   1.279  22.668  0.00  0.00    -0.014 A 
ATOM      4  C   UNL     1       6.700   2.279  23.144  0.00  0.00    -0.039 A 
ATOM      5  C   UNL     1       5.746   1.952  24.124  0.00  0.00    +0.049 A 
ATOM      6  C   UNL     1       5.627   0.655  24.599  0.00  0.00    +0.121 A 
ATOM      7  C   UNL     1       6.746   3.731  22.726  0.00  0.00    +0.044 C 
ATOM      8  C   UNL     1       8.677   1.580  21.811  0.00  0.00    +0.012 A 
ATOM      9  C   UNL     1       9.619   0.617  21.462  0.00  0.00    +0.047 A 
ATOM     10  C   UNL     1       6.422  -0.349  24.047  0.00  0.00    +0.055 A 
ATOM     11  C   UNL     1       9.450  -0.691  21.876  0.00  0.00    +0.131 A 
ENDROOT
BRANCH   1  12
ATOM     12  C   UNL     1       8.087  -2.537  22.762  0.00  0.00    +0.344 C 
ATOM     13  O   UNL     1       7.214  -3.148  22.168  0.00  0.00    -0.245 OA
BRANCH  12  14
ATOM     14  O   UNL     1       8.827  -3.011  23.798  0.00  0.00    -0.452 OA
BRANCH  14  16
ATOM     15  C   UNL     1       7.096  -3.797  25.322  0.00  0.00    +0.181 C 
ATOM     16  C   UNL     1       8.321  -4.200  24.461  0.00  0.00    +0.241 C 
ATOM     17  C   UNL     1       9.347  -4.771  25.477  0.00  0.00    +0.181 C 
ATOM     18  C   UNL     1       8.561  -4.958  26.730  0.00  0.00    +0.006 C 
ATOM     19  C   UNL     1       7.336  -4.438  26.649  0.00  0.00    +0.006 C 
BRANCH  15  20
ATOM     20  O   UNL     1       5.886  -4.296  24.764  0.00  0.00    -0.384 OA
ATOM     21  H   UNL     1       5.866  -4.059  23.821  0.00  0.00    +0.210 HD
ENDBRANCH  15  20
BRANCH  17  22
ATOM     22  O   UNL     1       9.865  -6.047  25.126  0.00  0.00    -0.384 OA
ATOM     23  H   UNL     1       9.886  -6.131  24.160  0.00  0.00    +0.210 HD
ENDBRANCH  17  22
ENDBRANCH  14  16
ENDBRANCH  12  14
ENDBRANCH   1  12
BRANCH   6  24
ATOM     24  O   UNL     1       4.791   0.244  25.601  0.00  0.00    -0.495 OA
ATOM     25  C   UNL     1       5.318  -0.713  26.513  0.00  0.00    +0.277 C 
ENDBRANCH   6  24
BRANCH  11  26
ATOM     26  O   UNL     1      10.469  -1.556  21.565  0.00  0.00    -0.506 OA
ATOM     27  H   UNL     1      10.123  -2.474  21.607  0.00  0.00    +0.292 HD
ENDBRANCH  11  26
TORSDOF 7
ENDMDL
MODEL 4
REMARK VINA RESULT:      -6.7      1.605      2.374
REMARK  Name = 
REMARK  9 active torsions:
REMARK  status: ('A' for Active; 'I' for Inactive)
REMARK    1  A    between atoms: C_2  and  O_3
REMARK    2  A    between atoms: C_6  and  O_8
REMARK    3  A    between atoms: C_9  and  O_11
REMARK    4  A    between atoms: O_11  and  C_12
REMARK    5  A    between atoms: C_12  and  C_14
REMARK    6  A    between atoms: C_15  and  O_16
REMARK    7  A    between atoms: C_20  and  C_21
REMARK    8  A    between atoms: C_23  and  O_24
REMARK    9  A    between atoms: O_24  and  C_25
REMARK                            x       y       z     vdW  Elec       q    Type
REMARK                         _______ _______ _______ _____ _____    ______ ____
ROOT
ATOM      1  C   UNL     1       7.787  -3.405  23.885  0.00  0.00    +0.108 A 
ATOM      2  C   UNL     1       6.620  -4.132  24.254  0.00  0.00    +0.003 A 
ATOM      3  C   UNL     1       6.642  -4.942  25.426  0.00  0.00    -0.014 A 
ATOM      4  C   UNL     1       5.473  -5.655  25.810  0.00  0.00    -0.039 A 
ATOM      5  C   UNL     1       4.351  -5.661  24.963  0.00  0.00    +0.049 A 
ATOM      6  C   UNL     1       4.347  -4.940  23.778  0.00  0.00    +0.121 A 
ATOM      7  C   UNL     1       5.361  -6.499  27.059  0.00  0.00    +0.044 C 
ATOM      8  C   UNL     1       7.854  -5.032  26.149  0.00  0.00    +0.012 A 
ATOM      9  C   UNL     1       9.025  -4.438  25.688  0.00  0.00    +0.047 A 
ATOM     10  C   UNL     1       5.450  -4.147  23.459  0.00  0.00    +0.055 A 
ATOM     11  C   UNL     1       8.995  -3.656  24.548  0.00  0.00    +0.131 A 
ENDROOT
BRANCH   1  12
ATOM     12  C   UNL     1       7.811  -2.348  22.834  0.00  0.00    +0.344 C 
ATOM     13  O   UNL     1       8.106  -2.577  21.673  0.00  0.00    -0.245 OA
BRANCH  12  14
ATOM     14  O   UNL     1       7.678  -1.118  23.394  0.00  0.00    -0.452 OA
BRANCH  14  16
ATOM     15  C   UNL     1       9.246   0.359  24.535  0.00  0.00    +0.181 C 
ATOM     16  C   UNL     1       8.765  -0.183  23.163  0.00  0.00    +0.241 C 
ATOM     17  C   UNL     1       8.286   1.074  22.389  0.00  0.00    +0.181 C 
ATOM     18  C   UNL     1       8.805   2.221  23.189  0.00  0.00    +0.006 C 
ATOM     19  C   UNL     1       9.333   1.838  24.351  0.00  0.00    +0.006 C 
BRANCH  15  20
ATOM     20  O   UNL     1      10.529  -0.156  24.872  0.00  0.00    -0.384 OA
ATOM     21  H   UNL     1      10.531  -1.111  24.689  0.00  0.00    +0.210 HD
ENDBRANCH  15  20
BRANCH  17  22
ATOM     22  O   UNL     1       8.840   1.201  21.086  0.00  0.00    -0.384 OA
ATOM     23  H   UNL     1       8.746   2.119  20.786  0.00  0.00    +0.210 HD
ENDBRANCH  17  22
ENDBRANCH  14  16
ENDBRANCH  12  14
ENDBRANCH   1  12
BRANCH   6  24
ATOM     24  O   UNL     1       3.345  -4.937  22.847  0.00  0.00    -0.495 OA
ATOM     25  C   UNL     1       2.083  -5.440  23.273  0.00  0.00    +0.277 C 
ENDBRANCH   6  24
BRANCH  11  26
ATOM     26  O   UNL     1      10.207  -3.183  24.113  0.00  0.00    -0.506 OA
ATOM     27  H   UNL     1      10.450  -3.657  23.288  0.00  0.00    +0.292 HD
ENDBRANCH  11  26
TORSDOF 7
ENDMDL
MODEL 5
REMARK VINA RESULT:      -6.5      1.844      2.628
REMARK  Name = 
REMARK  9 active torsions:
REMARK  status: ('A' for Active; 'I' for Inactive)
REMARK    1  A    between atoms: C_2  and  O_3
REMARK    2  A    between atoms: C_6  and  O_8
REMARK    3  A    between atoms: C_9  and  O_11
REMARK    4  A    between atoms: O_11  and  C_12
REMARK    5  A    between atoms: C_12  and  C_14
REMARK    6  A    between atoms: C_15  and  O_16
REMARK    7  A    between atoms: C_20  and  C_21
REMARK    8  A    between atoms: C_23  and  O_24
REMARK    9  A    between atoms: O_24  and  C_25
REMARK                            x       y       z     vdW  Elec       q    Type
REMARK                         _______ _______ _______ _____ _____    ______ ____
ROOT
ATOM      1  C   UNL     1       7.148  -5.085  24.802  0.00  0.00    +0.108 A 
ATOM      2  C   UNL     1       5.740  -4.981  24.981  0.00  0.00    +0.003 A 
ATOM      3  C   UNL     1       5.204  -4.933  26.300  0.00  0.00    -0.014 A 
ATOM      4  C   UNL     1       3.800  -4.809  26.485  0.00  0.00    -0.039 A 
ATOM      5  C   UNL     1       2.943  -4.871  25.372  0.00  0.00    +0.049 A 
ATOM      6  C   UNL     1       3.450  -4.999  24.087  0.00  0.00    +0.121 A 
ATOM      7  C   UNL     1       3.125  -4.692  27.832  0.00  0.00    +0.044 C 
ATOM      8  C   UNL     1       6.103  -5.046  27.387  0.00  0.00    +0.012 A 
ATOM      9  C   UNL     1       7.457  -5.301  27.191  0.00  0.00    +0.047 A 
ATOM     10  C   UNL     1       4.831  -5.002  23.897  0.00  0.00    +0.055 A 
ATOM     11  C   UNL     1       7.967  -5.350  25.907  0.00  0.00    +0.131 A 
ENDROOT
BRANCH   1  12
ATOM     12  C   UNL     1       7.837  -4.902  23.492  0.00  0.00    +0.344 C 
ATOM     13  O   UNL     1       7.798  -5.735  22.602  0.00  0.00    -0.245 OA
BRANCH  12  14
ATOM     14  O   UNL     1       8.653  -3.817  23.533  0.00  0.00    -0.452 OA
BRANCH  14  16
ATOM     15  C   UNL     1       9.447  -1.677  22.678  0.00  0.00    +0.181 C 
ATOM     16  C   UNL     1       8.274  -2.693  22.695  0.00  0.00    +0.241 C 
ATOM     17  C   UNL     1       7.079  -1.906  23.295  0.00  0.00    +0.181 C 
ATOM     18  C   UNL     1       7.524  -0.483  23.271  0.00  0.00    +0.006 C 
ATOM     19  C   UNL     1       8.806  -0.352  22.930  0.00  0.00    +0.006 C 
BRANCH  15  20
ATOM     20  O   UNL     1      10.096  -1.659  21.412  0.00  0.00    -0.384 OA
ATOM     21  H   UNL     1      10.758  -0.946  21.420  0.00  0.00    +0.210 HD
ENDBRANCH  15  20
BRANCH  17  22
ATOM     22  O   UNL     1       5.889  -1.974  22.522  0.00  0.00    -0.384 OA
ATOM     23  H   UNL     1       6.118  -1.971  21.579  0.00  0.00    +0.210 HD
ENDBRANCH  17  22
ENDBRANCH  14  16
ENDBRANCH  12  14
ENDBRANCH   1  12
BRANCH   6  24
ATOM     24  O   UNL     1       2.709  -5.146  22.947  0.00  0.00    -0.495 OA
ATOM     25  C   UNL     1       1.784  -6.228  22.927  0.00  0.00    +0.277 C 
ENDBRANCH   6  24
BRANCH  11  26
ATOM     26  O   UNL     1       9.291  -5.695  25.800  0.00  0.00    -0.506 OA
ATOM     27  H   UNL     1       9.743  -5.027  25.239  0.00  0.00    +0.292 HD
ENDBRANCH  11  26
TORSDOF 7
ENDMDL
MODEL 6
REMARK VINA RESULT:      -6.5      2.456      6.609
REMARK  Name = 
REMARK  9 active torsions:
REMARK  status: ('A' for Active; 'I' for Inactive)
REMARK    1  A    between atoms: C_2  and  O_3
REMARK    2  A    between atoms: C_6  and  O_8
REMARK    3  A    between atoms: C_9  and  O_11
REMARK    4  A    between atoms: O_11  and  C_12
REMARK    5  A    between atoms: C_12  and  C_14
REMARK    6  A    between atoms: C_15  and  O_16
REMARK    7  A    between atoms: C_20  and  C_21
REMARK    8  A    between atoms: C_23  and  O_24
REMARK    9  A    between atoms: O_24  and  C_25
REMARK                            x       y       z     vdW  Elec       q    Type
REMARK                         _______ _______ _______ _____ _____    ______ ____
ROOT
ATOM      1  C   UNL     1       8.421  -1.317  22.841  0.00  0.00    +0.108 A 
ATOM      2  C   UNL     1       7.470  -0.330  23.226  0.00  0.00    +0.003 A 
ATOM      3  C   UNL     1       7.517   0.960  22.623  0.00  0.00    -0.014 A 
ATOM      4  C   UNL     1       6.557   1.943  22.990  0.00  0.00    -0.039 A 
ATOM      5  C   UNL     1       5.657   1.681  24.038  0.00  0.00    +0.049 A 
ATOM      6  C   UNL     1       5.656   0.455  24.688  0.00  0.00    +0.121 A 
ATOM      7  C   UNL     1       6.474   3.323  22.379  0.00  0.00    +0.044 C 
ATOM      8  C   UNL     1       8.552   1.223  21.696  0.00  0.00    +0.012 A 
ATOM      9  C   UNL     1       9.562   0.298  21.448  0.00  0.00    +0.047 A 
ATOM     10  C   UNL     1       6.518  -0.549  24.250  0.00  0.00    +0.055 A 
ATOM     11  C   UNL     1       9.511  -0.950  22.041  0.00  0.00    +0.131 A 
ENDROOT
BRANCH   1  12
ATOM     12  C   UNL     1       8.324  -2.757  23.216  0.00  0.00    +0.344 C 
ATOM     13  O   UNL     1       9.135  -3.307  23.942  0.00  0.00    -0.245 OA
BRANCH  12  14
ATOM     14  O   UNL     1       7.367  -3.376  22.477  0.00  0.00    -0.452 OA
BRANCH  14  16
ATOM     15  C   UNL     1       5.624  -5.046  22.143  0.00  0.00    +0.181 C 
ATOM     16  C   UNL     1       6.805  -4.592  23.039  0.00  0.00    +0.241 C 
ATOM     17  C   UNL     1       6.169  -4.339  24.432  0.00  0.00    +0.181 C 
ATOM     18  C   UNL     1       4.812  -4.951  24.335  0.00  0.00    +0.006 C 
ATOM     19  C   UNL     1       4.514  -5.343  23.096  0.00  0.00    +0.006 C 
BRANCH  15  20
ATOM     20  O   UNL     1       5.952  -6.222  21.413  0.00  0.00    -0.384 OA
ATOM     21  H   UNL     1       5.188  -6.460  20.860  0.00  0.00    +0.210 HD
ENDBRANCH  15  20
BRANCH  17  22
ATOM     22  O   UNL     1       6.835  -4.993  25.504  0.00  0.00    -0.384 OA
ATOM     23  H   UNL     1       7.771  -5.111  25.277  0.00  0.00    +0.210 HD
ENDBRANCH  17  22
ENDBRANCH  14  16
ENDBRANCH  12  14
ENDBRANCH   1  12
BRANCH   6  24
ATOM     24  O   UNL     1       4.881   0.123  25.765  0.00  0.00    -0.495 OA
ATOM     25  C   UNL     1       5.480  -0.725  26.739  0.00  0.00    +0.277 C 
ENDBRANCH   6  24
BRANCH  11  26
ATOM     26  O   UNL     1      10.589  -1.768  21.814  0.00  0.00    -0.506 OA
ATOM     27  H   UNL     1      10.750  -2.304  22.621  0.00  0.00    +0.292 HD
ENDBRANCH  11  26
TORSDOF 7
ENDMDL
MODEL 7
REMARK VINA RESULT:      -6.4      2.555      7.142
REMARK  Name = 
REMARK  9 active torsions:
REMARK  status: ('A' for Active; 'I' for Inactive)
REMARK    1  A    between atoms: C_2  and  O_3
REMARK    2  A    between atoms: C_6  and  O_8
REMARK    3  A    between atoms: C_9  and  O_11
REMARK    4  A    between atoms: O_11  and  C_12
REMARK    5  A    between atoms: C_12  and  C_14
REMARK    6  A    between atoms: C_15  and  O_16
REMARK    7  A    between atoms: C_20  and  C_21
REMARK    8  A    between atoms: C_23  and  O_24
REMARK    9  A    between atoms: O_24  and  C_25
REMARK                            x       y       z     vdW  Elec       q    Type
REMARK                         _______ _______ _______ _____ _____    ______ ____
ROOT
ATOM      1  C   UNL     1       8.631  -0.552  23.324  0.00  0.00    +0.108 A 
ATOM      2  C   UNL     1       8.290   0.656  23.994  0.00  0.00    +0.003 A 
ATOM      3  C   UNL     1       8.593   1.906  23.382  0.00  0.00    -0.014 A 
ATOM      4  C   UNL     1       8.236   3.116  24.038  0.00  0.00    -0.039 A 
ATOM      5  C   UNL     1       7.711   3.073  25.342  0.00  0.00    +0.049 A 
ATOM      6  C   UNL     1       7.486   1.862  25.980  0.00  0.00    +0.121 A 
ATOM      7  C   UNL     1       8.457   4.496  23.462  0.00  0.00    +0.044 C 
ATOM      8  C   UNL     1       9.277   1.891  22.144  0.00  0.00    +0.012 A 
ATOM      9  C   UNL     1       9.739   0.705  21.580  0.00  0.00    +0.047 A 
ATOM     10  C   UNL     1       7.726   0.673  25.292  0.00  0.00    +0.055 A 
ATOM     11  C   UNL     1       9.443  -0.503  22.183  0.00  0.00    +0.131 A 
ENDROOT
BRANCH   1  12
ATOM     12  C   UNL     1       8.154  -1.901  23.743  0.00  0.00    +0.344 C 
ATOM     13  O   UNL     1       8.578  -2.474  24.733  0.00  0.00    -0.245 OA
BRANCH  12  14
ATOM     14  O   UNL     1       7.377  -2.451  22.775  0.00  0.00    -0.452 OA
BRANCH  14  16
ATOM     15  C   UNL     1       7.898  -4.832  22.706  0.00  0.00    +0.181 C 
ATOM     16  C   UNL     1       6.828  -3.765  23.059  0.00  0.00    +0.241 C 
ATOM     17  C   UNL     1       5.624  -4.096  22.136  0.00  0.00    +0.181 C 
ATOM     18  C   UNL     1       5.936  -5.449  21.591  0.00  0.00    +0.006 C 
ATOM     19  C   UNL     1       7.166  -5.856  21.904  0.00  0.00    +0.006 C 
BRANCH  15  20
ATOM     20  O   UNL     1       8.430  -5.436  23.879  0.00  0.00    -0.384 OA
ATOM     21  H   UNL     1       7.911  -5.128  24.642  0.00  0.00    +0.210 HD
ENDBRANCH  15  20
BRANCH  17  22
ATOM     22  O   UNL     1       4.382  -4.207  22.818  0.00  0.00    -0.384 OA
ATOM     23  H   UNL     1       4.383  -5.012  23.359  0.00  0.00    +0.210 HD
ENDBRANCH  17  22
ENDBRANCH  14  16
ENDBRANCH  12  14
ENDBRANCH   1  12
BRANCH   6  24
ATOM     24  O   UNL     1       7.053   1.707  27.269  0.00  0.00    -0.495 OA
ATOM     25  C   UNL     1       7.122   0.390  27.806  0.00  0.00    +0.277 C 
ENDBRANCH   6  24
BRANCH  11  26
ATOM     26  O   UNL     1      10.010  -1.614  21.611  0.00  0.00    -0.506 OA
ATOM     27  H   UNL     1       9.305  -2.279  21.455  0.00  0.00    +0.292 HD
ENDBRANCH  11  26
TORSDOF 7
ENDMDL
MODEL 8
REMARK VINA RESULT:      -6.4      2.409      3.953
REMARK  Name = 
REMARK  9 active torsions:
REMARK  status: ('A' for Active; 'I' for Inactive)
REMARK    1  A    between atoms: C_2  and  O_3
REMARK    2  A    between atoms: C_6  and  O_8
REMARK    3  A    between atoms: C_9  and  O_11
REMARK    4  A    between atoms: O_11  and  C_12
REMARK    5  A    between atoms: C_12  and  C_14
REMARK    6  A    between atoms: C_15  and  O_16
REMARK    7  A    between atoms: C_20  and  C_21
REMARK    8  A    between atoms: C_23  and  O_24
REMARK    9  A    between atoms: O_24  and  C_25
REMARK                            x       y       z     vdW  Elec       q    Type
REMARK                         _______ _______ _______ _____ _____    ______ ____
ROOT
ATOM      1  C   UNL     1       8.865  -0.974  24.054  0.00  0.00    +0.108 A 
ATOM      2  C   UNL     1       8.208  -2.236  24.094  0.00  0.00    +0.003 A 
ATOM      3  C   UNL     1       7.841  -2.793  25.353  0.00  0.00    -0.014 A 
ATOM      4  C   UNL     1       7.167  -4.044  25.399  0.00  0.00    -0.039 A 
ATOM      5  C   UNL     1       6.989  -4.783  24.216  0.00  0.00    +0.049 A 
ATOM      6  C   UNL     1       7.416  -4.286  22.993  0.00  0.00    +0.121 A 
ATOM      7  C   UNL     1       6.680  -4.705  26.668  0.00  0.00    +0.044 C 
ATOM      8  C   UNL     1       8.197  -2.084  26.524  0.00  0.00    +0.012 A 
ATOM      9  C   UNL     1       8.973  -0.930  26.469  0.00  0.00    +0.047 A 
ATOM     10  C   UNL     1       7.970  -3.008  22.933  0.00  0.00    +0.055 A 
ATOM     11  C   UNL     1       9.329  -0.398  25.244  0.00  0.00    +0.131 A 
ENDROOT
BRANCH   1  12
ATOM     12  C   UNL     1       9.078  -0.186  22.806  0.00  0.00    +0.344 C 
ATOM     13  O   UNL     1      10.186   0.037  22.345  0.00  0.00    -0.245 OA
BRANCH  12  14
ATOM     14  O   UNL     1       7.918   0.399  22.411  0.00  0.00    -0.452 OA
BRANCH  14  16
ATOM     15  C   UNL     1       6.124   2.036  22.616  0.00  0.00    +0.181 C 
ATOM     16  C   UNL     1       7.508   1.580  23.149  0.00  0.00    +0.241 C 
ATOM     17  C   UNL     1       8.450   2.783  22.878  0.00  0.00    +0.181 C 
ATOM     18  C   UNL     1       7.530   3.905  22.537  0.00  0.00    +0.006 C 
ATOM     19  C   UNL     1       6.265   3.507  22.401  0.00  0.00    +0.006 C 
BRANCH  15  20
ATOM     20  O   UNL     1       5.097   1.791  23.569  0.00  0.00    -0.384 OA
ATOM     21  H   UNL     1       4.900   2.627  24.025  0.00  0.00    +0.210 HD
ENDBRANCH  15  20
BRANCH  17  22
ATOM     22  O   UNL     1       9.201   3.201  24.011  0.00  0.00    -0.384 OA
ATOM     23  H   UNL     1       8.779   2.867  24.818  0.00  0.00    +0.210 HD
ENDBRANCH  17  22
ENDBRANCH  14  16
ENDBRANCH  12  14
ENDBRANCH   1  12
BRANCH   6  24
ATOM     24  O   UNL     1       7.363  -4.950  21.798  0.00  0.00    -0.495 OA
ATOM     25  C   UNL     1       6.105  -5.514  21.442  0.00  0.00    +0.277 C 
ENDBRANCH   6  24
BRANCH  11  26
ATOM     26  O   UNL     1      10.168   0.687  25.280  0.00  0.00    -0.506 OA
ATOM     27  H   UNL     1      10.782   0.633  24.516  0.00  0.00    +0.292 HD
ENDBRANCH  11  26
TORSDOF 7
ENDMDL
MODEL 9
REMARK VINA RESULT:      -6.4      2.467      6.357
REMARK  Name = 
REMARK  9 active torsions:
REMARK  status: ('A' for Active; 'I' for Inactive)
REMARK    1  A    between atoms: C_2  and  O_3
REMARK    2  A    between atoms: C_6  and  O_8
REMARK    3  A    between atoms: C_9  and  O_11
REMARK    4  A    between atoms: O_11  and  C_12
REMARK    5  A    between atoms: C_12  and  C_14
REMARK    6  A    between atoms: C_15  and  O_16
REMARK    7  A    between atoms: C_20  and  C_21
REMARK    8  A    between atoms: C_23  and  O_24
REMARK    9  A    between atoms: O_24  and  C_25
REMARK                            x       y       z     vdW  Elec       q    Type
REMARK                         _______ _______ _______ _____ _____    ______ ____
ROOT
ATOM      1  C   UNL     1       8.646  -1.307  23.363  0.00  0.00    +0.108 A 
ATOM      2  C   UNL     1       7.657  -0.293  23.506  0.00  0.00    +0.003 A 
ATOM      3  C   UNL     1       7.716   0.863  22.674  0.00  0.00    -0.014 A 
ATOM      4  C   UNL     1       6.720   1.870  22.798  0.00  0.00    -0.039 A 
ATOM      5  C   UNL     1       5.767   1.783  23.829  0.00  0.00    +0.049 A 
ATOM      6  C   UNL     1       5.750   0.702  24.697  0.00  0.00    +0.121 A 
ATOM      7  C   UNL     1       6.647   3.108  21.935  0.00  0.00    +0.044 C 
ATOM      8  C   UNL     1       8.797   0.976  21.769  0.00  0.00    +0.012 A 
ATOM      9  C   UNL     1       9.835   0.049  21.753  0.00  0.00    +0.047 A 
ATOM     10  C   UNL     1       6.653  -0.343  24.501  0.00  0.00    +0.055 A 
ATOM     11  C   UNL     1       9.772  -1.067  22.566  0.00  0.00    +0.131 A 
ENDROOT
BRANCH   1  12
ATOM     12  C   UNL     1       8.554  -2.654  23.997  0.00  0.00    +0.344 C 
ATOM     13  O   UNL     1       8.930  -2.876  25.136  0.00  0.00    -0.245 OA
BRANCH  12  14
ATOM     14  O   UNL     1       8.209  -3.589  23.074  0.00  0.00    -0.452 OA
BRANCH  14  16
ATOM     15  C   UNL     1       6.460  -4.998  24.023  0.00  0.00    +0.181 C 
ATOM     16  C   UNL     1       6.795  -3.905  22.974  0.00  0.00    +0.241 C 
ATOM     17  C   UNL     1       6.447  -4.552  21.607  0.00  0.00    +0.181 C 
ATOM     18  C   UNL     1       5.667  -5.772  21.962  0.00  0.00    +0.006 C 
ATOM     19  C   UNL     1       5.666  -6.015  23.273  0.00  0.00    +0.006 C 
BRANCH  15  20
ATOM     20  O   UNL     1       5.676  -4.470  25.086  0.00  0.00    -0.384 OA
ATOM     21  H   UNL     1       6.053  -4.784  25.926  0.00  0.00    +0.210 HD
ENDBRANCH  15  20
BRANCH  17  22
ATOM     22  O   UNL     1       5.604  -3.756  20.784  0.00  0.00    -0.384 OA
ATOM     23  H   UNL     1       4.678  -3.991  20.949  0.00  0.00    +0.210 HD
ENDBRANCH  17  22
ENDBRANCH  14  16
ENDBRANCH  12  14
ENDBRANCH   1  12
BRANCH   6  24
ATOM     24  O   UNL     1       4.921   0.555  25.775  0.00  0.00    -0.495 OA
ATOM     25  C   UNL     1       5.268  -0.464  26.707  0.00  0.00    +0.277 C 
ENDBRANCH   6  24
BRANCH  11  26
ATOM     26  O   UNL     1      10.876  -1.881  22.554  0.00  0.00    -0.506 OA
ATOM     27  H   UNL     1      10.814  -2.479  21.777  0.00  0.00    +0.292 HD
ENDBRANCH  11  26
TORSDOF 7
ENDMDL
