MODEL 1
REMARK VINA RESULT:      -5.4      0.000      0.000
REMARK  Name = 
REMARK  5 active torsions:
REMARK  status: ('A' for Active; 'I' for Inactive)
REMARK    1  A    between atoms: C_2  and  C_3
REMARK    2  A    between atoms: C_3  and  N_4
REMARK    3  A    between atoms: N_4  and  C_5
REMARK    4  A    between atoms: N_4  and  C_8
REMARK    5  A    between atoms: C_5  and  C_6
REMARK                            x       y       z     vdW  Elec       q    Type
REMARK                         _______ _______ _______ _____ _____    ______ ____
ROOT
ATOM      1  C   UNL     1       7.959  -3.704  24.963  0.00  0.00    +0.111 A 
ATOM      2  C   UNL     1       8.693  -5.030  25.242  0.00  0.00    +0.275 A 
ATOM      3  O   UNL     1       9.555  -5.506  24.505  0.00  0.00    -0.266 OA
ATOM      4  N   UNL     1       8.358  -5.711  26.383  0.00  0.00    -0.274 N 
ATOM      5  H   UNL     1       8.849  -6.571  26.563  0.00  0.00    +0.173 HD
ATOM      6  C   UNL     1       7.376  -5.365  27.252  0.00  0.00    +0.327 A 
ATOM      7  O   UNL     1       7.105  -6.030  28.247  0.00  0.00    -0.247 OA
ATOM      8  N   UNL     1       6.704  -4.227  26.943  0.00  0.00    -0.313 N 
ATOM      9  H   UNL     1       5.972  -3.958  27.592  0.00  0.00    +0.170 HD
ATOM     10  C   UNL     1       6.986  -3.442  25.861  0.00  0.00    +0.116 A 
ENDROOT
BRANCH   1  11
ATOM     11  N   UNL     1       8.328  -2.868  23.849  0.00  0.00    -0.322 N 
BRANCH  11  12
ATOM     12  C   UNL     1       9.477  -1.929  23.948  0.00  0.00    +0.121 C 
BRANCH  12  14
ATOM     13 CL   UNL     1       9.804  -0.196  21.825  0.00  0.00    -0.124 Cl
ATOM     14  C   UNL     1      10.294  -1.677  22.679  0.00  0.00    +0.127 C 
ENDBRANCH  12  14
ENDBRANCH  11  12
BRANCH  11  15
ATOM     15  C   UNL     1       7.756  -3.200  22.504  0.00  0.00    +0.121 C 
BRANCH  15  16
ATOM     16  C   UNL     1       6.664  -4.252  22.320  0.00  0.00    +0.127 C 
ATOM     17 CL   UNL     1       7.278  -5.859  21.867  0.00  0.00    -0.124 Cl
ENDBRANCH  15  16
ENDBRANCH  11  15
ENDBRANCH   1  11
TORSDOF 5
ENDMDL
MODEL 2
REMARK VINA RESULT:      -5.4      0.204      2.979
REMARK  Name = 
REMARK  5 active torsions:
REMARK  status: ('A' for Active; 'I' for Inactive)
REMARK    1  A    between atoms: C_2  and  C_3
REMARK    2  A    between atoms: C_3  and  N_4
REMARK    3  A    between atoms: N_4  and  C_5
REMARK    4  A    between atoms: N_4  and  C_8
REMARK    5  A    between atoms: C_5  and  C_6
REMARK                            x       y       z     vdW  Elec       q    Type
REMARK                         _______ _______ _______ _____ _____    ______ ____
ROOT
ATOM      1  C   UNL     1       7.951  -3.854  24.781  0.00  0.00    +0.111 A 
ATOM      2  C   UNL     1       8.663  -5.177  25.123  0.00  0.00    +0.275 A 
ATOM      3  O   UNL     1       9.489  -5.721  24.392  0.00  0.00    -0.266 OA
ATOM      4  N   UNL     1       8.350  -5.774  26.316  0.00  0.00    -0.274 N 
ATOM      5  H   UNL     1       8.827  -6.633  26.536  0.00  0.00    +0.173 HD
ATOM      6  C   UNL     1       7.405  -5.348  27.191  0.00  0.00    +0.327 A 
ATOM      7  O   UNL     1       7.152  -5.940  28.235  0.00  0.00    -0.247 OA
ATOM      8  N   UNL     1       6.751  -4.216  26.830  0.00  0.00    -0.313 N 
ATOM      9  H   UNL     1       6.047  -3.887  27.482  0.00  0.00    +0.170 HD
ATOM     10  C   UNL     1       7.015  -3.510  25.691  0.00  0.00    +0.116 A 
ENDROOT
BRANCH   1  11
ATOM     11  N   UNL     1       8.303  -3.100  23.605  0.00  0.00    -0.322 N 
BRANCH  11  12
ATOM     12  C   UNL     1       7.506  -3.219  22.355  0.00  0.00    +0.121 C 
BRANCH  12  14
ATOM     13 CL   UNL     1       7.202  -5.882  21.697  0.00  0.00    -0.124 Cl
ATOM     14  C   UNL     1       6.488  -4.358  22.272  0.00  0.00    +0.127 C 
ENDBRANCH  12  14
ENDBRANCH  11  12
BRANCH  11  15
ATOM     15  C   UNL     1       9.266  -1.962  23.764  0.00  0.00    +0.121 C 
BRANCH  15  16
ATOM     16  C   UNL     1      10.289  -1.603  22.688  0.00  0.00    +0.127 C 
ATOM     17 CL   UNL     1       9.806  -0.233  21.661  0.00  0.00    -0.124 Cl
ENDBRANCH  15  16
ENDBRANCH  11  15
ENDBRANCH   1  11
TORSDOF 5
ENDMDL
MODEL 3
REMARK VINA RESULT:      -5.0      1.492      1.982
REMARK  Name = 
REMARK  5 active torsions:
REMARK  status: ('A' for Active; 'I' for Inactive)
REMARK    1  A    between atoms: C_2  and  C_3
REMARK    2  A    between atoms: C_3  and  N_4
REMARK    3  A    between atoms: N_4  and  C_5
REMARK    4  A    between atoms: N_4  and  C_8
REMARK    5  A    between atoms: C_5  and  C_6
REMARK                            x       y       z     vdW  Elec       q    Type
REMARK                         _______ _______ _______ _____ _____    ______ ____
ROOT
ATOM      1  C   UNL     1       8.319  -3.711  25.025  0.00  0.00    +0.111 A 
ATOM      2  C   UNL     1       7.264  -3.273  26.060  0.00  0.00    +0.275 A 
ATOM      3  O   UNL     1       6.708  -2.176  26.052  0.00  0.00    -0.266 OA
ATOM      4  N   UNL     1       6.931  -4.169  27.042  0.00  0.00    -0.274 N 
ATOM      5  H   UNL     1       6.234  -3.879  27.708  0.00  0.00    +0.173 HD
ATOM      6  C   UNL     1       7.508  -5.381  27.237  0.00  0.00    +0.327 A 
ATOM      7  O   UNL     1       7.184  -6.131  28.152  0.00  0.00    -0.247 OA
ATOM      8  N   UNL     1       8.479  -5.709  26.347  0.00  0.00    -0.313 N 
ATOM      9  H   UNL     1       8.911  -6.617  26.483  0.00  0.00    +0.170 HD
ATOM     10  C   UNL     1       8.856  -4.918  25.300  0.00  0.00    +0.116 A 
ENDROOT
BRANCH   1  11
ATOM     11  N   UNL     1       8.643  -2.879  23.894  0.00  0.00    -0.322 N 
BRANCH  11  12
ATOM     12  C   UNL     1       9.822  -1.972  23.926  0.00  0.00    +0.121 C 
BRANCH  12  14
ATOM     13 CL   UNL     1      10.848   0.414  24.857  0.00  0.00    -0.124 Cl
ATOM     14  C   UNL     1       9.553  -0.469  24.017  0.00  0.00    +0.127 C 
ENDBRANCH  12  14
ENDBRANCH  11  12
BRANCH  11  15
ATOM     15  C   UNL     1       7.981  -3.188  22.585  0.00  0.00    +0.121 C 
BRANCH  15  16
ATOM     16  C   UNL     1       6.809  -4.162  22.475  0.00  0.00    +0.127 C 
ATOM     17 CL   UNL     1       7.263  -5.774  21.876  0.00  0.00    -0.124 Cl
ENDBRANCH  15  16
ENDBRANCH  11  15
ENDBRANCH   1  11
TORSDOF 5
ENDMDL
MODEL 4
REMARK VINA RESULT:      -4.8      2.083      2.453
REMARK  Name = 
REMARK  5 active torsions:
REMARK  status: ('A' for Active; 'I' for Inactive)
REMARK    1  A    between atoms: C_2  and  C_3
REMARK    2  A    between atoms: C_3  and  N_4
REMARK    3  A    between atoms: N_4  and  C_5
REMARK    4  A    between atoms: N_4  and  C_8
REMARK    5  A    between atoms: C_5  and  C_6
REMARK                            x       y       z     vdW  Elec       q    Type
REMARK                         _______ _______ _______ _____ _____    ______ ____
ROOT
ATOM      1  C   UNL     1       7.832  -2.752  25.035  0.00  0.00    +0.111 A 
ATOM      2  C   UNL     1       8.924  -3.832  25.168  0.00  0.00    +0.275 A 
ATOM      3  O   UNL     1       9.941  -3.867  24.479  0.00  0.00    -0.266 OA
ATOM      4  N   UNL     1       8.740  -4.804  26.116  0.00  0.00    -0.274 N 
ATOM      5  H   UNL     1       9.463  -5.500  26.203  0.00  0.00    +0.173 HD
ATOM      6  C   UNL     1       7.640  -4.952  26.896  0.00  0.00    +0.327 A 
ATOM      7  O   UNL     1       7.523  -5.860  27.712  0.00  0.00    -0.247 OA
ATOM      8  N   UNL     1       6.669  -4.023  26.709  0.00  0.00    -0.313 N 
ATOM      9  H   UNL     1       5.846  -4.124  27.293  0.00  0.00    +0.170 HD
ATOM     10  C   UNL     1       6.766  -2.982  25.830  0.00  0.00    +0.116 A 
ENDROOT
BRANCH   1  11
ATOM     11  N   UNL     1       7.998  -1.630  24.147  0.00  0.00    -0.322 N 
BRANCH  11  12
ATOM     12  C   UNL     1       8.367  -0.288  24.672  0.00  0.00    +0.121 C 
BRANCH  12  14
ATOM     13 CL   UNL     1      10.966   0.616  24.460  0.00  0.00    -0.124 Cl
ATOM     14  C   UNL     1       9.693  -0.167  25.425  0.00  0.00    +0.127 C 
ENDBRANCH  12  14
ENDBRANCH  11  12
BRANCH  11  15
ATOM     15  C   UNL     1       8.120  -1.911  22.679  0.00  0.00    +0.121 C 
BRANCH  15  16
ATOM     16  C   UNL     1       9.365  -1.531  21.879  0.00  0.00    +0.127 C 
ATOM     17 CL   UNL     1       9.354   0.143  21.279  0.00  0.00    -0.124 Cl
ENDBRANCH  15  16
ENDBRANCH  11  15
ENDBRANCH   1  11
TORSDOF 5
ENDMDL
MODEL 5
REMARK VINA RESULT:      -4.7      3.344      5.791
REMARK  Name = 
REMARK  5 active torsions:
REMARK  status: ('A' for Active; 'I' for Inactive)
REMARK    1  A    between atoms: C_2  and  C_3
REMARK    2  A    between atoms: C_3  and  N_4
REMARK    3  A    between atoms: N_4  and  C_5
REMARK    4  A    between atoms: N_4  and  C_8
REMARK    5  A    between atoms: C_5  and  C_6
REMARK                            x       y       z     vdW  Elec       q    Type
REMARK                         _______ _______ _______ _____ _____    ______ ____
ROOT
ATOM      1  C   UNL     1       8.768  -1.814  23.062  0.00  0.00    +0.111 A 
ATOM      2  C   UNL     1       8.498  -0.516  23.850  0.00  0.00    +0.275 A 
ATOM      3  O   UNL     1       7.824  -0.464  24.877  0.00  0.00    -0.266 OA
ATOM      4  N   UNL     1       9.049   0.642  23.368  0.00  0.00    -0.274 N 
ATOM      5  H   UNL     1       8.876   1.484  23.894  0.00  0.00    +0.173 HD
ATOM      6  C   UNL     1       9.744   0.767  22.210  0.00  0.00    +0.327 A 
ATOM      7  O   UNL     1      10.193   1.839  21.818  0.00  0.00    -0.247 OA
ATOM      8  N   UNL     1       9.909  -0.382  21.507  0.00  0.00    -0.313 N 
ATOM      9  H   UNL     1      10.433  -0.298  20.643  0.00  0.00    +0.170 HD
ATOM     10  C   UNL     1       9.448  -1.601  21.916  0.00  0.00    +0.116 A 
ENDROOT
BRANCH   1  11
ATOM     11  N   UNL     1       8.326  -3.092  23.558  0.00  0.00    -0.322 N 
BRANCH  11  12
ATOM     12  C   UNL     1       7.352  -3.914  22.791  0.00  0.00    +0.121 C 
BRANCH  12  14
ATOM     13 CL   UNL     1       6.642  -6.418  21.875  0.00  0.00    -0.124 Cl
ATOM     14  C   UNL     1       7.175  -5.374  23.212  0.00  0.00    +0.127 C 
ENDBRANCH  12  14
ENDBRANCH  11  12
BRANCH  11  15
ATOM     15  C   UNL     1       9.107  -3.718  24.673  0.00  0.00    +0.121 C 
BRANCH  15  16
ATOM     16  C   UNL     1       8.659  -3.631  26.131  0.00  0.00    +0.127 C 
ATOM     17 CL   UNL     1       8.050  -5.167  26.792  0.00  0.00    -0.124 Cl
ENDBRANCH  15  16
ENDBRANCH  11  15
ENDBRANCH   1  11
TORSDOF 5
ENDMDL
MODEL 6
REMARK VINA RESULT:      -4.7      1.507      3.465
REMARK  Name = 
REMARK  5 active torsions:
REMARK  status: ('A' for Active; 'I' for Inactive)
REMARK    1  A    between atoms: C_2  and  C_3
REMARK    2  A    between atoms: C_3  and  N_4
REMARK    3  A    between atoms: N_4  and  C_5
REMARK    4  A    between atoms: N_4  and  C_8
REMARK    5  A    between atoms: C_5  and  C_6
REMARK                            x       y       z     vdW  Elec       q    Type
REMARK                         _______ _______ _______ _____ _____    ______ ____
ROOT
ATOM      1  C   UNL     1       7.675  -4.134  25.158  0.00  0.00    +0.111 A 
ATOM      2  C   UNL     1       6.329  -4.044  25.903  0.00  0.00    +0.275 A 
ATOM      3  O   UNL     1       5.409  -3.299  25.570  0.00  0.00    -0.266 OA
ATOM      4  N   UNL     1       6.157  -4.849  26.998  0.00  0.00    -0.274 N 
ATOM      5  H   UNL     1       5.271  -4.792  27.473  0.00  0.00    +0.173 HD
ATOM      6  C   UNL     1       7.098  -5.661  27.540  0.00  0.00    +0.327 A 
ATOM      7  O   UNL     1       6.892  -6.341  28.540  0.00  0.00    -0.247 OA
ATOM      8  N   UNL     1       8.294  -5.669  26.899  0.00  0.00    -0.313 N 
ATOM      9  H   UNL     1       9.001  -6.279  27.295  0.00  0.00    +0.170 HD
ATOM     10  C   UNL     1       8.561  -4.948  25.770  0.00  0.00    +0.116 A 
ENDROOT
BRANCH   1  11
ATOM     11  N   UNL     1       7.899  -3.411  23.932  0.00  0.00    -0.322 N 
BRANCH  11  12
ATOM     12  C   UNL     1       7.405  -3.940  22.633  0.00  0.00    +0.121 C 
BRANCH  12  14
ATOM     13 CL   UNL     1       6.145  -5.918  21.177  0.00  0.00    -0.124 Cl
ATOM     14  C   UNL     1       7.229  -5.455  22.509  0.00  0.00    +0.127 C 
ENDBRANCH  12  14
ENDBRANCH  11  12
BRANCH  11  15
ATOM     15  C   UNL     1       8.332  -1.980  24.033  0.00  0.00    +0.121 C 
BRANCH  15  16
ATOM     16  C   UNL     1       9.799  -1.564  23.938  0.00  0.00    +0.127 C 
ATOM     17 CL   UNL     1      10.422  -1.489  22.273  0.00  0.00    -0.124 Cl
ENDBRANCH  15  16
ENDBRANCH  11  15
ENDBRANCH   1  11
TORSDOF 5
ENDMDL
MODEL 7
REMARK VINA RESULT:      -4.7      3.099      5.080
REMARK  Name = 
REMARK  5 active torsions:
REMARK  status: ('A' for Active; 'I' for Inactive)
REMARK    1  A    between atoms: C_2  and  C_3
REMARK    2  A    between atoms: C_3  and  N_4
REMARK    3  A    between atoms: N_4  and  C_5
REMARK    4  A    between atoms: N_4  and  C_8
REMARK    5  A    between atoms: C_5  and  C_6
REMARK                            x       y       z     vdW  Elec       q    Type
REMARK                         _______ _______ _______ _____ _____    ______ ____
ROOT
ATOM      1  C   UNL     1       9.329  -2.010  24.205  0.00  0.00    +0.111 A 
ATOM      2  C   UNL     1       9.102  -1.012  25.358  0.00  0.00    +0.275 A 
ATOM      3  O   UNL     1       8.392  -1.242  26.335  0.00  0.00    -0.266 OA
ATOM      4  N   UNL     1       9.736   0.200  25.279  0.00  0.00    -0.274 N 
ATOM      5  H   UNL     1       9.591   0.843  26.041  0.00  0.00    +0.173 HD
ATOM      6  C   UNL     1      10.483   0.637  24.234  0.00  0.00    +0.327 A 
ATOM      7  O   UNL     1      11.006   1.746  24.211  0.00  0.00    -0.247 OA
ATOM      8  N   UNL     1      10.609  -0.240  23.207  0.00  0.00    -0.313 N 
ATOM      9  H   UNL     1      11.171   0.077  22.425  0.00  0.00    +0.170 HD
ATOM     10  C   UNL     1      10.065  -1.493  23.200  0.00  0.00    +0.116 A 
ENDROOT
BRANCH   1  11
ATOM     11  N   UNL     1       8.796  -3.347  24.262  0.00  0.00    -0.322 N 
BRANCH  11  12
ATOM     12  C   UNL     1       9.450  -4.396  25.090  0.00  0.00    +0.121 C 
BRANCH  12  14
ATOM     13 CL   UNL     1       7.506  -5.508  26.703  0.00  0.00    -0.124 Cl
ATOM     14  C   UNL     1       8.988  -4.538  26.542  0.00  0.00    +0.127 C 
ENDBRANCH  12  14
ENDBRANCH  11  12
BRANCH  11  15
ATOM     15  C   UNL     1       7.404  -3.568  23.750  0.00  0.00    +0.121 C 
BRANCH  15  16
ATOM     16  C   UNL     1       7.129  -4.134  22.358  0.00  0.00    +0.127 C 
ATOM     17 CL   UNL     1       7.372  -5.891  22.231  0.00  0.00    -0.124 Cl
ENDBRANCH  15  16
ENDBRANCH  11  15
ENDBRANCH   1  11
TORSDOF 5
ENDMDL
MODEL 8
REMARK VINA RESULT:      -4.6      2.570      4.492
REMARK  Name = 
REMARK  5 active torsions:
REMARK  status: ('A' for Active; 'I' for Inactive)
REMARK    1  A    between atoms: C_2  and  C_3
REMARK    2  A    between atoms: C_3  and  N_4
REMARK    3  A    between atoms: N_4  and  C_5
REMARK    4  A    between atoms: N_4  and  C_8
REMARK    5  A    between atoms: C_5  and  C_6
REMARK                            x       y       z     vdW  Elec       q    Type
REMARK                         _______ _______ _______ _____ _____    ______ ____
ROOT
ATOM      1  C   UNL     1       7.647  -3.171  23.322  0.00  0.00    +0.111 A 
ATOM      2  C   UNL     1       7.962  -4.680  23.360  0.00  0.00    +0.275 A 
ATOM      3  O   UNL     1       8.805  -5.186  24.099  0.00  0.00    -0.266 OA
ATOM      4  N   UNL     1       7.254  -5.495  22.518  0.00  0.00    -0.274 N 
ATOM      5  H   UNL     1       7.459  -6.480  22.555  0.00  0.00    +0.173 HD
ATOM      6  C   UNL     1       6.354  -5.085  21.589  0.00  0.00    +0.327 A 
ATOM      7  O   UNL     1       5.768  -5.864  20.844  0.00  0.00    -0.247 OA
ATOM      8  N   UNL     1       6.147  -3.745  21.537  0.00  0.00    -0.313 N 
ATOM      9  H   UNL     1       5.470  -3.431  20.849  0.00  0.00    +0.170 HD
ATOM     10  C   UNL     1       6.757  -2.844  22.361  0.00  0.00    +0.116 A 
ENDROOT
BRANCH   1  11
ATOM     11  N   UNL     1       8.260  -2.258  24.253  0.00  0.00    -0.322 N 
BRANCH  11  12
ATOM     12  C   UNL     1       7.610  -1.942  25.553  0.00  0.00    +0.121 C 
BRANCH  12  14
ATOM     13 CL   UNL     1       7.263  -4.252  27.023  0.00  0.00    -0.124 Cl
ATOM     14  C   UNL     1       6.558  -2.924  26.073  0.00  0.00    +0.127 C 
ENDBRANCH  12  14
ENDBRANCH  11  12
BRANCH  11  15
ATOM     15  C   UNL     1       9.700  -1.903  24.039  0.00  0.00    +0.121 C 
BRANCH  15  16
ATOM     16  C   UNL     1      10.286  -1.679  22.646  0.00  0.00    +0.127 C 
ATOM     17 CL   UNL     1       9.491  -0.377  21.730  0.00  0.00    -0.124 Cl
ENDBRANCH  15  16
ENDBRANCH  11  15
ENDBRANCH   1  11
TORSDOF 5
ENDMDL
MODEL 9
REMARK VINA RESULT:      -4.6      2.729      3.886
REMARK  Name = 
REMARK  5 active torsions:
REMARK  status: ('A' for Active; 'I' for Inactive)
REMARK    1  A    between atoms: C_2  and  C_3
REMARK    2  A    between atoms: C_3  and  N_4
REMARK    3  A    between atoms: N_4  and  C_5
REMARK    4  A    between atoms: N_4  and  C_8
REMARK    5  A    between atoms: C_5  and  C_6
REMARK                            x       y       z     vdW  Elec       q    Type
REMARK                         _______ _______ _______ _____ _____    ______ ____
ROOT
ATOM      1  C   UNL     1       7.740  -3.340  23.326  0.00  0.00    +0.111 A 
ATOM      2  C   UNL     1       7.964  -4.865  23.359  0.00  0.00    +0.275 A 
ATOM      3  O   UNL     1       8.779  -5.422  24.091  0.00  0.00    -0.266 OA
ATOM      4  N   UNL     1       7.201  -5.635  22.521  0.00  0.00    -0.274 N 
ATOM      5  H   UNL     1       7.346  -6.630  22.556  0.00  0.00    +0.173 HD
ATOM      6  C   UNL     1       6.321  -5.169  21.600  0.00  0.00    +0.327 A 
ATOM      7  O   UNL     1       5.684  -5.910  20.858  0.00  0.00    -0.247 OA
ATOM      8  N   UNL     1       6.195  -3.819  21.550  0.00  0.00    -0.313 N 
ATOM      9  H   UNL     1       5.534  -3.464  20.868  0.00  0.00    +0.170 HD
ATOM     10  C   UNL     1       6.865  -2.958  22.371  0.00  0.00    +0.116 A 
ENDROOT
BRANCH   1  11
ATOM     11  N   UNL     1       8.413  -2.467  24.253  0.00  0.00    -0.322 N 
BRANCH  11  12
ATOM     12  C   UNL     1       9.818  -2.039  24.016  0.00  0.00    +0.121 C 
BRANCH  12  14
ATOM     13 CL   UNL     1      10.747   0.396  24.923  0.00  0.00    -0.124 Cl
ATOM     14  C   UNL     1      10.052  -0.582  23.611  0.00  0.00    +0.127 C 
ENDBRANCH  12  14
ENDBRANCH  11  12
BRANCH  11  15
ATOM     15  C   UNL     1       7.578  -1.741  25.264  0.00  0.00    +0.121 C 
BRANCH  15  16
ATOM     16  C   UNL     1       6.719  -2.478  26.290  0.00  0.00    +0.127 C 
ATOM     17 CL   UNL     1       7.445  -3.987  26.889  0.00  0.00    -0.124 Cl
ENDBRANCH  15  16
ENDBRANCH  11  15
ENDBRANCH   1  11
TORSDOF 5
ENDMDL
