MODEL 1
REMARK VINA RESULT:      -4.8      0.000      0.000
REMARK  Name = 
REMARK  5 active torsions:
REMARK  status: ('A' for Active; 'I' for Inactive)
REMARK    1  A    between atoms: O_1  and  C_2
REMARK    2  A    between atoms: C_2  and  C_3
REMARK    3  A    between atoms: C_7  and  O_9
REMARK    4  A    between atoms: C_10  and  O_12
REMARK    5  A    between atoms: C_13  and  O_15
REMARK                            x       y       z     vdW  Elec       q    Type
REMARK                         _______ _______ _______ _____ _____    ______ ____
ROOT
ATOM      1  C   UNK     1       9.610   1.947  23.677  0.00  0.00    +0.111 C 
ATOM      2  C   UNK     1       9.958   1.284  22.328  0.00  0.00    +0.165 C 
ATOM      3  C   UNK     1       9.557  -0.203  22.369  0.00  0.00    +0.174 C 
ATOM      4  C   UNK     1      10.173  -0.909  23.587  0.00  0.00    +0.159 C 
ATOM      5  C   UNK     1       9.839  -0.153  24.882  0.00  0.00    +0.115 C 
ATOM      6  N   UNK     1      10.247   1.247  24.811  0.00  0.00    -0.306 NA
ATOM      7  H   UNK     1       9.994   1.747  25.669  0.00  0.00    +0.122 HD
ENDROOT
BRANCH   2   8
ATOM      8  O   UNK     1       9.278   1.977  21.270  0.00  0.00    -0.388 OA
ATOM      9  H   UNK     1       8.628   1.370  20.879  0.00  0.00    +0.210 HD
ENDBRANCH   2   8
BRANCH   3  10
ATOM     10  O   UNK     1       9.962  -0.890  21.172  0.00  0.00    -0.387 OA
ATOM     11  H   UNK     1       9.241  -0.762  20.526  0.00  0.00    +0.210 HD
ENDBRANCH   3  10
BRANCH   4  12
ATOM     12  O   UNK     1       9.686  -2.256  23.631  0.00  0.00    -0.388 OA
ATOM     13  H   UNK     1       8.990  -2.355  22.957  0.00  0.00    +0.210 HD
ENDBRANCH   4  12
BRANCH   1  14
ATOM     14  C   UNK     1       9.992   3.439  23.700  0.00  0.00    +0.177 C 
BRANCH  14  15
ATOM     15  O   UNK     1      11.113   3.637  22.832  0.00  0.00    -0.393 OA
ATOM     16  H   UNK     1      11.163   4.593  22.659  0.00  0.00    +0.209 HD
ENDBRANCH  14  15
ENDBRANCH   1  14
TORSDOF 5
ENDMDL
MODEL 2
REMARK VINA RESULT:      -4.7      1.032      3.812
REMARK  Name = 
REMARK  5 active torsions:
REMARK  status: ('A' for Active; 'I' for Inactive)
REMARK    1  A    between atoms: O_1  and  C_2
REMARK    2  A    between atoms: C_2  and  C_3
REMARK    3  A    between atoms: C_7  and  O_9
REMARK    4  A    between atoms: C_10  and  O_12
REMARK    5  A    between atoms: C_13  and  O_15
REMARK                            x       y       z     vdW  Elec       q    Type
REMARK                         _______ _______ _______ _____ _____    ______ ____
ROOT
ATOM      1  C   UNK     1      10.038  -1.096  23.282  0.00  0.00    +0.111 C 
ATOM      2  C   UNK     1       9.390  -0.172  22.229  0.00  0.00    +0.165 C 
ATOM      3  C   UNK     1      10.131   1.179  22.208  0.00  0.00    +0.174 C 
ATOM      4  C   UNK     1      10.202   1.792  23.615  0.00  0.00    +0.159 C 
ATOM      5  C   UNK     1      10.794   0.790  24.617  0.00  0.00    +0.115 C 
ATOM      6  N   UNK     1      10.058  -0.471  24.620  0.00  0.00    -0.306 NA
ATOM      7  H   UNK     1      10.480  -1.140  25.272  0.00  0.00    +0.122 HD
ENDROOT
BRANCH   2   8
ATOM      8  O   UNK     1       9.439  -0.812  20.944  0.00  0.00    -0.388 OA
ATOM      9  H   UNK     1       9.938  -1.640  21.036  0.00  0.00    +0.210 HD
ENDBRANCH   2   8
BRANCH   3  10
ATOM     10  O   UNK     1       9.494   2.113  21.319  0.00  0.00    -0.387 OA
ATOM     11  H   UNK     1       9.899   2.983  21.499  0.00  0.00    +0.210 HD
ENDBRANCH   3  10
BRANCH   4  12
ATOM     12  O   UNK     1      10.986   2.991  23.553  0.00  0.00    -0.388 OA
ATOM     13  H   UNK     1      11.828   2.786  23.109  0.00  0.00    +0.210 HD
ENDBRANCH   4  12
BRANCH   1  14
ATOM     14  C   UNK     1       9.337  -2.465  23.353  0.00  0.00    +0.177 C 
BRANCH  14  15
ATOM     15  O   UNK     1      10.157  -3.359  24.114  0.00  0.00    -0.393 OA
ATOM     16  H   UNK     1      10.635  -2.813  24.762  0.00  0.00    +0.209 HD
ENDBRANCH  14  15
ENDBRANCH   1  14
TORSDOF 5
ENDMDL
MODEL 3
REMARK VINA RESULT:      -4.5      5.185      7.522
REMARK  Name = 
REMARK  5 active torsions:
REMARK  status: ('A' for Active; 'I' for Inactive)
REMARK    1  A    between atoms: O_1  and  C_2
REMARK    2  A    between atoms: C_2  and  C_3
REMARK    3  A    between atoms: C_7  and  O_9
REMARK    4  A    between atoms: C_10  and  O_12
REMARK    5  A    between atoms: C_13  and  O_15
REMARK                            x       y       z     vdW  Elec       q    Type
REMARK                         _______ _______ _______ _____ _____    ______ ____
ROOT
ATOM      1  C   UNK     1       6.611  -4.518  26.079  0.00  0.00    +0.111 C 
ATOM      2  C   UNK     1       7.850  -5.429  26.205  0.00  0.00    +0.165 C 
ATOM      3  C   UNK     1       9.106  -4.648  25.771  0.00  0.00    +0.174 C 
ATOM      4  C   UNK     1       8.922  -4.038  24.373  0.00  0.00    +0.159 C 
ATOM      5  C   UNK     1       7.634  -3.203  24.308  0.00  0.00    +0.115 C 
ATOM      6  N   UNK     1       6.465  -3.979  24.711  0.00  0.00    -0.306 NA
ATOM      7  H   UNK     1       5.617  -3.404  24.690  0.00  0.00    +0.122 HD
ENDROOT
BRANCH   2   8
ATOM      8  O   UNK     1       7.966  -5.886  27.562  0.00  0.00    -0.388 OA
ATOM      9  H   UNK     1       7.095  -5.803  27.985  0.00  0.00    +0.210 HD
ENDBRANCH   2   8
BRANCH   3  10
ATOM     10  O   UNK     1      10.272  -5.489  25.768  0.00  0.00    -0.387 OA
ATOM     11  H   UNK     1      10.227  -6.017  24.949  0.00  0.00    +0.210 HD
ENDBRANCH   3  10
BRANCH   4  12
ATOM     12  O   UNK     1      10.074  -3.242  24.064  0.00  0.00    -0.388 OA
ATOM     13  H   UNK     1      10.575  -3.094  24.886  0.00  0.00    +0.210 HD
ENDBRANCH   4  12
BRANCH   1  14
ATOM     14  C   UNK     1       5.319  -5.245  26.496  0.00  0.00    +0.177 C 
BRANCH  14  15
ATOM     15  O   UNK     1       5.538  -6.656  26.404  0.00  0.00    -0.393 OA
ATOM     16  H   UNK     1       6.127  -6.893  27.142  0.00  0.00    +0.209 HD
ENDBRANCH  14  15
ENDBRANCH   1  14
TORSDOF 5
ENDMDL
MODEL 4
REMARK VINA RESULT:      -4.4      1.534      3.599
REMARK  Name = 
REMARK  5 active torsions:
REMARK  status: ('A' for Active; 'I' for Inactive)
REMARK    1  A    between atoms: O_1  and  C_2
REMARK    2  A    between atoms: C_2  and  C_3
REMARK    3  A    between atoms: C_7  and  O_9
REMARK    4  A    between atoms: C_10  and  O_12
REMARK    5  A    between atoms: C_13  and  O_15
REMARK                            x       y       z     vdW  Elec       q    Type
REMARK                         _______ _______ _______ _____ _____    ______ ____
ROOT
ATOM      1  C   UNK     1       9.669  -0.221  25.050  0.00  0.00    +0.111 C 
ATOM      2  C   UNK     1       9.441  -0.879  23.672  0.00  0.00    +0.165 C 
ATOM      3  C   UNK     1      10.093  -0.014  22.577  0.00  0.00    +0.174 C 
ATOM      4  C   UNK     1       9.606   1.442  22.660  0.00  0.00    +0.159 C 
ATOM      5  C   UNK     1       9.803   2.003  24.076  0.00  0.00    +0.115 C 
ATOM      6  N   UNK     1       9.161   1.165  25.084  0.00  0.00    -0.306 NA
ATOM      7  H   UNK     1       9.323   1.535  26.026  0.00  0.00    +0.122 HD
ENDROOT
BRANCH   2   8
ATOM      8  O   UNK     1       9.994  -2.205  23.684  0.00  0.00    -0.388 OA
ATOM      9  H   UNK     1       9.373  -2.788  24.152  0.00  0.00    +0.210 HD
ENDBRANCH   2   8
BRANCH   3  10
ATOM     10  O   UNK     1       9.814  -0.530  21.264  0.00  0.00    -0.387 OA
ATOM     11  H   UNK     1       8.974  -1.022  21.336  0.00  0.00    +0.210 HD
ENDBRANCH   3  10
BRANCH   4  12
ATOM     12  O   UNK     1      10.318   2.219  21.688  0.00  0.00    -0.388 OA
ATOM     13  H   UNK     1      10.932   2.812  22.157  0.00  0.00    +0.210 HD
ENDBRANCH   4  12
BRANCH   1  14
ATOM     14  C   UNK     1       9.035  -1.040  26.190  0.00  0.00    +0.177 C 
BRANCH  14  15
ATOM     15  O   UNK     1       9.083  -0.264  27.391  0.00  0.00    -0.393 OA
ATOM     16  H   UNK     1       9.902   0.260  27.350  0.00  0.00    +0.209 HD
ENDBRANCH  14  15
ENDBRANCH   1  14
TORSDOF 5
ENDMDL
MODEL 5
REMARK VINA RESULT:      -4.4      1.941      4.409
REMARK  Name = 
REMARK  5 active torsions:
REMARK  status: ('A' for Active; 'I' for Inactive)
REMARK    1  A    between atoms: O_1  and  C_2
REMARK    2  A    between atoms: C_2  and  C_3
REMARK    3  A    between atoms: C_7  and  O_9
REMARK    4  A    between atoms: C_10  and  O_12
REMARK    5  A    between atoms: C_13  and  O_15
REMARK                            x       y       z     vdW  Elec       q    Type
REMARK                         _______ _______ _______ _____ _____    ______ ____
ROOT
ATOM      1  C   UNK     1       9.509  -1.353  23.428  0.00  0.00    +0.111 C 
ATOM      2  C   UNK     1      10.179  -0.172  24.161  0.00  0.00    +0.165 C 
ATOM      3  C   UNK     1       9.746   1.153  23.502  0.00  0.00    +0.174 C 
ATOM      4  C   UNK     1      10.010   1.128  21.988  0.00  0.00    +0.159 C 
ATOM      5  C   UNK     1       9.371  -0.110  21.343  0.00  0.00    +0.115 C 
ATOM      6  N   UNK     1       9.815  -1.344  21.983  0.00  0.00    -0.306 NA
ATOM      7  H   UNK     1       9.361  -2.160  21.562  0.00  0.00    +0.122 HD
ENDROOT
BRANCH   2   8
ATOM      8  O   UNK     1       9.811  -0.206  25.549  0.00  0.00    -0.388 OA
ATOM      9  H   UNK     1      10.614  -0.361  26.072  0.00  0.00    +0.210 HD
ENDBRANCH   2   8
BRANCH   3  10
ATOM     10  O   UNK     1      10.430   2.276  24.082  0.00  0.00    -0.387 OA
ATOM     11  H   UNK     1       9.850   2.615  24.790  0.00  0.00    +0.210 HD
ENDBRANCH   3  10
BRANCH   4  12
ATOM     12  O   UNK     1       9.497   2.338  21.414  0.00  0.00    -0.388 OA
ATOM     13  H   UNK     1      10.221   2.785  20.940  0.00  0.00    +0.210 HD
ENDBRANCH   4  12
BRANCH   1  14
ATOM     14  C   UNK     1       9.907  -2.709  24.040  0.00  0.00    +0.177 C 
BRANCH  14  15
ATOM     15  O   UNK     1       9.014  -3.003  25.119  0.00  0.00    -0.393 OA
ATOM     16  H   UNK     1       9.059  -2.247  25.730  0.00  0.00    +0.209 HD
ENDBRANCH  14  15
ENDBRANCH   1  14
TORSDOF 5
ENDMDL
MODEL 6
REMARK VINA RESULT:      -4.2      1.934      2.836
REMARK  Name = 
REMARK  5 active torsions:
REMARK  status: ('A' for Active; 'I' for Inactive)
REMARK    1  A    between atoms: O_1  and  C_2
REMARK    2  A    between atoms: C_2  and  C_3
REMARK    3  A    between atoms: C_7  and  O_9
REMARK    4  A    between atoms: C_10  and  O_12
REMARK    5  A    between atoms: C_13  and  O_15
REMARK                            x       y       z     vdW  Elec       q    Type
REMARK                         _______ _______ _______ _____ _____    ______ ____
ROOT
ATOM      1  C   UNK     1      10.089   0.686  23.257  0.00  0.00    +0.111 C 
ATOM      2  C   UNK     1       9.140   0.261  24.397  0.00  0.00    +0.165 C 
ATOM      3  C   UNK     1       9.492  -1.169  24.851  0.00  0.00    +0.174 C 
ATOM      4  C   UNK     1       9.508  -2.139  23.659  0.00  0.00    +0.159 C 
ATOM      5  C   UNK     1      10.420  -1.614  22.541  0.00  0.00    +0.115 C 
ATOM      6  N   UNK     1      10.047  -0.264  22.127  0.00  0.00    -0.306 NA
ATOM      7  H   UNK     1      10.679   0.085  21.400  0.00  0.00    +0.122 HD
ENDROOT
BRANCH   2   8
ATOM      8  O   UNK     1       9.257   1.194  25.483  0.00  0.00    -0.388 OA
ATOM      9  H   UNK     1       8.393   1.257  25.922  0.00  0.00    +0.210 HD
ENDBRANCH   2   8
BRANCH   3  10
ATOM     10  O   UNK     1       8.565  -1.650  25.839  0.00  0.00    -0.387 OA
ATOM     11  H   UNK     1       7.730  -1.165  25.690  0.00  0.00    +0.210 HD
ENDBRANCH   3  10
BRANCH   4  12
ATOM     12  O   UNK     1       9.939  -3.426  24.121  0.00  0.00    -0.388 OA
ATOM     13  H   UNK     1      10.612  -3.295  24.813  0.00  0.00    +0.210 HD
ENDBRANCH   4  12
BRANCH   1  14
ATOM     14  C   UNK     1       9.784   2.110  22.756  0.00  0.00    +0.177 C 
BRANCH  14  15
ATOM     15  O   UNK     1       9.633   2.071  21.333  0.00  0.00    -0.393 OA
ATOM     16  H   UNK     1      10.528   1.983  20.962  0.00  0.00    +0.209 HD
ENDBRANCH  14  15
ENDBRANCH   1  14
TORSDOF 5
ENDMDL
MODEL 7
REMARK VINA RESULT:      -4.1      2.271      4.299
REMARK  Name = 
REMARK  5 active torsions:
REMARK  status: ('A' for Active; 'I' for Inactive)
REMARK    1  A    between atoms: O_1  and  C_2
REMARK    2  A    between atoms: C_2  and  C_3
REMARK    3  A    between atoms: C_7  and  O_9
REMARK    4  A    between atoms: C_10  and  O_12
REMARK    5  A    between atoms: C_13  and  O_15
REMARK                            x       y       z     vdW  Elec       q    Type
REMARK                         _______ _______ _______ _____ _____    ______ ____
ROOT
ATOM      1  C   UNK     1       7.997  -0.244  23.274  0.00  0.00    +0.111 C 
ATOM      2  C   UNK     1       9.200   0.224  22.427  0.00  0.00    +0.165 C 
ATOM      3  C   UNK     1       9.242   1.764  22.403  0.00  0.00    +0.174 C 
ATOM      4  C   UNK     1       7.895   2.347  21.949  0.00  0.00    +0.159 C 
ATOM      5  C   UNK     1       6.743   1.783  22.794  0.00  0.00    +0.115 C 
ATOM      6  N   UNK     1       6.726   0.323  22.780  0.00  0.00    -0.306 NA
ATOM      7  H   UNK     1       5.971  -0.041  23.369  0.00  0.00    +0.122 HD
ENDROOT
BRANCH   2   8
ATOM      8  O   UNK     1      10.408  -0.321  22.979  0.00  0.00    -0.388 OA
ATOM      9  H   UNK     1      11.158   0.188  22.628  0.00  0.00    +0.210 HD
ENDBRANCH   2   8
BRANCH   3  10
ATOM     10  O   UNK     1      10.282   2.248  21.536  0.00  0.00    -0.387 OA
ATOM     11  H   UNK     1      10.923   1.517  21.443  0.00  0.00    +0.210 HD
ENDBRANCH   3  10
BRANCH   4  12
ATOM     12  O   UNK     1       7.959   3.776  22.044  0.00  0.00    -0.388 OA
ATOM     13  H   UNK     1       7.728   4.154  21.176  0.00  0.00    +0.210 HD
ENDBRANCH   4  12
BRANCH   1  14
ATOM     14  C   UNK     1       7.898  -1.779  23.332  0.00  0.00    +0.177 C 
BRANCH  14  15
ATOM     15  O   UNK     1       8.408  -2.317  22.108  0.00  0.00    -0.393 OA
ATOM     16  H   UNK     1       9.056  -3.000  22.354  0.00  0.00    +0.209 HD
ENDBRANCH  14  15
ENDBRANCH   1  14
TORSDOF 5
ENDMDL
MODEL 8
REMARK VINA RESULT:      -4.1      4.470      6.101
REMARK  Name = 
REMARK  5 active torsions:
REMARK  status: ('A' for Active; 'I' for Inactive)
REMARK    1  A    between atoms: O_1  and  C_2
REMARK    2  A    between atoms: C_2  and  C_3
REMARK    3  A    between atoms: C_7  and  O_9
REMARK    4  A    between atoms: C_10  and  O_12
REMARK    5  A    between atoms: C_13  and  O_15
REMARK                            x       y       z     vdW  Elec       q    Type
REMARK                         _______ _______ _______ _____ _____    ______ ____
ROOT
ATOM      1  C   UNK     1       7.603  -3.412  24.360  0.00  0.00    +0.111 C 
ATOM      2  C   UNK     1       8.941  -3.558  25.115  0.00  0.00    +0.165 C 
ATOM      3  C   UNK     1       8.895  -4.818  26.000  0.00  0.00    +0.174 C 
ATOM      4  C   UNK     1       7.662  -4.805  26.917  0.00  0.00    +0.159 C 
ATOM      5  C   UNK     1       6.379  -4.588  26.101  0.00  0.00    +0.115 C 
ATOM      6  N   UNK     1       6.453  -3.378  25.287  0.00  0.00    -0.306 NA
ATOM      7  H   UNK     1       5.603  -3.260  24.727  0.00  0.00    +0.122 HD
ENDROOT
BRANCH   2   8
ATOM      8  O   UNK     1      10.015  -3.629  24.164  0.00  0.00    -0.388 OA
ATOM      9  H   UNK     1      10.851  -3.692  24.655  0.00  0.00    +0.210 HD
ENDBRANCH   2   8
BRANCH   3  10
ATOM     10  O   UNK     1      10.080  -4.937  26.806  0.00  0.00    -0.387 OA
ATOM     11  H   UNK     1       9.785  -4.892  27.736  0.00  0.00    +0.210 HD
ENDBRANCH   3  10
BRANCH   4  12
ATOM     12  O   UNK     1       7.616  -6.042  27.641  0.00  0.00    -0.388 OA
ATOM     13  H   UNK     1       8.266  -6.652  27.250  0.00  0.00    +0.210 HD
ENDBRANCH   4  12
BRANCH   1  14
ATOM     14  C   UNK     1       7.585  -2.164  23.458  0.00  0.00    +0.177 C 
BRANCH  14  15
ATOM     15  O   UNK     1       8.155  -2.508  22.191  0.00  0.00    -0.393 OA
ATOM     16  H   UNK     1       8.441  -3.435  22.259  0.00  0.00    +0.209 HD
ENDBRANCH  14  15
ENDBRANCH   1  14
TORSDOF 5
ENDMDL
MODEL 9
REMARK VINA RESULT:      -4.1      2.588      4.485
REMARK  Name = 
REMARK  5 active torsions:
REMARK  status: ('A' for Active; 'I' for Inactive)
REMARK    1  A    between atoms: O_1  and  C_2
REMARK    2  A    between atoms: C_2  and  C_3
REMARK    3  A    between atoms: C_7  and  O_9
REMARK    4  A    between atoms: C_10  and  O_12
REMARK    5  A    between atoms: C_13  and  O_15
REMARK                            x       y       z     vdW  Elec       q    Type
REMARK                         _______ _______ _______ _____ _____    ______ ____
ROOT
ATOM      1  C   UNK     1       7.097  -0.708  23.506  0.00  0.00    +0.111 C 
ATOM      2  C   UNK     1       8.105  -1.365  22.539  0.00  0.00    +0.165 C 
ATOM      3  C   UNK     1       9.200  -0.346  22.170  0.00  0.00    +0.174 C 
ATOM      4  C   UNK     1       8.585   0.959  21.639  0.00  0.00    +0.159 C 
ATOM      5  C   UNK     1       7.546   1.513  22.624  0.00  0.00    +0.115 C 
ATOM      6  N   UNK     1       6.517   0.525  22.937  0.00  0.00    -0.306 NA
ATOM      7  H   UNK     1       5.846   0.897  23.616  0.00  0.00    +0.122 HD
ENDROOT
BRANCH   2   8
ATOM      8  O   UNK     1       8.667  -2.531  23.161  0.00  0.00    -0.388 OA
ATOM      9  H   UNK     1       9.633  -2.427  23.182  0.00  0.00    +0.210 HD
ENDBRANCH   2   8
BRANCH   3  10
ATOM     10  O   UNK     1      10.103  -0.877  21.185  0.00  0.00    -0.387 OA
ATOM     11  H   UNK     1      10.092  -1.847  21.299  0.00  0.00    +0.210 HD
ENDBRANCH   3  10
BRANCH   4  12
ATOM     12  O   UNK     1       9.640   1.902  21.410  0.00  0.00    -0.388 OA
ATOM     13  H   UNK     1       9.311   2.593  20.808  0.00  0.00    +0.210 HD
ENDBRANCH   4  12
BRANCH   1  14
ATOM     14  C   UNK     1       5.972  -1.679  23.909  0.00  0.00    +0.177 C 
BRANCH  14  15
ATOM     15  O   UNK     1       5.598  -2.447  22.761  0.00  0.00    -0.393 OA
ATOM     16  H   UNK     1       4.645  -2.302  22.629  0.00  0.00    +0.209 HD
ENDBRANCH  14  15
ENDBRANCH   1  14
TORSDOF 5
ENDMDL
