MODEL 1
REMARK VINA RESULT:      -6.2      0.000      0.000
REMARK  Name = 
REMARK  8 active torsions:
REMARK  status: ('A' for Active; 'I' for Inactive)
REMARK    1  A    between atoms: C_1  and  C_2
REMARK    2  A    between atoms: C_2  and  C_3
REMARK    3  A    between atoms: C_3  and  C_4
REMARK    4  A    between atoms: C_4  and  C_5
REMARK    5  A    between atoms: C_5  and  C_6
REMARK    6  A    between atoms: C_8  and  O_9
REMARK    7  A    between atoms: C_10  and  O_11
REMARK    8  A    between atoms: O_11  and  C_12
REMARK                            x       y       z     vdW  Elec       q    Type
REMARK                         _______ _______ _______ _____ _____    ______ ____
ROOT
ATOM      1  C   UNL     1       6.845  -4.640  25.554  0.00  0.00    -0.044 A 
ATOM      2  C   UNL     1       6.701  -3.416  24.888  0.00  0.00    +0.007 A 
ATOM      3  C   UNL     1       7.790  -2.821  24.254  0.00  0.00    +0.050 A 
ATOM      4  C   UNL     1       9.062  -3.397  24.344  0.00  0.00    +0.170 A 
ATOM      5  C   UNL     1       9.204  -4.634  24.976  0.00  0.00    +0.159 A 
ATOM      6  C   UNL     1       8.107  -5.255  25.578  0.00  0.00    +0.052 A 
ENDROOT
BRANCH   5   7
ATOM      7  O   UNL     1      10.435  -5.230  25.013  0.00  0.00    -0.503 OA
ATOM      8  H   UNL     1      10.543  -5.780  24.221  0.00  0.00    +0.292 HD
ENDBRANCH   5   7
BRANCH   1   9
ATOM      9  C   UNL     1       5.663  -5.280  26.240  0.00  0.00    +0.035 C 
BRANCH   9  10
ATOM     10  C   UNL     1       4.469  -5.545  25.314  0.00  0.00    +0.005 C 
BRANCH  10  11
ATOM     11  C   UNL     1       4.793  -6.541  24.196  0.00  0.00    +0.000 C 
BRANCH  11  13
ATOM     12  C   UNL     1       6.154  -5.988  22.150  0.00  0.00    +0.004 C 
ATOM     13  C   UNL     1       4.802  -5.852  22.832  0.00  0.00    -0.003 C 
ENDBRANCH  11  13
ENDBRANCH  10  11
ENDBRANCH   9  10
ENDBRANCH   1   9
BRANCH   4  14
ATOM     14  O   UNL     1      10.193  -2.814  23.810  0.00  0.00    -0.452 OA
BRANCH  14  15
ATOM     15  C   UNL     1      10.100  -1.526  23.324  0.00  0.00    +0.129 A 
ATOM     16  C   UNL     1       9.766  -1.383  21.978  0.00  0.00    +0.046 A 
ATOM     17  C   UNL     1       9.584  -0.109  21.436  0.00  0.00    +0.004 A 
ATOM     18  C   UNL     1       9.742   1.021  22.239  0.00  0.00    +0.000 A 
ATOM     19  C   UNL     1      10.133   0.883  23.570  0.00  0.00    +0.004 A 
ATOM     20  C   UNL     1      10.346  -0.389  24.102  0.00  0.00    +0.046 A 
ENDBRANCH  14  15
ENDBRANCH   4  14
TORSDOF 7
ENDMDL
MODEL 2
REMARK VINA RESULT:      -6.1      2.368      7.767
REMARK  Name = 
REMARK  8 active torsions:
REMARK  status: ('A' for Active; 'I' for Inactive)
REMARK    1  A    between atoms: C_1  and  C_2
REMARK    2  A    between atoms: C_2  and  C_3
REMARK    3  A    between atoms: C_3  and  C_4
REMARK    4  A    between atoms: C_4  and  C_5
REMARK    5  A    between atoms: C_5  and  C_6
REMARK    6  A    between atoms: C_8  and  O_9
REMARK    7  A    between atoms: C_10  and  O_11
REMARK    8  A    between atoms: O_11  and  C_12
REMARK                            x       y       z     vdW  Elec       q    Type
REMARK                         _______ _______ _______ _____ _____    ______ ____
ROOT
ATOM      1  C   UNL     1       9.951   1.416  23.623  0.00  0.00    -0.044 A 
ATOM      2  C   UNL     1      10.057   0.731  24.840  0.00  0.00    +0.007 A 
ATOM      3  C   UNL     1      10.174  -0.657  24.865  0.00  0.00    +0.050 A 
ATOM      4  C   UNL     1      10.105  -1.394  23.678  0.00  0.00    +0.170 A 
ATOM      5  C   UNL     1      10.036  -0.714  22.460  0.00  0.00    +0.159 A 
ATOM      6  C   UNL     1       9.960   0.680  22.427  0.00  0.00    +0.052 A 
ENDROOT
BRANCH   5   7
ATOM      7  O   UNL     1      10.031  -1.429  21.293  0.00  0.00    -0.503 OA
ATOM      8  H   UNL     1       9.237  -1.199  20.786  0.00  0.00    +0.292 HD
ENDBRANCH   5   7
BRANCH   1   9
ATOM      9  C   UNL     1       9.824   2.919  23.601  0.00  0.00    +0.035 C 
BRANCH   9  10
ATOM     10  C   UNL     1      11.150   3.658  23.380  0.00  0.00    +0.005 C 
BRANCH  10  11
ATOM     11  C   UNL     1      11.055   5.156  23.685  0.00  0.00    +0.000 C 
BRANCH  11  13
ATOM     12  C   UNL     1      13.256   5.437  22.494  0.00  0.00    +0.004 C 
ATOM     13  C   UNL     1      12.441   5.797  23.726  0.00  0.00    -0.003 C 
ENDBRANCH  11  13
ENDBRANCH  10  11
ENDBRANCH   9  10
ENDBRANCH   1   9
BRANCH   4  14
ATOM     14  O   UNL     1      10.131  -2.774  23.645  0.00  0.00    -0.452 OA
BRANCH  14  15
ATOM     15  C   UNL     1       9.101  -3.464  24.248  0.00  0.00    +0.129 A 
ATOM     16  C   UNL     1       9.456  -4.417  25.202  0.00  0.00    +0.046 A 
ATOM     17  C   UNL     1       8.463  -5.103  25.906  0.00  0.00    +0.004 A 
ATOM     18  C   UNL     1       7.117  -4.840  25.649  0.00  0.00    +0.000 A 
ATOM     19  C   UNL     1       6.760  -3.932  24.654  0.00  0.00    +0.004 A 
ATOM     20  C   UNL     1       7.752  -3.270  23.930  0.00  0.00    +0.046 A 
ENDBRANCH  14  15
ENDBRANCH   4  14
TORSDOF 7
ENDMDL
MODEL 3
REMARK VINA RESULT:      -6.0      1.219      1.922
REMARK  Name = 
REMARK  8 active torsions:
REMARK  status: ('A' for Active; 'I' for Inactive)
REMARK    1  A    between atoms: C_1  and  C_2
REMARK    2  A    between atoms: C_2  and  C_3
REMARK    3  A    between atoms: C_3  and  C_4
REMARK    4  A    between atoms: C_4  and  C_5
REMARK    5  A    between atoms: C_5  and  C_6
REMARK    6  A    between atoms: C_8  and  O_9
REMARK    7  A    between atoms: C_10  and  O_11
REMARK    8  A    between atoms: O_11  and  C_12
REMARK                            x       y       z     vdW  Elec       q    Type
REMARK                         _______ _______ _______ _____ _____    ______ ____
ROOT
ATOM      1  C   UNL     1       6.447  -3.538  24.187  0.00  0.00    -0.044 A 
ATOM      2  C   UNL     1       6.263  -2.528  23.235  0.00  0.00    +0.007 A 
ATOM      3  C   UNL     1       7.358  -1.926  22.618  0.00  0.00    +0.050 A 
ATOM      4  C   UNL     1       8.660  -2.265  23.002  0.00  0.00    +0.170 A 
ATOM      5  C   UNL     1       8.849  -3.297  23.925  0.00  0.00    +0.159 A 
ATOM      6  C   UNL     1       7.754  -3.932  24.516  0.00  0.00    +0.052 A 
ENDROOT
BRANCH   5   7
ATOM      7  O   UNL     1      10.122  -3.673  24.257  0.00  0.00    -0.503 OA
ATOM      8  H   UNL     1      10.691  -3.586  23.476  0.00  0.00    +0.292 HD
ENDBRANCH   5   7
BRANCH   1   9
ATOM      9  C   UNL     1       5.258  -4.186  24.852  0.00  0.00    +0.035 C 
BRANCH   9  10
ATOM     10  C   UNL     1       5.070  -5.667  24.496  0.00  0.00    +0.005 C 
BRANCH  10  11
ATOM     11  C   UNL     1       4.773  -5.889  23.011  0.00  0.00    +0.000 C 
BRANCH  11  13
ATOM     12  C   UNL     1       6.350  -5.578  21.072  0.00  0.00    +0.004 C 
ATOM     13  C   UNL     1       6.000  -6.432  22.280  0.00  0.00    -0.003 C 
ENDBRANCH  11  13
ENDBRANCH  10  11
ENDBRANCH   9  10
ENDBRANCH   1   9
BRANCH   4  14
ATOM     14  O   UNL     1       9.782  -1.647  22.490  0.00  0.00    -0.452 OA
BRANCH  14  15
ATOM     15  C   UNL     1       9.977  -0.309  22.763  0.00  0.00    +0.129 A 
ATOM     16  C   UNL     1      10.323   0.021  24.073  0.00  0.00    +0.046 A 
ATOM     17  C   UNL     1      10.606   1.348  24.406  0.00  0.00    +0.004 A 
ATOM     18  C   UNL     1      10.537   2.344  23.431  0.00  0.00    +0.000 A 
ATOM     19  C   UNL     1      10.134   2.024  22.135  0.00  0.00    +0.004 A 
ATOM     20  C   UNL     1       9.821   0.704  21.811  0.00  0.00    +0.046 A 
ENDBRANCH  14  15
ENDBRANCH   4  14
TORSDOF 7
ENDMDL
MODEL 4
REMARK VINA RESULT:      -5.9      2.955      7.888
REMARK  Name = 
REMARK  8 active torsions:
REMARK  status: ('A' for Active; 'I' for Inactive)
REMARK    1  A    between atoms: C_1  and  C_2
REMARK    2  A    between atoms: C_2  and  C_3
REMARK    3  A    between atoms: C_3  and  C_4
REMARK    4  A    between atoms: C_4  and  C_5
REMARK    5  A    between atoms: C_5  and  C_6
REMARK    6  A    between atoms: C_8  and  O_9
REMARK    7  A    between atoms: C_10  and  O_11
REMARK    8  A    between atoms: O_11  and  C_12
REMARK                            x       y       z     vdW  Elec       q    Type
REMARK                         _______ _______ _______ _____ _____    ______ ____
ROOT
ATOM      1  C   UNL     1       8.875   3.043  23.551  0.00  0.00    -0.044 A 
ATOM      2  C   UNL     1       9.590   2.246  24.454  0.00  0.00    +0.007 A 
ATOM      3  C   UNL     1      10.073   0.997  24.069  0.00  0.00    +0.050 A 
ATOM      4  C   UNL     1       9.779   0.485  22.800  0.00  0.00    +0.170 A 
ATOM      5  C   UNL     1       9.098   1.291  21.885  0.00  0.00    +0.159 A 
ATOM      6  C   UNL     1       8.647   2.561  22.253  0.00  0.00    +0.052 A 
ENDROOT
BRANCH   5   7
ATOM      7  O   UNL     1       8.862   0.818  20.622  0.00  0.00    -0.503 OA
ATOM      8  H   UNL     1       9.497   0.111  20.427  0.00  0.00    +0.292 HD
ENDBRANCH   5   7
BRANCH   1   9
ATOM      9  C   UNL     1       8.353   4.395  23.973  0.00  0.00    +0.035 C 
BRANCH   9  10
ATOM     10  C   UNL     1       9.396   5.280  24.669  0.00  0.00    +0.005 C 
BRANCH  10  11
ATOM     11  C   UNL     1      10.227   6.106  23.683  0.00  0.00    +0.000 C 
BRANCH  11  13
ATOM     12  C   UNL     1      12.228   4.638  23.254  0.00  0.00    +0.004 C 
ATOM     13  C   UNL     1      11.723   5.906  23.924  0.00  0.00    -0.003 C 
ENDBRANCH  11  13
ENDBRANCH  10  11
ENDBRANCH   9  10
ENDBRANCH   1   9
BRANCH   4  14
ATOM     14  O   UNL     1      10.157  -0.777  22.390  0.00  0.00    -0.452 OA
BRANCH  14  15
ATOM     15  C   UNL     1       9.484  -1.864  22.908  0.00  0.00    +0.129 A 
ATOM     16  C   UNL     1       8.295  -2.226  22.277  0.00  0.00    +0.046 A 
ATOM     17  C   UNL     1       7.597  -3.360  22.701  0.00  0.00    +0.004 A 
ATOM     18  C   UNL     1       8.087  -4.126  23.760  0.00  0.00    +0.000 A 
ATOM     19  C   UNL     1       9.244  -3.732  24.430  0.00  0.00    +0.004 A 
ATOM     20  C   UNL     1       9.923  -2.582  24.026  0.00  0.00    +0.046 A 
ENDBRANCH  14  15
ENDBRANCH   4  14
TORSDOF 7
ENDMDL
MODEL 5
REMARK VINA RESULT:      -5.8      1.747      6.251
REMARK  Name = 
REMARK  8 active torsions:
REMARK  status: ('A' for Active; 'I' for Inactive)
REMARK    1  A    between atoms: C_1  and  C_2
REMARK    2  A    between atoms: C_2  and  C_3
REMARK    3  A    between atoms: C_3  and  C_4
REMARK    4  A    between atoms: C_4  and  C_5
REMARK    5  A    between atoms: C_5  and  C_6
REMARK    6  A    between atoms: C_8  and  O_9
REMARK    7  A    between atoms: C_10  and  O_11
REMARK    8  A    between atoms: O_11  and  C_12
REMARK                            x       y       z     vdW  Elec       q    Type
REMARK                         _______ _______ _______ _____ _____    ______ ____
ROOT
ATOM      1  C   UNL     1      10.003  -0.412  24.563  0.00  0.00    -0.044 A 
ATOM      2  C   UNL     1      10.242  -1.434  23.637  0.00  0.00    +0.007 A 
ATOM      3  C   UNL     1       9.571  -2.651  23.733  0.00  0.00    +0.050 A 
ATOM      4  C   UNL     1       8.707  -2.899  24.807  0.00  0.00    +0.170 A 
ATOM      5  C   UNL     1       8.438  -1.870  25.713  0.00  0.00    +0.159 A 
ATOM      6  C   UNL     1       9.078  -0.634  25.596  0.00  0.00    +0.052 A 
ENDROOT
BRANCH   5   7
ATOM      7  O   UNL     1       7.547  -2.089  26.728  0.00  0.00    -0.503 OA
ATOM      8  H   UNL     1       7.219  -1.234  27.049  0.00  0.00    +0.292 HD
ENDBRANCH   5   7
BRANCH   1   9
ATOM      9  C   UNL     1      10.733   0.905  24.455  0.00  0.00    +0.035 C 
BRANCH   9  10
ATOM     10  C   UNL     1       9.936   2.008  23.748  0.00  0.00    +0.005 C 
BRANCH  10  11
ATOM     11  C   UNL     1      10.185   2.048  22.238  0.00  0.00    +0.000 C 
BRANCH  11  13
ATOM     12  C   UNL     1       7.718   1.594  22.010  0.00  0.00    +0.004 C 
ATOM     13  C   UNL     1       9.107   1.271  21.482  0.00  0.00    -0.003 C 
ENDBRANCH  11  13
ENDBRANCH  10  11
ENDBRANCH   9  10
ENDBRANCH   1   9
BRANCH   4  14
ATOM     14  O   UNL     1       8.079  -4.111  25.003  0.00  0.00    -0.452 OA
BRANCH  14  15
ATOM     15  C   UNL     1       7.311  -4.626  23.979  0.00  0.00    +0.129 A 
ATOM     16  C   UNL     1       6.022  -4.113  23.840  0.00  0.00    +0.046 A 
ATOM     17  C   UNL     1       5.215  -4.536  22.781  0.00  0.00    +0.004 A 
ATOM     18  C   UNL     1       5.695  -5.475  21.868  0.00  0.00    +0.000 A 
ATOM     19  C   UNL     1       6.961  -6.033  22.040  0.00  0.00    +0.004 A 
ATOM     20  C   UNL     1       7.754  -5.634  23.115  0.00  0.00    +0.046 A 
ENDBRANCH  14  15
ENDBRANCH   4  14
TORSDOF 7
ENDMDL
MODEL 6
REMARK VINA RESULT:      -5.8      1.985      6.749
REMARK  Name = 
REMARK  8 active torsions:
REMARK  status: ('A' for Active; 'I' for Inactive)
REMARK    1  A    between atoms: C_1  and  C_2
REMARK    2  A    between atoms: C_2  and  C_3
REMARK    3  A    between atoms: C_3  and  C_4
REMARK    4  A    between atoms: C_4  and  C_5
REMARK    5  A    between atoms: C_5  and  C_6
REMARK    6  A    between atoms: C_8  and  O_9
REMARK    7  A    between atoms: C_10  and  O_11
REMARK    8  A    between atoms: O_11  and  C_12
REMARK                            x       y       z     vdW  Elec       q    Type
REMARK                         _______ _______ _______ _____ _____    ______ ____
ROOT
ATOM      1  C   UNL     1       9.948   1.327  23.627  0.00  0.00    -0.044 A 
ATOM      2  C   UNL     1       9.990   0.652  24.853  0.00  0.00    +0.007 A 
ATOM      3  C   UNL     1      10.076  -0.738  24.895  0.00  0.00    +0.050 A 
ATOM      4  C   UNL     1      10.036  -1.485  23.713  0.00  0.00    +0.170 A 
ATOM      5  C   UNL     1      10.029  -0.816  22.487  0.00  0.00    +0.159 A 
ATOM      6  C   UNL     1       9.986   0.580  22.439  0.00  0.00    +0.052 A 
ENDROOT
BRANCH   5   7
ATOM      7  O   UNL     1      10.053  -1.542  21.327  0.00  0.00    -0.503 OA
ATOM      8  H   UNL     1       9.512  -2.338  21.443  0.00  0.00    +0.292 HD
ENDBRANCH   5   7
BRANCH   1   9
ATOM      9  C   UNL     1       9.855   2.833  23.586  0.00  0.00    +0.035 C 
BRANCH   9  10
ATOM     10  C   UNL     1       8.621   3.405  24.295  0.00  0.00    +0.005 C 
BRANCH  10  11
ATOM     11  C   UNL     1       7.309   3.027  23.602  0.00  0.00    +0.000 C 
BRANCH  11  13
ATOM     12  C   UNL     1       7.232   5.162  22.270  0.00  0.00    +0.004 C 
ATOM     13  C   UNL     1       7.227   3.643  22.207  0.00  0.00    -0.003 C 
ENDBRANCH  11  13
ENDBRANCH  10  11
ENDBRANCH   9  10
ENDBRANCH   1   9
BRANCH   4  14
ATOM     14  O   UNL     1      10.032  -2.865  23.693  0.00  0.00    -0.452 OA
BRANCH  14  15
ATOM     15  C   UNL     1       9.019  -3.528  24.354  0.00  0.00    +0.129 A 
ATOM     16  C   UNL     1       7.723  -3.331  23.879  0.00  0.00    +0.046 A 
ATOM     17  C   UNL     1       6.656  -4.027  24.453  0.00  0.00    +0.004 A 
ATOM     18  C   UNL     1       6.887  -4.913  25.506  0.00  0.00    +0.000 A 
ATOM     19  C   UNL     1       8.173  -5.066  26.021  0.00  0.00    +0.004 A 
ATOM     20  C   UNL     1       9.232  -4.348  25.468  0.00  0.00    +0.046 A 
ENDBRANCH  14  15
ENDBRANCH   4  14
TORSDOF 7
ENDMDL
MODEL 7
REMARK VINA RESULT:      -5.5      1.742      2.795
REMARK  Name = 
REMARK  8 active torsions:
REMARK  status: ('A' for Active; 'I' for Inactive)
REMARK    1  A    between atoms: C_1  and  C_2
REMARK    2  A    between atoms: C_2  and  C_3
REMARK    3  A    between atoms: C_3  and  C_4
REMARK    4  A    between atoms: C_4  and  C_5
REMARK    5  A    between atoms: C_5  and  C_6
REMARK    6  A    between atoms: C_8  and  O_9
REMARK    7  A    between atoms: C_10  and  O_11
REMARK    8  A    between atoms: O_11  and  C_12
REMARK                            x       y       z     vdW  Elec       q    Type
REMARK                         _______ _______ _______ _____ _____    ______ ____
ROOT
ATOM      1  C   UNL     1       8.679  -3.129  25.658  0.00  0.00    -0.044 A 
ATOM      2  C   UNL     1       8.552  -1.855  26.225  0.00  0.00    +0.007 A 
ATOM      3  C   UNL     1       9.076  -0.736  25.581  0.00  0.00    +0.050 A 
ATOM      4  C   UNL     1       9.809  -0.880  24.398  0.00  0.00    +0.170 A 
ATOM      5  C   UNL     1       9.908  -2.143  23.810  0.00  0.00    +0.159 A 
ATOM      6  C   UNL     1       9.349  -3.262  24.432  0.00  0.00    +0.052 A 
ENDROOT
BRANCH   5   7
ATOM      7  O   UNL     1      10.572  -2.278  22.621  0.00  0.00    -0.503 OA
ATOM      8  H   UNL     1      11.439  -1.851  22.694  0.00  0.00    +0.292 HD
ENDBRANCH   5   7
BRANCH   1   9
ATOM      9  C   UNL     1       8.109  -4.338  26.360  0.00  0.00    +0.035 C 
BRANCH   9  10
ATOM     10  C   UNL     1       7.190  -5.197  25.483  0.00  0.00    +0.005 C 
BRANCH  10  11
ATOM     11  C   UNL     1       5.864  -4.505  25.156  0.00  0.00    +0.000 C 
BRANCH  11  13
ATOM     12  C   UNL     1       5.737  -2.772  23.333  0.00  0.00    +0.004 C 
ATOM     13  C   UNL     1       5.729  -4.258  23.654  0.00  0.00    -0.003 C 
ENDBRANCH  11  13
ENDBRANCH  10  11
ENDBRANCH   9  10
ENDBRANCH   1   9
BRANCH   4  14
ATOM     14  O   UNL     1      10.423   0.177  23.759  0.00  0.00    -0.452 OA
BRANCH  14  15
ATOM     15  C   UNL     1       9.634   1.199  23.274  0.00  0.00    +0.129 A 
ATOM     16  C   UNL     1       8.928   0.946  22.098  0.00  0.00    +0.046 A 
ATOM     17  C   UNL     1       8.053   1.908  21.589  0.00  0.00    +0.004 A 
ATOM     18  C   UNL     1       7.890   3.125  22.252  0.00  0.00    +0.000 A 
ATOM     19  C   UNL     1       8.638   3.403  23.394  0.00  0.00    +0.004 A 
ATOM     20  C   UNL     1       9.535   2.454  23.885  0.00  0.00    +0.046 A 
ENDBRANCH  14  15
ENDBRANCH   4  14
TORSDOF 7
ENDMDL
MODEL 8
REMARK VINA RESULT:      -5.5      1.351      2.260
REMARK  Name = 
REMARK  8 active torsions:
REMARK  status: ('A' for Active; 'I' for Inactive)
REMARK    1  A    between atoms: C_1  and  C_2
REMARK    2  A    between atoms: C_2  and  C_3
REMARK    3  A    between atoms: C_3  and  C_4
REMARK    4  A    between atoms: C_4  and  C_5
REMARK    5  A    between atoms: C_5  and  C_6
REMARK    6  A    between atoms: C_8  and  O_9
REMARK    7  A    between atoms: C_10  and  O_11
REMARK    8  A    between atoms: O_11  and  C_12
REMARK                            x       y       z     vdW  Elec       q    Type
REMARK                         _______ _______ _______ _____ _____    ______ ____
ROOT
ATOM      1  C   UNL     1       6.343  -3.875  23.720  0.00  0.00    -0.044 A 
ATOM      2  C   UNL     1       6.333  -2.858  22.757  0.00  0.00    +0.007 A 
ATOM      3  C   UNL     1       7.520  -2.242  22.365  0.00  0.00    +0.050 A 
ATOM      4  C   UNL     1       8.728  -2.573  22.987  0.00  0.00    +0.170 A 
ATOM      5  C   UNL     1       8.749  -3.611  23.921  0.00  0.00    +0.159 A 
ATOM      6  C   UNL     1       7.568  -4.261  24.288  0.00  0.00    +0.052 A 
ENDROOT
BRANCH   5   7
ATOM      7  O   UNL     1       9.939  -3.980  24.487  0.00  0.00    -0.503 OA
ATOM      8  H   UNL     1       9.766  -4.618  25.198  0.00  0.00    +0.292 HD
ENDBRANCH   5   7
BRANCH   1   9
ATOM      9  C   UNL     1       5.055  -4.540  24.141  0.00  0.00    +0.035 C 
BRANCH   9  10
ATOM     10  C   UNL     1       5.246  -5.897  24.831  0.00  0.00    +0.005 C 
BRANCH  10  11
ATOM     11  C   UNL     1       4.353  -6.069  26.063  0.00  0.00    +0.000 C 
BRANCH  11  13
ATOM     12  C   UNL     1       6.285  -5.600  27.609  0.00  0.00    +0.004 C 
ATOM     13  C   UNL     1       5.160  -6.563  27.262  0.00  0.00    -0.003 C 
ENDBRANCH  11  13
ENDBRANCH  10  11
ENDBRANCH   9  10
ENDBRANCH   1   9
BRANCH   4  14
ATOM     14  O   UNL     1       9.921  -1.940  22.702  0.00  0.00    -0.452 OA
BRANCH  14  15
ATOM     15  C   UNL     1      10.030  -0.592  22.972  0.00  0.00    +0.129 A 
ATOM     16  C   UNL     1       9.944   0.276  21.885  0.00  0.00    +0.046 A 
ATOM     17  C   UNL     1       9.973   1.658  22.091  0.00  0.00    +0.004 A 
ATOM     18  C   UNL     1      10.094   2.168  23.384  0.00  0.00    +0.000 A 
ATOM     19  C   UNL     1      10.239   1.302  24.466  0.00  0.00    +0.004 A 
ATOM     20  C   UNL     1      10.242  -0.077  24.256  0.00  0.00    +0.046 A 
ENDBRANCH  14  15
ENDBRANCH   4  14
TORSDOF 7
ENDMDL
MODEL 9
REMARK VINA RESULT:      -5.4      3.860      6.249
REMARK  Name = 
REMARK  8 active torsions:
REMARK  status: ('A' for Active; 'I' for Inactive)
REMARK    1  A    between atoms: C_1  and  C_2
REMARK    2  A    between atoms: C_2  and  C_3
REMARK    3  A    between atoms: C_3  and  C_4
REMARK    4  A    between atoms: C_4  and  C_5
REMARK    5  A    between atoms: C_5  and  C_6
REMARK    6  A    between atoms: C_8  and  O_9
REMARK    7  A    between atoms: C_10  and  O_11
REMARK    8  A    between atoms: O_11  and  C_12
REMARK                            x       y       z     vdW  Elec       q    Type
REMARK                         _______ _______ _______ _____ _____    ______ ____
ROOT
ATOM      1  C   UNL     1       9.527   0.135  24.293  0.00  0.00    -0.044 A 
ATOM      2  C   UNL     1       8.925   1.039  25.177  0.00  0.00    +0.007 A 
ATOM      3  C   UNL     1       8.769   2.378  24.826  0.00  0.00    +0.050 A 
ATOM      4  C   UNL     1       9.287   2.856  23.617  0.00  0.00    +0.170 A 
ATOM      5  C   UNL     1       9.856   1.952  22.717  0.00  0.00    +0.159 A 
ATOM      6  C   UNL     1       9.978   0.601  23.048  0.00  0.00    +0.052 A 
ENDROOT
BRANCH   5   7
ATOM      7  O   UNL     1      10.308   2.406  21.507  0.00  0.00    -0.503 OA
ATOM      8  H   UNL     1      10.636   3.313  21.613  0.00  0.00    +0.292 HD
ENDBRANCH   5   7
BRANCH   1   9
ATOM      9  C   UNL     1       9.694  -1.315  24.679  0.00  0.00    +0.035 C 
BRANCH   9  10
ATOM     10  C   UNL     1       9.448  -2.302  23.531  0.00  0.00    +0.005 C 
BRANCH  10  11
ATOM     11  C   UNL     1       8.502  -3.442  23.919  0.00  0.00    +0.000 C 
BRANCH  11  13
ATOM     12  C   UNL     1       6.728  -2.011  22.846  0.00  0.00    +0.004 C 
ATOM     13  C   UNL     1       7.241  -3.427  23.056  0.00  0.00    -0.003 C 
ENDBRANCH  11  13
ENDBRANCH  10  11
ENDBRANCH   9  10
ENDBRANCH   1   9
BRANCH   4  14
ATOM     14  O   UNL     1       9.239   4.186  23.250  0.00  0.00    -0.452 OA
BRANCH  14  15
ATOM     15  C   UNL     1      10.150   5.055  23.812  0.00  0.00    +0.129 A 
ATOM     16  C   UNL     1       9.657   5.967  24.744  0.00  0.00    +0.046 A 
ATOM     17  C   UNL     1      10.534   6.830  25.407  0.00  0.00    +0.004 A 
ATOM     18  C   UNL     1      11.901   6.783  25.132  0.00  0.00    +0.000 A 
ATOM     19  C   UNL     1      12.388   5.913  24.158  0.00  0.00    +0.004 A 
ATOM     20  C   UNL     1      11.508   5.075  23.474  0.00  0.00    +0.046 A 
ENDBRANCH  14  15
ENDBRANCH   4  14
TORSDOF 7
ENDMDL
