MODEL 1
REMARK VINA RESULT:      33.8      0.000      0.000
REMARK  Name = 
REMARK  21 active torsions:
REMARK  status: ('A' for Active; 'I' for Inactive)
REMARK    1  A    between atoms: N_1  and  C_2
REMARK    2  A    between atoms: C_2  and  C_3
REMARK    3  A    between atoms: C_3  and  C_4
REMARK    4  A    between atoms: C_4  and  C_5
REMARK    5  A    between atoms: C_5  and  C_6
REMARK    6  A    between atoms: C_6  and  N_8
REMARK    7  A    between atoms: C_6  and  C_74
REMARK    8  A    between atoms: C_9  and  C_11
REMARK    9  A    between atoms: C_17  and  C_19
REMARK   10  A    between atoms: C_25  and  N_27
REMARK   11  A    between atoms: C_31  and  C_33
REMARK   12  A    between atoms: C_33  and  C_34
REMARK   13  A    between atoms: C_43  and  C_45
REMARK   14  A    between atoms: C_45  and  C_46
REMARK   15  A    between atoms: C_55  and  C_57
REMARK   16  A    between atoms: C_57  and  C_58
REMARK   17  A    between atoms: C_58  and  C_59
REMARK   18  A    between atoms: C_65  and  C_67
REMARK   19  A    between atoms: C_67  and  C_68
REMARK   20  A    between atoms: N_76  and  C_77
REMARK   21  A    between atoms: C_77  and  C_78
REMARK                            x       y       z     vdW  Elec       q    Type
REMARK                         _______ _______ _______ _____ _____    ______ ____
ROOT
ATOM      1  C   UNL     1       9.587   0.315  24.786  0.00  0.00    +0.170 C 
ATOM      2  N   UNL     1       8.172  -1.289  25.751  0.00  0.00    -0.302 N 
ATOM      3  H   UNL     1       8.046  -1.818  24.871  0.00  0.00    +0.150 HD
ATOM      4  C   UNL     1       6.907  -2.563  26.924  0.00  0.00    +0.234 C 
ATOM      5  O   UNL     1       7.645  -3.658  26.772  0.00  0.00    -0.274 OA
ATOM      6  C   UNL     1       5.260  -3.982  27.881  0.00  0.00    +0.168 C 
ATOM      7  N   UNL     1       4.189  -5.693  27.667  0.00  0.00    -0.302 N 
ATOM      8  H   UNL     1       4.579  -6.476  28.287  0.00  0.00    +0.150 HD
ATOM      9  C   UNL     1       2.809  -6.864  28.181  0.00  0.00    +0.234 C 
ATOM     10  O   UNL     1       2.776  -7.542  29.249  0.00  0.00    -0.274 OA
ATOM     11  C   UNL     1       1.366  -7.360  27.252  0.00  0.00    +0.159 C 
ATOM     12  N   UNL     1       1.393  -5.983  27.150  0.00  0.00    -0.302 N 
ATOM     13  H   UNL     1       1.404  -5.497  28.024  0.00  0.00    +0.150 HD
ATOM     14  C   UNL     1       2.092  -5.243  26.318  0.00  0.00    +0.234 C 
ATOM     15  O   UNL     1       2.477  -5.743  25.270  0.00  0.00    -0.274 OA
ATOM     16  C   UNL     1       2.550  -3.833  26.996  0.00  0.00    +0.163 C 
ATOM     17  N   UNL     1       3.282  -3.449  25.859  0.00  0.00    -0.302 N 
ATOM     18  H   UNL     1       3.618  -4.292  25.367  0.00  0.00    +0.150 HD
ATOM     19  C   UNL     1       4.200  -2.491  25.948  0.00  0.00    +0.234 C 
ATOM     20  O   UNL     1       4.343  -1.802  26.966  0.00  0.00    -0.274 OA
ATOM     21  C   UNL     1       5.033  -2.381  24.705  0.00  0.00    +0.163 C 
ATOM     22  N   UNL     1       5.583  -1.111  25.112  0.00  0.00    -0.302 N 
ATOM     23  H   UNL     1       5.777  -0.884  26.079  0.00  0.00    +0.150 HD
ATOM     24  C   UNL     1       6.257  -0.396  24.249  0.00  0.00    +0.231 C 
ATOM     25  O   UNL     1       6.300  -0.828  23.096  0.00  0.00    -0.274 OA
ATOM     26  C   UNL     1       6.927   0.863  24.811  0.00  0.00    +0.148 C 
ATOM     27  C   UNL     1       7.213   1.348  23.342  0.00  0.00    +0.109 C 
ATOM     28  S   UNL     1       7.175   3.086  23.053  0.00  0.00    -0.091 S 
ATOM     29  S   UNL     1       9.068   2.774  22.565  0.00  0.00    -0.091 S 
ATOM     30  C   UNL     1       9.261   2.270  24.638  0.00  0.00    +0.112 C 
ENDROOT
BRANCH   1  33
ATOM     31  C   UNL     1      12.305   4.747  21.340  0.00  0.00    +0.162 C 
ATOM     32  N   UNL     1      12.026   3.387  22.878  0.00  0.00    -0.288 N 
ATOM     33  C   UNL     1      11.143   1.833  23.891  0.00  0.00    +0.237 C 
ATOM     34  O   UNL     1      12.299   1.269  24.197  0.00  0.00    -0.274 OA
ATOM     35  C   UNL     1      13.757   4.419  22.934  0.00  0.00    +0.109 C 
ATOM     36  C   UNL     1      14.650   5.888  21.848  0.00  0.00    +0.021 C 
ATOM     37  C   UNL     1      13.419   6.467  21.294  0.00  0.00    +0.033 C 
BRANCH  31  40
ATOM     38  N   UNL     1      13.139   4.092  18.741  0.00  0.00    -0.302 N 
ATOM     39  H   UNL     1      12.150   4.145  18.782  0.00  0.00    +0.150 HD
ATOM     40  C   UNL     1      13.453   4.929  19.753  0.00  0.00    +0.234 C 
ATOM     41  O   UNL     1      14.541   5.512  19.502  0.00  0.00    -0.274 OA
BRANCH  38  42
ATOM     42  C   UNL     1      13.667   4.154  17.342  0.00  0.00    +0.159 C 
BRANCH  42  43
ATOM     43  C   UNL     1      15.156   3.707  17.447  0.00  0.00    +0.234 C 
ATOM     44  N   UNL     1      15.558   2.599  16.746  0.00  0.00    -0.305 N 
ATOM     45  H   UNL     1      14.907   2.022  16.231  0.00  0.00    +0.149 HD
ATOM     46  O   UNL     1      15.956   4.308  18.166  0.00  0.00    -0.274 OA
BRANCH  44  47
ATOM     47  C   UNL     1      16.944   2.162  16.731  0.00  0.00    +0.199 C 
BRANCH  47  48
ATOM     48  C   UNL     1      17.555   2.309  15.339  0.00  0.00    +0.228 C 
ATOM     49  O   UNL     1      16.886   2.611  14.355  0.00  0.00    -0.274 OA
ATOM     50  N   UNL     1      18.911   2.175  15.242  0.00  0.00    -0.328 N 
ATOM     51  H   UNL     1      19.348   2.346  14.348  0.00  0.00    +0.145 HD
ATOM     52  H   UNL     1      19.504   2.055  16.056  0.00  0.00    +0.145 HD
ENDBRANCH  47  48
ENDBRANCH  44  47
ENDBRANCH  42  43
BRANCH  42  53
ATOM     53  C   UNL     1      13.464   5.633  17.084  0.00  0.00    +0.032 C 
BRANCH  53  54
ATOM     54  C   UNL     1      13.443   5.990  15.635  0.00  0.00    +0.003 C 
BRANCH  54  55
ATOM     55  C   UNL     1      14.782   5.731  14.990  0.00  0.00    +0.015 C 
BRANCH  55  56
ATOM     56  C   UNL     1      14.571   5.520  13.499  0.00  0.00    +0.077 C 
BRANCH  56  57
ATOM     57  N   UNL     1      15.686   4.763  12.944  0.00  0.00    -0.330 NA
ATOM     58  H   UNL     1      16.530   5.334  12.970  0.00  0.00    +0.118 HD
ATOM     59  H   UNL     1      15.864   3.940  13.514  0.00  0.00    +0.118 HD
ENDBRANCH  56  57
ENDBRANCH  55  56
ENDBRANCH  54  55
ENDBRANCH  53  54
ENDBRANCH  42  53
ENDBRANCH  38  42
ENDBRANCH  31  40
ENDBRANCH   1  33
BRANCH  26  60
ATOM     60  N   UNL     1       7.836   0.786  26.229  0.00  0.00    -0.319 NA
ATOM     61  H   UNL     1       7.973  -0.203  26.472  0.00  0.00    +0.119 HD
ATOM     62  H   UNL     1       8.876   0.641  26.041  0.00  0.00    +0.119 HD
ENDBRANCH  26  60
BRANCH   6  63
ATOM     63  C   UNL     1       3.754  -4.476  29.374  0.00  0.00    +0.127 C 
BRANCH  63  64
ATOM     64  C   UNL     1       1.791  -4.661  30.160  0.00  0.00    +0.213 C 
ATOM     65  O   UNL     1       0.937  -3.759  30.409  0.00  0.00    -0.276 OA
ATOM     66  N   UNL     1       0.755  -5.826  30.479  0.00  0.00    -0.329 N 
ATOM     67  H   UNL     1       0.009  -5.584  31.242  0.00  0.00    +0.145 HD
ATOM     68  H   UNL     1      -0.079  -6.032  29.886  0.00  0.00    +0.145 HD
ENDBRANCH  63  64
ENDBRANCH   6  63
BRANCH  11  69
ATOM     69  C   UNL     1       1.812  -8.831  27.050  0.00  0.00    +0.041 C 
BRANCH  69  70
ATOM     70  C   UNL     1       1.417  -9.414  25.652  0.00  0.00    +0.098 C 
BRANCH  70  71
ATOM     71  C   UNL     1       0.962  -8.345  24.670  0.00  0.00    +0.211 C 
ATOM     72  O   UNL     1       0.447  -7.294  25.038  0.00  0.00    -0.276 OA
ATOM     73  N   UNL     1       1.142  -8.597  23.342  0.00  0.00    -0.329 N 
ATOM     74  H   UNL     1       0.828  -7.891  22.685  0.00  0.00    +0.145 HD
ATOM     75  H   UNL     1       1.561  -9.439  22.971  0.00  0.00    +0.145 HD
ENDBRANCH  70  71
ENDBRANCH  69  70
ENDBRANCH  11  69
BRANCH  16  76
ATOM     76  C   UNL     1       1.724  -2.981  27.995  0.00  0.00    +0.067 C 
BRANCH  76  77
ATOM     77  C   UNL     1       1.847  -1.672  27.369  0.00  0.00    -0.045 A 
ATOM     78  C   UNL     1       0.781  -1.433  26.537  0.00  0.00    +0.004 A 
ATOM     79  C   UNL     1       0.450  -0.134  26.289  0.00  0.00    +0.000 A 
ATOM     80  C   UNL     1       1.065   0.909  26.986  0.00  0.00    +0.000 A 
ATOM     81  C   UNL     1       2.093   0.675  27.865  0.00  0.00    +0.000 A 
ATOM     82  C   UNL     1       2.535  -0.616  27.975  0.00  0.00    +0.004 A 
ENDBRANCH  76  77
ENDBRANCH  16  76
BRANCH  21  83
ATOM     83  C   UNL     1       6.057  -3.510  24.275  0.00  0.00    +0.067 C 
BRANCH  83  84
ATOM     84  C   UNL     1       5.536  -4.585  23.366  0.00  0.00    -0.045 A 
ATOM     85  C   UNL     1       4.216  -5.073  23.415  0.00  0.00    +0.004 A 
ATOM     86  C   UNL     1       3.854  -6.170  22.634  0.00  0.00    +0.000 A 
ATOM     87  C   UNL     1       4.720  -6.611  21.638  0.00  0.00    +0.000 A 
ATOM     88  C   UNL     1       5.999  -6.070  21.536  0.00  0.00    +0.000 A 
ATOM     89  C   UNL     1       6.438  -5.140  22.464  0.00  0.00    +0.004 A 
ENDBRANCH  83  84
ENDBRANCH  21  83
TORSDOF 21
ENDMDL
MODEL 2
REMARK VINA RESULT:      34.6      1.380      2.273
REMARK  Name = 
REMARK  21 active torsions:
REMARK  status: ('A' for Active; 'I' for Inactive)
REMARK    1  A    between atoms: N_1  and  C_2
REMARK    2  A    between atoms: C_2  and  C_3
REMARK    3  A    between atoms: C_3  and  C_4
REMARK    4  A    between atoms: C_4  and  C_5
REMARK    5  A    between atoms: C_5  and  C_6
REMARK    6  A    between atoms: C_6  and  N_8
REMARK    7  A    between atoms: C_6  and  C_74
REMARK    8  A    between atoms: C_9  and  C_11
REMARK    9  A    between atoms: C_17  and  C_19
REMARK   10  A    between atoms: C_25  and  N_27
REMARK   11  A    between atoms: C_31  and  C_33
REMARK   12  A    between atoms: C_33  and  C_34
REMARK   13  A    between atoms: C_43  and  C_45
REMARK   14  A    between atoms: C_45  and  C_46
REMARK   15  A    between atoms: C_55  and  C_57
REMARK   16  A    between atoms: C_57  and  C_58
REMARK   17  A    between atoms: C_58  and  C_59
REMARK   18  A    between atoms: C_65  and  C_67
REMARK   19  A    between atoms: C_67  and  C_68
REMARK   20  A    between atoms: N_76  and  C_77
REMARK   21  A    between atoms: C_77  and  C_78
REMARK                            x       y       z     vdW  Elec       q    Type
REMARK                         _______ _______ _______ _____ _____    ______ ____
ROOT
ATOM      1  C   UNL     1       9.287   0.620  25.072  0.00  0.00    +0.170 C 
ATOM      2  N   UNL     1       7.861  -1.012  25.972  0.00  0.00    -0.302 N 
ATOM      3  H   UNL     1       7.742  -1.512  25.074  0.00  0.00    +0.150 HD
ATOM      4  C   UNL     1       6.584  -2.321  27.092  0.00  0.00    +0.234 C 
ATOM      5  O   UNL     1       7.321  -3.412  26.911  0.00  0.00    -0.274 OA
ATOM      6  C   UNL     1       4.925  -3.767  27.988  0.00  0.00    +0.168 C 
ATOM      7  N   UNL     1       3.853  -5.468  27.709  0.00  0.00    -0.302 N 
ATOM      8  H   UNL     1       4.237  -6.272  28.306  0.00  0.00    +0.150 HD
ATOM      9  C   UNL     1       2.467  -6.653  28.173  0.00  0.00    +0.234 C 
ATOM     10  O   UNL     1       2.423  -7.364  29.217  0.00  0.00    -0.274 OA
ATOM     11  C   UNL     1       1.031  -7.114  27.215  0.00  0.00    +0.159 C 
ATOM     12  N   UNL     1       1.062  -5.735  27.159  0.00  0.00    -0.302 N 
ATOM     13  H   UNL     1       1.066  -5.278  28.048  0.00  0.00    +0.150 HD
ATOM     14  C   UNL     1       1.769  -4.969  26.358  0.00  0.00    +0.234 C 
ATOM     15  O   UNL     1       2.162  -5.436  25.297  0.00  0.00    -0.274 OA
ATOM     16  C   UNL     1       2.224  -3.584  27.085  0.00  0.00    +0.163 C 
ATOM     17  N   UNL     1       2.966  -3.164  25.968  0.00  0.00    -0.302 N 
ATOM     18  H   UNL     1       3.305  -3.992  25.451  0.00  0.00    +0.150 HD
ATOM     19  C   UNL     1       3.885  -2.212  26.096  0.00  0.00    +0.234 C 
ATOM     20  O   UNL     1       4.021  -1.556  27.137  0.00  0.00    -0.274 OA
ATOM     21  C   UNL     1       4.729  -2.063  24.864  0.00  0.00    +0.163 C 
ATOM     22  N   UNL     1       5.278  -0.808  25.317  0.00  0.00    -0.302 N 
ATOM     23  H   UNL     1       5.464  -0.613  26.293  0.00  0.00    +0.150 HD
ATOM     24  C   UNL     1       5.960  -0.066  24.484  0.00  0.00    +0.231 C 
ATOM     25  O   UNL     1       6.013  -0.461  23.318  0.00  0.00    -0.274 OA
ATOM     26  C   UNL     1       6.628   1.173  25.093  0.00  0.00    +0.148 C 
ATOM     27  C   UNL     1       6.927   1.705  23.643  0.00  0.00    +0.109 C 
ATOM     28  S   UNL     1       6.895   3.450  23.410  0.00  0.00    -0.091 S 
ATOM     29  S   UNL     1       8.792   3.151  22.929  0.00  0.00    -0.091 S 
ATOM     30  C   UNL     1       8.966   2.580  24.986  0.00  0.00    +0.112 C 
ENDROOT
BRANCH   1  33
ATOM     31  C   UNL     1      12.467   4.487  21.352  0.00  0.00    +0.162 C 
ATOM     32  N   UNL     1      11.834   3.555  23.091  0.00  0.00    -0.288 N 
ATOM     33  C   UNL     1      10.853   2.163  24.241  0.00  0.00    +0.237 C 
ATOM     34  O   UNL     1      11.887   1.981  25.046  0.00  0.00    -0.274 OA
ATOM     35  C   UNL     1      13.287   4.934  23.323  0.00  0.00    +0.109 C 
ATOM     36  C   UNL     1      14.313   6.228  22.138  0.00  0.00    +0.021 C 
ATOM     37  C   UNL     1      13.297   6.341  21.084  0.00  0.00    +0.033 C 
BRANCH  31  40
ATOM     38  N   UNL     1      13.855   4.936  18.954  0.00  0.00    -0.302 N 
ATOM     39  H   UNL     1      13.239   5.689  19.141  0.00  0.00    +0.150 HD
ATOM     40  C   UNL     1      14.071   4.501  20.213  0.00  0.00    +0.234 C 
ATOM     41  O   UNL     1      15.235   4.029  20.308  0.00  0.00    -0.274 OA
BRANCH  38  42
ATOM     42  C   UNL     1      14.903   5.279  17.942  0.00  0.00    +0.159 C 
BRANCH  42  43
ATOM     43  C   UNL     1      14.158   5.296  16.573  0.00  0.00    +0.234 C 
ATOM     44  N   UNL     1      14.773   5.887  15.500  0.00  0.00    -0.305 N 
ATOM     45  H   UNL     1      15.652   6.379  15.586  0.00  0.00    +0.149 HD
ATOM     46  O   UNL     1      13.028   4.819  16.453  0.00  0.00    -0.274 OA
BRANCH  44  47
ATOM     47  C   UNL     1      14.179   5.877  14.173  0.00  0.00    +0.199 C 
BRANCH  47  48
ATOM     48  C   UNL     1      15.131   5.269  13.146  0.00  0.00    +0.228 C 
ATOM     49  O   UNL     1      16.218   5.773  12.877  0.00  0.00    -0.274 OA
ATOM     50  N   UNL     1      14.761   4.078  12.590  0.00  0.00    -0.328 N 
ATOM     51  H   UNL     1      15.409   3.616  11.968  0.00  0.00    +0.145 HD
ATOM     52  H   UNL     1      13.933   3.574  12.887  0.00  0.00    +0.145 HD
ENDBRANCH  47  48
ENDBRANCH  44  47
ENDBRANCH  42  43
BRANCH  42  53
ATOM     53  C   UNL     1      15.823   4.094  18.151  0.00  0.00    +0.032 C 
BRANCH  53  54
ATOM     54  C   UNL     1      15.676   3.033  17.112  0.00  0.00    +0.003 C 
BRANCH  54  55
ATOM     55  C   UNL     1      16.782   2.012  17.216  0.00  0.00    +0.015 C 
BRANCH  55  56
ATOM     56  C   UNL     1      17.770   2.248  16.084  0.00  0.00    +0.077 C 
BRANCH  56  57
ATOM     57  N   UNL     1      17.135   1.956  14.805  0.00  0.00    -0.330 NA
ATOM     58  H   UNL     1      16.707   1.032  14.843  0.00  0.00    +0.118 HD
ATOM     59  H   UNL     1      16.389   2.624  14.628  0.00  0.00    +0.118 HD
ENDBRANCH  56  57
ENDBRANCH  55  56
ENDBRANCH  54  55
ENDBRANCH  53  54
ENDBRANCH  42  53
ENDBRANCH  38  42
ENDBRANCH  31  40
ENDBRANCH   1  33
BRANCH  26  60
ATOM     60  N   UNL     1       7.524   1.046  26.515  0.00  0.00    -0.319 NA
ATOM     61  H   UNL     1       7.707   1.994  26.868  0.00  0.00    +0.119 HD
ATOM     62  H   UNL     1       6.915   1.091  27.389  0.00  0.00    +0.119 HD
ENDBRANCH  26  60
BRANCH   6  63
ATOM     63  C   UNL     1       3.406  -4.307  29.451  0.00  0.00    +0.127 C 
BRANCH  63  64
ATOM     64  C   UNL     1       1.437  -4.658  30.161  0.00  0.00    +0.213 C 
ATOM     65  O   UNL     1       0.539  -3.825  30.485  0.00  0.00    -0.276 OA
ATOM     66  N   UNL     1       0.446  -5.894  30.324  0.00  0.00    -0.329 N 
ATOM     67  H   UNL     1      -0.325  -5.768  31.089  0.00  0.00    +0.145 HD
ATOM     68  H   UNL     1      -0.365  -6.066  29.690  0.00  0.00    +0.145 HD
ENDBRANCH  63  64
ENDBRANCH   6  63
BRANCH  11  69
ATOM     69  C   UNL     1       1.476  -8.579  26.969  0.00  0.00    +0.041 C 
BRANCH  69  70
ATOM     70  C   UNL     1       0.534  -9.360  25.993  0.00  0.00    +0.098 C 
BRANCH  70  71
ATOM     71  C   UNL     1       1.172  -9.628  24.639  0.00  0.00    +0.211 C 
ATOM     72  O   UNL     1       2.122  -8.973  24.221  0.00  0.00    -0.276 OA
ATOM     73  N   UNL     1       0.643 -10.634  23.885  0.00  0.00    -0.329 N 
ATOM     74  H   UNL     1       1.059 -10.806  22.977  0.00  0.00    +0.145 HD
ATOM     75  H   UNL     1      -0.135 -11.213  24.169  0.00  0.00    +0.145 HD
ENDBRANCH  70  71
ENDBRANCH  69  70
ENDBRANCH  11  69
BRANCH  16  76
ATOM     76  C   UNL     1       1.391  -2.763  28.104  0.00  0.00    +0.067 C 
BRANCH  76  77
ATOM     77  C   UNL     1       1.657  -1.416  27.619  0.00  0.00    -0.045 A 
ATOM     78  C   UNL     1       0.637  -0.985  26.806  0.00  0.00    +0.004 A 
ATOM     79  C   UNL     1       0.443   0.359  26.692  0.00  0.00    +0.000 A 
ATOM     80  C   UNL     1       1.146   1.257  27.499  0.00  0.00    +0.000 A 
ATOM     81  C   UNL     1       2.129   0.830  28.358  0.00  0.00    +0.000 A 
ATOM     82  C   UNL     1       2.436  -0.504  28.337  0.00  0.00    +0.004 A 
ENDBRANCH  76  77
ENDBRANCH  16  76
BRANCH  21  83
ATOM     83  C   UNL     1       5.754  -3.180  24.406  0.00  0.00    +0.067 C 
BRANCH  83  84
ATOM     84  C   UNL     1       6.887  -2.739  23.525  0.00  0.00    -0.045 A 
ATOM     85  C   UNL     1       6.710  -1.977  22.354  0.00  0.00    +0.004 A 
ATOM     86  C   UNL     1       7.798  -1.732  21.517  0.00  0.00    +0.000 A 
ATOM     87  C   UNL     1       9.081  -2.023  21.968  0.00  0.00    +0.000 A 
ATOM     88  C   UNL     1       9.262  -2.705  23.169  0.00  0.00    +0.000 A 
ATOM     89  C   UNL     1       8.164  -3.153  23.886  0.00  0.00    +0.004 A 
ENDBRANCH  83  84
ENDBRANCH  21  83
TORSDOF 21
ENDMDL
MODEL 3
REMARK VINA RESULT:      35.1      3.659     14.512
REMARK  Name = 
REMARK  21 active torsions:
REMARK  status: ('A' for Active; 'I' for Inactive)
REMARK    1  A    between atoms: N_1  and  C_2
REMARK    2  A    between atoms: C_2  and  C_3
REMARK    3  A    between atoms: C_3  and  C_4
REMARK    4  A    between atoms: C_4  and  C_5
REMARK    5  A    between atoms: C_5  and  C_6
REMARK    6  A    between atoms: C_6  and  N_8
REMARK    7  A    between atoms: C_6  and  C_74
REMARK    8  A    between atoms: C_9  and  C_11
REMARK    9  A    between atoms: C_17  and  C_19
REMARK   10  A    between atoms: C_25  and  N_27
REMARK   11  A    between atoms: C_31  and  C_33
REMARK   12  A    between atoms: C_33  and  C_34
REMARK   13  A    between atoms: C_43  and  C_45
REMARK   14  A    between atoms: C_45  and  C_46
REMARK   15  A    between atoms: C_55  and  C_57
REMARK   16  A    between atoms: C_57  and  C_58
REMARK   17  A    between atoms: C_58  and  C_59
REMARK   18  A    between atoms: C_65  and  C_67
REMARK   19  A    between atoms: C_67  and  C_68
REMARK   20  A    between atoms: N_76  and  C_77
REMARK   21  A    between atoms: C_77  and  C_78
REMARK                            x       y       z     vdW  Elec       q    Type
REMARK                         _______ _______ _______ _____ _____    ______ ____
ROOT
ATOM      1  C   UNL     1       7.370  -2.450  22.804  0.00  0.00    +0.170 C 
ATOM      2  N   UNL     1       8.824  -0.639  23.139  0.00  0.00    -0.302 N 
ATOM      3  H   UNL     1       8.734  -0.659  24.170  0.00  0.00    +0.150 HD
ATOM      4  C   UNL     1      10.166   1.033  23.096  0.00  0.00    +0.234 C 
ATOM      5  O   UNL     1      11.143   0.437  23.771  0.00  0.00    -0.274 OA
ATOM      6  C   UNL     1      11.409   3.041  23.356  0.00  0.00    +0.168 C 
ATOM      7  N   UNL     1      12.391   4.251  24.658  0.00  0.00    -0.302 N 
ATOM      8  H   UNL     1      13.453   4.132  24.574  0.00  0.00    +0.150 HD
ATOM      9  C   UNL     1      13.262   5.860  25.095  0.00  0.00    +0.234 C 
ATOM     10  O   UNL     1      14.378   6.242  24.641  0.00  0.00    -0.274 OA
ATOM     11  C   UNL     1      12.787   7.089  26.302  0.00  0.00    +0.159 C 
ATOM     12  N   UNL     1      11.639   6.851  25.574  0.00  0.00    -0.302 N 
ATOM     13  H   UNL     1      11.731   6.986  24.587  0.00  0.00    +0.150 HD
ATOM     14  C   UNL     1      10.767   5.878  25.724  0.00  0.00    +0.234 C 
ATOM     15  O   UNL     1      10.691   5.322  26.811  0.00  0.00    -0.274 OA
ATOM     16  C   UNL     1      10.127   5.409  24.300  0.00  0.00    +0.163 C 
ATOM     17  N   UNL     1       9.382   4.379  24.899  0.00  0.00    -0.302 N 
ATOM     18  H   UNL     1       9.871   4.052  25.748  0.00  0.00    +0.150 HD
ATOM     19  C   UNL     1       8.896   3.388  24.157  0.00  0.00    +0.234 C 
ATOM     20  O   UNL     1       8.938   3.403  22.921  0.00  0.00    -0.274 OA
ATOM     21  C   UNL     1       8.338   2.272  24.990  0.00  0.00    +0.163 C 
ATOM     22  N   UNL     1       7.683   1.670  23.854  0.00  0.00    -0.302 N 
ATOM     23  H   UNL     1       8.079   1.686  22.923  0.00  0.00    +0.150 HD
ATOM     24  C   UNL     1       6.809   0.717  24.047  0.00  0.00    +0.231 C 
ATOM     25  O   UNL     1       6.535   0.455  25.220  0.00  0.00    -0.274 OA
ATOM     26  C   UNL     1       6.279   0.037  22.779  0.00  0.00    +0.148 C 
ATOM     27  C   UNL     1       5.160  -0.659  23.638  0.00  0.00    +0.109 C 
ATOM     28  S   UNL     1       3.604  -0.928  22.856  0.00  0.00    -0.091 S 
ATOM     29  S   UNL     1       4.061  -2.823  23.205  0.00  0.00    -0.091 S 
ATOM     30  C   UNL     1       5.646  -2.439  21.816  0.00  0.00    +0.112 C 
ENDROOT
BRANCH   1  33
ATOM     31  C   UNL     1       2.549  -6.360  22.194  0.00  0.00    +0.162 C 
ATOM     32  N   UNL     1       4.494  -5.651  22.093  0.00  0.00    -0.288 N 
ATOM     33  C   UNL     1       6.058  -4.368  22.447  0.00  0.00    +0.237 C 
ATOM     34  O   UNL     1       6.901  -5.346  22.734  0.00  0.00    -0.274 OA
ATOM     35  C   UNL     1       4.223  -7.541  21.446  0.00  0.00    +0.109 C 
ATOM     36  C   UNL     1       2.664  -8.823  21.204  0.00  0.00    +0.021 C 
ATOM     37  C   UNL     1       1.618  -7.801  21.072  0.00  0.00    +0.033 C 
BRANCH  31  40
ATOM     38  N   UNL     1       1.747  -7.608  24.576  0.00  0.00    -0.302 N 
ATOM     39  H   UNL     1       1.758  -6.624  24.690  0.00  0.00    +0.150 HD
ATOM     40  C   UNL     1       1.537  -7.680  23.245  0.00  0.00    +0.234 C 
ATOM     41  O   UNL     1       0.870  -8.713  22.973  0.00  0.00    -0.274 OA
BRANCH  38  42
ATOM     42  C   UNL     1       0.957  -8.307  25.638  0.00  0.00    +0.159 C 
BRANCH  42  43
ATOM     43  C   UNL     1       1.135  -7.438  26.919  0.00  0.00    +0.234 C 
ATOM     44  N   UNL     1       0.450  -6.253  27.007  0.00  0.00    -0.305 N 
ATOM     45  H   UNL     1      -0.100  -5.890  26.241  0.00  0.00    +0.149 HD
ATOM     46  O   UNL     1       1.897  -7.781  27.825  0.00  0.00    -0.274 OA
BRANCH  44  47
ATOM     47  C   UNL     1       0.504  -5.423  28.199  0.00  0.00    +0.199 C 
BRANCH  47  48
ATOM     48  C   UNL     1       1.323  -4.158  27.954  0.00  0.00    +0.228 C 
ATOM     49  O   UNL     1       1.438  -3.274  28.800  0.00  0.00    -0.274 OA
ATOM     50  N   UNL     1       2.007  -4.083  26.774  0.00  0.00    -0.328 N 
ATOM     51  H   UNL     1       2.618  -3.294  26.622  0.00  0.00    +0.145 HD
ATOM     52  H   UNL     1       2.035  -4.852  26.114  0.00  0.00    +0.145 HD
ENDBRANCH  47  48
ENDBRANCH  44  47
ENDBRANCH  42  43
BRANCH  42  53
ATOM     53  C   UNL     1       1.706  -9.624  25.654  0.00  0.00    +0.032 C 
BRANCH  53  54
ATOM     54  C   UNL     1       3.189  -9.468  25.712  0.00  0.00    +0.003 C 
BRANCH  54  55
ATOM     55  C   UNL     1       3.642  -8.266  24.921  0.00  0.00    +0.015 C 
BRANCH  55  56
ATOM     56  C   UNL     1       4.775  -7.587  25.673  0.00  0.00    +0.077 C 
BRANCH  56  57
ATOM     57  N   UNL     1       4.466  -7.541  27.097  0.00  0.00    -0.330 NA
ATOM     58  H   UNL     1       4.627  -8.459  27.509  0.00  0.00    +0.118 HD
ATOM     59  H   UNL     1       5.090  -6.889  27.566  0.00  0.00    +0.118 HD
ENDBRANCH  56  57
ENDBRANCH  55  56
ENDBRANCH  54  55
ENDBRANCH  53  54
ENDBRANCH  42  53
ENDBRANCH  38  42
ENDBRANCH  31  40
ENDBRANCH   1  33
BRANCH  26  60
ATOM     60  N   UNL     1       7.344  -0.483  21.580  0.00  0.00    -0.319 NA
ATOM     61  H   UNL     1       7.460   0.276  20.898  0.00  0.00    +0.119 HD
ATOM     62  H   UNL     1       8.346  -0.161  21.755  0.00  0.00    +0.119 HD
ENDBRANCH  26  60
BRANCH   6  63
ATOM     63  C   UNL     1      12.244   4.916  22.628  0.00  0.00    +0.127 C 
BRANCH  63  64
ATOM     64  C   UNL     1      13.449   6.149  21.390  0.00  0.00    +0.213 C 
ATOM     65  O   UNL     1      14.218   7.103  21.712  0.00  0.00    -0.276 OA
ATOM     66  N   UNL     1      13.917   6.193  19.870  0.00  0.00    -0.329 N 
ATOM     67  H   UNL     1      14.201   7.183  19.503  0.00  0.00    +0.145 HD
ATOM     68  H   UNL     1      14.876   5.923  19.557  0.00  0.00    +0.145 HD
ENDBRANCH  63  64
ENDBRANCH   6  63
BRANCH  11  69
ATOM     69  C   UNL     1      13.964   6.812  27.273  0.00  0.00    +0.041 C 
BRANCH  69  70
ATOM     70  C   UNL     1      13.616   7.106  28.771  0.00  0.00    +0.098 C 
BRANCH  70  71
ATOM     71  C   UNL     1      13.172   5.866  29.532  0.00  0.00    +0.211 C 
ATOM     72  O   UNL     1      12.096   5.316  29.319  0.00  0.00    -0.276 OA
ATOM     73  N   UNL     1      14.021   5.376  30.482  0.00  0.00    -0.329 N 
ATOM     74  H   UNL     1      13.721   4.557  30.998  0.00  0.00    +0.145 HD
ATOM     75  H   UNL     1      14.921   5.777  30.706  0.00  0.00    +0.145 HD
ENDBRANCH  70  71
ENDBRANCH  69  70
ENDBRANCH  11  69
BRANCH  16  76
ATOM     76  C   UNL     1       9.786   6.329  23.098  0.00  0.00    +0.067 C 
BRANCH  76  77
ATOM     77  C   UNL     1       8.342   6.151  23.049  0.00  0.00    -0.045 A 
ATOM     78  C   UNL     1       7.760   6.595  24.211  0.00  0.00    +0.004 A 
ATOM     79  C   UNL     1       6.457   6.991  24.157  0.00  0.00    +0.000 A 
ATOM     80  C   UNL     1       5.790   7.099  22.935  0.00  0.00    +0.000 A 
ATOM     81  C   UNL     1       6.383   6.711  21.758  0.00  0.00    +0.000 A 
ATOM     82  C   UNL     1       7.629   6.151  21.846  0.00  0.00    +0.004 A 
ENDBRANCH  76  77
ENDBRANCH  16  76
BRANCH  21  83
ATOM     83  C   UNL     1       9.261   1.339  25.876  0.00  0.00    +0.067 C 
BRANCH  83  84
ATOM     84  C   UNL     1       8.621   0.116  26.465  0.00  0.00    -0.045 A 
ATOM     85  C   UNL     1       7.362   0.125  27.096  0.00  0.00    +0.004 A 
ATOM     86  C   UNL     1       6.904  -1.022  27.743  0.00  0.00    +0.000 A 
ATOM     87  C   UNL     1       7.572  -2.226  27.546  0.00  0.00    +0.000 A 
ATOM     88  C   UNL     1       8.778  -2.250  26.850  0.00  0.00    +0.000 A 
ATOM     89  C   UNL     1       9.349  -1.067  26.407  0.00  0.00    +0.004 A 
ENDBRANCH  83  84
ENDBRANCH  21  83
TORSDOF 21
ENDMDL
MODEL 4
REMARK VINA RESULT:      36.6      1.448      2.263
REMARK  Name = 
REMARK  21 active torsions:
REMARK  status: ('A' for Active; 'I' for Inactive)
REMARK    1  A    between atoms: N_1  and  C_2
REMARK    2  A    between atoms: C_2  and  C_3
REMARK    3  A    between atoms: C_3  and  C_4
REMARK    4  A    between atoms: C_4  and  C_5
REMARK    5  A    between atoms: C_5  and  C_6
REMARK    6  A    between atoms: C_6  and  N_8
REMARK    7  A    between atoms: C_6  and  C_74
REMARK    8  A    between atoms: C_9  and  C_11
REMARK    9  A    between atoms: C_17  and  C_19
REMARK   10  A    between atoms: C_25  and  N_27
REMARK   11  A    between atoms: C_31  and  C_33
REMARK   12  A    between atoms: C_33  and  C_34
REMARK   13  A    between atoms: C_43  and  C_45
REMARK   14  A    between atoms: C_45  and  C_46
REMARK   15  A    between atoms: C_55  and  C_57
REMARK   16  A    between atoms: C_57  and  C_58
REMARK   17  A    between atoms: C_58  and  C_59
REMARK   18  A    between atoms: C_65  and  C_67
REMARK   19  A    between atoms: C_67  and  C_68
REMARK   20  A    between atoms: N_76  and  C_77
REMARK   21  A    between atoms: C_77  and  C_78
REMARK                            x       y       z     vdW  Elec       q    Type
REMARK                         _______ _______ _______ _____ _____    ______ ____
ROOT
ATOM      1  C   UNL     1       9.573   0.126  24.765  0.00  0.00    +0.170 C 
ATOM      2  N   UNL     1       8.232  -1.662  25.480  0.00  0.00    -0.302 N 
ATOM      3  H   UNL     1       8.085  -2.033  24.526  0.00  0.00    +0.150 HD
ATOM      4  C   UNL     1       7.042  -3.157  26.453  0.00  0.00    +0.234 C 
ATOM      5  O   UNL     1       7.798  -4.187  26.088  0.00  0.00    -0.274 OA
ATOM      6  C   UNL     1       5.464  -4.768  27.201  0.00  0.00    +0.168 C 
ATOM      7  N   UNL     1       4.425  -6.446  26.727  0.00  0.00    -0.302 N 
ATOM      8  H   UNL     1       4.856  -7.314  27.186  0.00  0.00    +0.150 HD
ATOM      9  C   UNL     1       3.092  -7.728  27.074  0.00  0.00    +0.234 C 
ATOM     10  O   UNL     1       3.115  -8.582  28.006  0.00  0.00    -0.274 OA
ATOM     11  C   UNL     1       1.626  -8.095  26.120  0.00  0.00    +0.159 C 
ATOM     12  N   UNL     1       1.619  -6.722  26.261  0.00  0.00    -0.302 N 
ATOM     13  H   UNL     1       1.652  -6.395  27.206  0.00  0.00    +0.150 HD
ATOM     14  C   UNL     1       2.268  -5.828  25.549  0.00  0.00    +0.234 C 
ATOM     15  O   UNL     1       2.625  -6.126  24.417  0.00  0.00    -0.274 OA
ATOM     16  C   UNL     1       2.721  -4.546  26.448  0.00  0.00    +0.163 C 
ATOM     17  N   UNL     1       3.400  -3.948  25.372  0.00  0.00    -0.302 N 
ATOM     18  H   UNL     1       3.735  -4.682  24.728  0.00  0.00    +0.150 HD
ATOM     19  C   UNL     1       4.299  -2.994  25.597  0.00  0.00    +0.234 C 
ATOM     20  O   UNL     1       4.465  -2.489  26.714  0.00  0.00    -0.274 OA
ATOM     21  C   UNL     1       5.081  -2.645  24.365  0.00  0.00    +0.163 C 
ATOM     22  N   UNL     1       5.617  -1.450  24.970  0.00  0.00    -0.302 N 
ATOM     23  H   UNL     1       5.843  -1.390  25.955  0.00  0.00    +0.150 HD
ATOM     24  C   UNL     1       6.241  -0.576  24.224  0.00  0.00    +0.231 C 
ATOM     25  O   UNL     1       6.250  -0.800  23.012  0.00  0.00    -0.274 OA
ATOM     26  C   UNL     1       6.904   0.584  24.975  0.00  0.00    +0.148 C 
ATOM     27  C   UNL     1       7.123   1.326  23.605  0.00  0.00    +0.109 C 
ATOM     28  S   UNL     1       7.035   3.085  23.627  0.00  0.00    -0.091 S 
ATOM     29  S   UNL     1       8.915   2.919  23.028  0.00  0.00    -0.091 S 
ATOM     30  C   UNL     1       9.198   2.067  24.973  0.00  0.00    +0.112 C 
ENDROOT
BRANCH   1  33
ATOM     31  C   UNL     1      12.707   4.338  21.396  0.00  0.00    +0.162 C 
ATOM     32  N   UNL     1      12.007   3.318  23.060  0.00  0.00    -0.288 N 
ATOM     33  C   UNL     1      11.059   1.821  24.099  0.00  0.00    +0.237 C 
ATOM     34  O   UNL     1      12.028   1.718  24.993  0.00  0.00    -0.274 OA
ATOM     35  C   UNL     1      13.299   4.819  23.439  0.00  0.00    +0.109 C 
ATOM     36  C   UNL     1      14.305   6.224  22.368  0.00  0.00    +0.021 C 
ATOM     37  C   UNL     1      13.382   6.265  21.227  0.00  0.00    +0.033 C 
BRANCH  31  40
ATOM     38  N   UNL     1      14.320   4.190  19.105  0.00  0.00    -0.302 N 
ATOM     39  H   UNL     1      13.444   4.596  18.883  0.00  0.00    +0.150 HD
ATOM     40  C   UNL     1      14.399   4.520  20.411  0.00  0.00    +0.234 C 
ATOM     41  O   UNL     1      15.604   4.698  20.734  0.00  0.00    -0.274 OA
BRANCH  38  42
ATOM     42  C   UNL     1      15.360   4.446  18.060  0.00  0.00    +0.159 C 
BRANCH  42  43
ATOM     43  C   UNL     1      14.665   5.361  17.007  0.00  0.00    +0.234 C 
ATOM     44  N   UNL     1      13.337   5.156  16.737  0.00  0.00    -0.305 N 
ATOM     45  H   UNL     1      12.818   4.385  17.136  0.00  0.00    +0.149 HD
ATOM     46  O   UNL     1      15.293   6.232  16.402  0.00  0.00    -0.274 OA
BRANCH  44  47
ATOM     47  C   UNL     1      12.598   6.014  15.825  0.00  0.00    +0.199 C 
BRANCH  47  48
ATOM     48  C   UNL     1      13.394   6.279  14.549  0.00  0.00    +0.228 C 
ATOM     49  O   UNL     1      12.858   6.620  13.498  0.00  0.00    -0.274 OA
ATOM     50  N   UNL     1      14.755   6.207  14.643  0.00  0.00    -0.328 N 
ATOM     51  H   UNL     1      15.306   6.456  13.834  0.00  0.00    +0.145 HD
ATOM     52  H   UNL     1      15.230   6.056  15.525  0.00  0.00    +0.145 HD
ENDBRANCH  47  48
ENDBRANCH  44  47
ENDBRANCH  42  43
BRANCH  42  53
ATOM     53  C   UNL     1      15.590   3.018  17.608  0.00  0.00    +0.032 C 
BRANCH  53  54
ATOM     54  C   UNL     1      15.620   2.858  16.124  0.00  0.00    +0.003 C 
BRANCH  54  55
ATOM     55  C   UNL     1      17.000   2.483  15.644  0.00  0.00    +0.015 C 
BRANCH  55  56
ATOM     56  C   UNL     1      16.885   1.888  14.250  0.00  0.00    +0.077 C 
BRANCH  56  57
ATOM     57  N   UNL     1      16.929   2.952  13.253  0.00  0.00    -0.330 NA
ATOM     58  H   UNL     1      17.474   2.641  12.450  0.00  0.00    +0.118 HD
ATOM     59  H   UNL     1      15.990   3.152  12.919  0.00  0.00    +0.118 HD
ENDBRANCH  56  57
ENDBRANCH  55  56
ENDBRANCH  54  55
ENDBRANCH  53  54
ENDBRANCH  42  53
ENDBRANCH  38  42
ENDBRANCH  31  40
ENDBRANCH   1  33
BRANCH  26  60
ATOM     60  N   UNL     1       7.868   0.286  26.326  0.00  0.00    -0.319 NA
ATOM     61  H   UNL     1       7.280  -0.131  27.058  0.00  0.00    +0.119 HD
ATOM     62  H   UNL     1       8.221  -0.719  26.363  0.00  0.00    +0.119 HD
ENDBRANCH  26  60
BRANCH   6  63
ATOM     63  C   UNL     1       4.028  -5.559  28.635  0.00  0.00    +0.127 C 
BRANCH  63  64
ATOM     64  C   UNL     1       2.333  -5.504  29.910  0.00  0.00    +0.213 C 
ATOM     65  O   UNL     1       1.725  -4.505  30.398  0.00  0.00    -0.276 OA
ATOM     66  N   UNL     1       1.245  -6.524  30.468  0.00  0.00    -0.329 N 
ATOM     67  H   UNL     1       0.771  -6.224  31.407  0.00  0.00    +0.145 HD
ATOM     68  H   UNL     1       0.264  -6.567  30.114  0.00  0.00    +0.145 HD
ENDBRANCH  63  64
ENDBRANCH   6  63
BRANCH  11  69
ATOM     69  C   UNL     1       2.098  -9.495  25.649  0.00  0.00    +0.041 C 
BRANCH  69  70
ATOM     70  C   UNL     1       1.165 -10.132  24.565  0.00  0.00    +0.098 C 
BRANCH  70  71
ATOM     71  C   UNL     1       0.661  -9.121  23.546  0.00  0.00    +0.211 C 
ATOM     72  O   UNL     1       0.446  -7.949  23.838  0.00  0.00    -0.276 OA
ATOM     73  N   UNL     1       0.447  -9.566  22.275  0.00  0.00    -0.329 N 
ATOM     74  H   UNL     1       0.099  -8.896  21.598  0.00  0.00    +0.145 HD
ATOM     75  H   UNL     1       0.606 -10.515  21.966  0.00  0.00    +0.145 HD
ENDBRANCH  70  71
ENDBRANCH  69  70
ENDBRANCH  11  69
BRANCH  16  76
ATOM     76  C   UNL     1       1.914  -3.905  27.607  0.00  0.00    +0.067 C 
BRANCH  76  77
ATOM     77  C   UNL     1       1.011  -3.055  26.845  0.00  0.00    -0.045 A 
ATOM     78  C   UNL     1       1.107  -1.750  27.263  0.00  0.00    +0.004 A 
ATOM     79  C   UNL     1       0.767  -0.773  26.376  0.00  0.00    +0.000 A 
ATOM     80  C   UNL     1       0.491  -1.080  25.041  0.00  0.00    +0.000 A 
ATOM     81  C   UNL     1       0.449  -2.380  24.600  0.00  0.00    +0.000 A 
ATOM     82  C   UNL     1       0.620  -3.361  25.538  0.00  0.00    +0.004 A 
ENDBRANCH  76  77
ENDBRANCH  16  76
BRANCH  21  83
ATOM     83  C   UNL     1       6.113  -3.652  23.709  0.00  0.00    +0.067 C 
BRANCH  83  84
ATOM     84  C   UNL     1       5.996  -3.873  22.229  0.00  0.00    -0.045 A 
ATOM     85  C   UNL     1       5.840  -2.828  21.298  0.00  0.00    +0.004 A 
ATOM     86  C   UNL     1       5.596  -3.127  19.958  0.00  0.00    +0.000 A 
ATOM     87  C   UNL     1       5.757  -4.435  19.513  0.00  0.00    +0.000 A 
ATOM     88  C   UNL     1       5.993  -5.459  20.426  0.00  0.00    +0.000 A 
ATOM     89  C   UNL     1       6.005  -5.190  21.785  0.00  0.00    +0.004 A 
ENDBRANCH  83  84
ENDBRANCH  21  83
TORSDOF 21
ENDMDL
