MODEL 1
REMARK VINA RESULT:      -6.7      0.000      0.000
REMARK  Name = 
REMARK  5 active torsions:
REMARK  status: ('A' for Active; 'I' for Inactive)
REMARK    1  A    between atoms: C_1  and  C_2
REMARK    2  A    between atoms: C_4  and  C_7
REMARK    3  A    between atoms: N_9  and  N_10
REMARK    4  A    between atoms: N_10  and  C_11
REMARK    5  A    between atoms: C_11  and  C_12
REMARK                            x       y       z     vdW  Elec       q    Type
REMARK                         _______ _______ _______ _____ _____    ______ ____
ROOT
ATOM      1  C   UNL     1       9.136  -4.575  24.946  0.00  0.00    +0.279 C 
ATOM      2  N   UNL     1       8.931  -3.441  24.163  0.00  0.00    -0.245 N 
ATOM      3  H   UNL     1       7.981  -3.076  24.106  0.00  0.00    +0.169 HD
ATOM      4  O   UNL     1      10.240  -5.070  25.165  0.00  0.00    -0.267 OA
ENDROOT
BRANCH   1   9
ATOM      5  C   UNL     1       4.387  -6.185  25.782  0.00  0.00    +0.089 C 
ATOM      6  C   UNL     1       5.814  -5.818  25.763  0.00  0.00    +0.135 A 
ATOM      7  O   UNL     1       6.535  -6.123  26.875  0.00  0.00    -0.359 OA
ATOM      8  N   UNL     1       7.847  -5.713  26.706  0.00  0.00    -0.073 NA
ATOM      9  C   UNL     1       7.902  -5.154  25.483  0.00  0.00    +0.169 A 
ATOM     10  C   UNL     1       6.635  -5.209  24.849  0.00  0.00    +0.080 A 
ENDBRANCH   1   9
BRANCH   2  11
ATOM     11  N   UNL     1      10.035  -2.710  23.672  0.00  0.00    -0.236 NA
ATOM     12  H   UNL     1      10.769  -3.373  23.403  0.00  0.00    +0.145 HD
BRANCH  11  13
ATOM     13  C   UNL     1       9.692  -1.870  22.522  0.00  0.00    +0.137 C 
BRANCH  13  14
ATOM     14  C   UNL     1       9.951  -0.408  22.805  0.00  0.00    -0.032 A 
ATOM     15  C   UNL     1       9.780   0.559  21.801  0.00  0.00    +0.005 A 
ATOM     16  C   UNL     1      10.020   1.909  22.066  0.00  0.00    +0.000 A 
ATOM     17  C   UNL     1      10.440   2.308  23.333  0.00  0.00    +0.000 A 
ATOM     18  C   UNL     1      10.623   1.360  24.336  0.00  0.00    +0.000 A 
ATOM     19  C   UNL     1      10.383   0.008  24.073  0.00  0.00    +0.005 A 
ENDBRANCH  13  14
ENDBRANCH  11  13
ENDBRANCH   2  11
TORSDOF 4
ENDMDL
MODEL 2
REMARK VINA RESULT:      -6.2      2.020      2.559
REMARK  Name = 
REMARK  5 active torsions:
REMARK  status: ('A' for Active; 'I' for Inactive)
REMARK    1  A    between atoms: C_1  and  C_2
REMARK    2  A    between atoms: C_4  and  C_7
REMARK    3  A    between atoms: N_9  and  N_10
REMARK    4  A    between atoms: N_10  and  C_11
REMARK    5  A    between atoms: C_11  and  C_12
REMARK                            x       y       z     vdW  Elec       q    Type
REMARK                         _______ _______ _______ _____ _____    ______ ____
ROOT
ATOM      1  C   UNL     1       8.004  -4.204  23.631  0.00  0.00    +0.279 C 
ATOM      2  N   UNL     1       8.413  -2.885  23.455  0.00  0.00    -0.245 N 
ATOM      3  H   UNL     1       7.698  -2.200  23.211  0.00  0.00    +0.169 HD
ATOM      4  O   UNL     1       8.746  -5.111  24.004  0.00  0.00    -0.267 OA
ENDROOT
BRANCH   1   9
ATOM      5  C   UNL     1       3.281  -6.017  23.131  0.00  0.00    +0.089 C 
ATOM      6  C   UNL     1       4.567  -5.297  23.142  0.00  0.00    +0.135 A 
ATOM      7  O   UNL     1       4.620  -4.135  22.438  0.00  0.00    -0.359 OA
ATOM      8  N   UNL     1       5.887  -3.586  22.539  0.00  0.00    -0.073 NA
ATOM      9  C   UNL     1       6.594  -4.434  23.309  0.00  0.00    +0.169 A 
ATOM     10  C   UNL     1       5.790  -5.529  23.719  0.00  0.00    +0.080 A 
ENDBRANCH   1   9
BRANCH   2  11
ATOM     11  N   UNL     1       9.716  -2.489  23.833  0.00  0.00    -0.236 NA
ATOM     12  H   UNL     1      10.240  -3.326  24.108  0.00  0.00    +0.145 HD
BRANCH  11  13
ATOM     13  C   UNL     1      10.431  -1.796  22.759  0.00  0.00    +0.137 C 
BRANCH  13  14
ATOM     14  C   UNL     1      10.290  -0.296  22.876  0.00  0.00    -0.032 A 
ATOM     15  C   UNL     1      10.654   0.369  24.057  0.00  0.00    +0.005 A 
ATOM     16  C   UNL     1      10.522   1.756  24.161  0.00  0.00    +0.000 A 
ATOM     17  C   UNL     1      10.020   2.492  23.091  0.00  0.00    +0.000 A 
ATOM     18  C   UNL     1       9.646   1.845  21.916  0.00  0.00    +0.000 A 
ATOM     19  C   UNL     1       9.777   0.458  21.809  0.00  0.00    +0.005 A 
ENDBRANCH  13  14
ENDBRANCH  11  13
ENDBRANCH   2  11
TORSDOF 4
ENDMDL
MODEL 3
REMARK VINA RESULT:      -6.0      3.047      6.952
REMARK  Name = 
REMARK  5 active torsions:
REMARK  status: ('A' for Active; 'I' for Inactive)
REMARK    1  A    between atoms: C_1  and  C_2
REMARK    2  A    between atoms: C_4  and  C_7
REMARK    3  A    between atoms: N_9  and  N_10
REMARK    4  A    between atoms: N_10  and  C_11
REMARK    5  A    between atoms: C_11  and  C_12
REMARK                            x       y       z     vdW  Elec       q    Type
REMARK                         _______ _______ _______ _____ _____    ______ ____
ROOT
ATOM      1  C   UNL     1      10.124  -1.206  23.088  0.00  0.00    +0.279 C 
ATOM      2  N   UNL     1       9.612  -1.741  24.267  0.00  0.00    -0.245 N 
ATOM      3  H   UNL     1       9.136  -1.103  24.904  0.00  0.00    +0.169 HD
ATOM      4  O   UNL     1      10.647  -1.875  22.199  0.00  0.00    -0.267 OA
ENDROOT
BRANCH   1   9
ATOM      5  C   UNL     1       9.670   3.780  23.971  0.00  0.00    +0.089 C 
ATOM      6  C   UNL     1       9.805   2.399  23.473  0.00  0.00    +0.135 A 
ATOM      7  O   UNL     1       9.802   2.236  22.124  0.00  0.00    -0.359 OA
ATOM      8  N   UNL     1       9.929   0.892  21.817  0.00  0.00    -0.073 NA
ATOM      9  C   UNL     1      10.004   0.251  22.998  0.00  0.00    +0.169 A 
ATOM     10  C   UNL     1       9.937   1.173  24.074  0.00  0.00    +0.080 A 
ENDBRANCH   1   9
BRANCH   2  11
ATOM     11  N   UNL     1       9.555  -3.141  24.445  0.00  0.00    -0.236 NA
ATOM     12  H   UNL     1      10.189  -3.395  25.210  0.00  0.00    +0.145 HD
BRANCH  11  13
ATOM     13  C   UNL     1       8.205  -3.620  24.751  0.00  0.00    +0.137 C 
BRANCH  13  14
ATOM     14  C   UNL     1       7.523  -4.178  23.523  0.00  0.00    -0.032 A 
ATOM     15  C   UNL     1       6.679  -3.372  22.742  0.00  0.00    +0.005 A 
ATOM     16  C   UNL     1       6.050  -3.890  21.608  0.00  0.00    +0.000 A 
ATOM     17  C   UNL     1       6.252  -5.220  21.244  0.00  0.00    +0.000 A 
ATOM     18  C   UNL     1       7.078  -6.034  22.014  0.00  0.00    +0.000 A 
ATOM     19  C   UNL     1       7.709  -5.517  23.149  0.00  0.00    +0.005 A 
ENDBRANCH  13  14
ENDBRANCH  11  13
ENDBRANCH   2  11
TORSDOF 4
ENDMDL
MODEL 4
REMARK VINA RESULT:      -6.0      1.905      2.787
REMARK  Name = 
REMARK  5 active torsions:
REMARK  status: ('A' for Active; 'I' for Inactive)
REMARK    1  A    between atoms: C_1  and  C_2
REMARK    2  A    between atoms: C_4  and  C_7
REMARK    3  A    between atoms: N_9  and  N_10
REMARK    4  A    between atoms: N_10  and  C_11
REMARK    5  A    between atoms: C_11  and  C_12
REMARK                            x       y       z     vdW  Elec       q    Type
REMARK                         _______ _______ _______ _____ _____    ______ ____
ROOT
ATOM      1  C   UNL     1       9.484  -2.038  23.413  0.00  0.00    +0.279 C 
ATOM      2  N   UNL     1       9.405  -1.812  22.041  0.00  0.00    -0.245 N 
ATOM      3  H   UNL     1       8.787  -2.417  21.501  0.00  0.00    +0.169 HD
ATOM      4  O   UNL     1      10.125  -1.334  24.191  0.00  0.00    -0.267 OA
ENDROOT
BRANCH   1   9
ATOM      5  C   UNL     1       5.958  -5.492  24.629  0.00  0.00    +0.089 C 
ATOM      6  C   UNL     1       7.144  -4.660  24.361  0.00  0.00    +0.135 A 
ATOM      7  O   UNL     1       8.345  -5.172  24.740  0.00  0.00    -0.359 OA
ATOM      8  N   UNL     1       9.353  -4.275  24.429  0.00  0.00    -0.073 NA
ATOM      9  C   UNL     1       8.742  -3.218  23.863  0.00  0.00    +0.169 A 
ATOM     10  C   UNL     1       7.341  -3.426  23.793  0.00  0.00    +0.080 A 
ENDBRANCH   1   9
BRANCH   2  11
ATOM     11  N   UNL     1       9.976  -0.649  21.480  0.00  0.00    -0.236 NA
ATOM     12  H   UNL     1      10.513  -0.920  20.650  0.00  0.00    +0.145 HD
BRANCH  11  13
ATOM     13  C   UNL     1       8.974   0.352  21.106  0.00  0.00    +0.137 C 
BRANCH  13  14
ATOM     14  C   UNL     1       9.072   1.587  21.971  0.00  0.00    -0.032 A 
ATOM     15  C   UNL     1      10.247   1.870  22.687  0.00  0.00    +0.005 A 
ATOM     16  C   UNL     1      10.334   3.014  23.484  0.00  0.00    +0.000 A 
ATOM     17  C   UNL     1       9.249   3.882  23.582  0.00  0.00    +0.000 A 
ATOM     18  C   UNL     1       8.075   3.609  22.886  0.00  0.00    +0.000 A 
ATOM     19  C   UNL     1       7.985   2.466  22.086  0.00  0.00    +0.005 A 
ENDBRANCH  13  14
ENDBRANCH  11  13
ENDBRANCH   2  11
TORSDOF 4
ENDMDL
MODEL 5
REMARK VINA RESULT:      -6.0      1.314      1.779
REMARK  Name = 
REMARK  5 active torsions:
REMARK  status: ('A' for Active; 'I' for Inactive)
REMARK    1  A    between atoms: C_1  and  C_2
REMARK    2  A    between atoms: C_4  and  C_7
REMARK    3  A    between atoms: N_9  and  N_10
REMARK    4  A    between atoms: N_10  and  C_11
REMARK    5  A    between atoms: C_11  and  C_12
REMARK                            x       y       z     vdW  Elec       q    Type
REMARK                         _______ _______ _______ _____ _____    ______ ____
ROOT
ATOM      1  C   UNL     1       8.334  -3.509  25.238  0.00  0.00    +0.279 C 
ATOM      2  N   UNL     1       9.086  -3.649  24.074  0.00  0.00    -0.245 N 
ATOM      3  H   UNL     1       8.764  -4.328  23.386  0.00  0.00    +0.169 HD
ATOM      4  O   UNL     1       8.564  -2.673  26.110  0.00  0.00    -0.267 OA
ENDROOT
BRANCH   1   9
ATOM      5  C   UNL     1       4.806  -6.819  26.798  0.00  0.00    +0.089 C 
ATOM      6  C   UNL     1       5.734  -5.898  26.117  0.00  0.00    +0.135 A 
ATOM      7  O   UNL     1       5.633  -5.824  24.764  0.00  0.00    -0.359 OA
ATOM      8  N   UNL     1       6.570  -4.929  24.276  0.00  0.00    -0.073 NA
ATOM      9  C   UNL     1       7.236  -4.471  25.352  0.00  0.00    +0.169 A 
ATOM     10  C   UNL     1       6.730  -5.056  26.541  0.00  0.00    +0.080 A 
ENDBRANCH   1   9
BRANCH   2  11
ATOM     11  N   UNL     1      10.107  -2.720  23.773  0.00  0.00    -0.236 NA
ATOM     12  H   UNL     1      10.985  -3.234  23.646  0.00  0.00    +0.145 HD
BRANCH  11  13
ATOM     13  C   UNL     1       9.823  -1.936  22.569  0.00  0.00    +0.137 C 
BRANCH  13  14
ATOM     14  C   UNL     1      10.046  -0.459  22.802  0.00  0.00    -0.032 A 
ATOM     15  C   UNL     1      10.544   0.006  24.030  0.00  0.00    +0.005 A 
ATOM     16  C   UNL     1      10.749   1.371  24.241  0.00  0.00    +0.000 A 
ATOM     17  C   UNL     1      10.454   2.287  23.234  0.00  0.00    +0.000 A 
ATOM     18  C   UNL     1       9.950   1.841  22.015  0.00  0.00    +0.000 A 
ATOM     19  C   UNL     1       9.744   0.475  21.800  0.00  0.00    +0.005 A 
ENDBRANCH  13  14
ENDBRANCH  11  13
ENDBRANCH   2  11
TORSDOF 4
ENDMDL
MODEL 6
REMARK VINA RESULT:      -5.6      2.362      3.306
REMARK  Name = 
REMARK  5 active torsions:
REMARK  status: ('A' for Active; 'I' for Inactive)
REMARK    1  A    between atoms: C_1  and  C_2
REMARK    2  A    between atoms: C_4  and  C_7
REMARK    3  A    between atoms: N_9  and  N_10
REMARK    4  A    between atoms: N_10  and  C_11
REMARK    5  A    between atoms: C_11  and  C_12
REMARK                            x       y       z     vdW  Elec       q    Type
REMARK                         _______ _______ _______ _____ _____    ______ ____
ROOT
ATOM      1  C   UNL     1       8.798  -1.384  24.904  0.00  0.00    +0.279 C 
ATOM      2  N   UNL     1      10.112  -0.927  24.846  0.00  0.00    -0.245 N 
ATOM      3  H   UNL     1      10.792  -1.512  24.362  0.00  0.00    +0.169 HD
ATOM      4  O   UNL     1       7.867  -0.741  25.384  0.00  0.00    -0.267 OA
ENDROOT
BRANCH   1   9
ATOM      5  C   UNL     1       7.148  -5.580  22.557  0.00  0.00    +0.089 C 
ATOM      6  C   UNL     1       7.822  -4.504  23.305  0.00  0.00    +0.135 A 
ATOM      7  O   UNL     1       8.973  -4.838  23.946  0.00  0.00    -0.359 OA
ATOM      8  N   UNL     1       9.479  -3.729  24.604  0.00  0.00    -0.073 NA
ATOM      9  C   UNL     1       8.614  -2.728  24.353  0.00  0.00    +0.169 A 
ATOM     10  C   UNL     1       7.553  -3.177  23.526  0.00  0.00    +0.080 A 
ENDBRANCH   1   9
BRANCH   2  11
ATOM     11  N   UNL     1      10.422   0.395  25.236  0.00  0.00    -0.236 NA
ATOM     12  H   UNL     1      11.168   0.359  25.938  0.00  0.00    +0.145 HD
BRANCH  11  13
ATOM     13  C   UNL     1      10.849   1.233  24.113  0.00  0.00    +0.137 C 
BRANCH  13  14
ATOM     14  C   UNL     1       9.668   1.862  23.409  0.00  0.00    -0.032 A 
ATOM     15  C   UNL     1       9.193   1.337  22.196  0.00  0.00    +0.005 A 
ATOM     16  C   UNL     1       8.102   1.919  21.549  0.00  0.00    +0.000 A 
ATOM     17  C   UNL     1       7.477   3.036  22.100  0.00  0.00    +0.000 A 
ATOM     18  C   UNL     1       7.943   3.573  23.296  0.00  0.00    +0.000 A 
ATOM     19  C   UNL     1       9.035   2.992  23.947  0.00  0.00    +0.005 A 
ENDBRANCH  13  14
ENDBRANCH  11  13
ENDBRANCH   2  11
TORSDOF 4
ENDMDL
MODEL 7
REMARK VINA RESULT:      -5.6      2.798      3.035
REMARK  Name = 
REMARK  5 active torsions:
REMARK  status: ('A' for Active; 'I' for Inactive)
REMARK    1  A    between atoms: C_1  and  C_2
REMARK    2  A    between atoms: C_4  and  C_7
REMARK    3  A    between atoms: N_9  and  N_10
REMARK    4  A    between atoms: N_10  and  C_11
REMARK    5  A    between atoms: C_11  and  C_12
REMARK                            x       y       z     vdW  Elec       q    Type
REMARK                         _______ _______ _______ _____ _____    ______ ____
ROOT
ATOM      1  C   UNL     1       7.844  -2.186  23.104  0.00  0.00    +0.279 C 
ATOM      2  N   UNL     1       8.666  -2.179  21.980  0.00  0.00    -0.245 N 
ATOM      3  H   UNL     1       8.377  -2.744  21.183  0.00  0.00    +0.169 HD
ATOM      4  O   UNL     1       8.032  -1.489  24.099  0.00  0.00    -0.267 OA
ENDROOT
BRANCH   1   9
ATOM      5  C   UNL     1       4.644  -6.117  23.495  0.00  0.00    +0.089 C 
ATOM      6  C   UNL     1       5.395  -4.876  23.236  0.00  0.00    +0.135 A 
ATOM      7  O   UNL     1       4.822  -3.984  22.386  0.00  0.00    -0.359 OA
ATOM      8  N   UNL     1       5.647  -2.881  22.241  0.00  0.00    -0.073 NA
ATOM      9  C   UNL     1       6.724  -3.125  23.011  0.00  0.00    +0.169 A 
ATOM     10  C   UNL     1       6.599  -4.377  23.666  0.00  0.00    +0.080 A 
ENDBRANCH   1   9
BRANCH   2  11
ATOM     11  N   UNL     1       9.721  -1.244  21.879  0.00  0.00    -0.236 NA
ATOM     12  H   UNL     1      10.521  -1.707  21.436  0.00  0.00    +0.145 HD
BRANCH  11  13
ATOM     13  C   UNL     1       9.354  -0.057  21.102  0.00  0.00    +0.137 C 
BRANCH  13  14
ATOM     14  C   UNL     1       9.237   1.167  21.981  0.00  0.00    -0.032 A 
ATOM     15  C   UNL     1       8.196   2.090  21.791  0.00  0.00    +0.005 A 
ATOM     16  C   UNL     1       8.090   3.219  22.605  0.00  0.00    +0.000 A 
ATOM     17  C   UNL     1       9.026   3.444  23.613  0.00  0.00    +0.000 A 
ATOM     18  C   UNL     1      10.069   2.543  23.806  0.00  0.00    +0.000 A 
ATOM     19  C   UNL     1      10.177   1.411  22.994  0.00  0.00    +0.005 A 
ENDBRANCH  13  14
ENDBRANCH  11  13
ENDBRANCH   2  11
TORSDOF 4
ENDMDL
MODEL 8
REMARK VINA RESULT:      -5.6      4.186      8.059
REMARK  Name = 
REMARK  5 active torsions:
REMARK  status: ('A' for Active; 'I' for Inactive)
REMARK    1  A    between atoms: C_1  and  C_2
REMARK    2  A    between atoms: C_4  and  C_7
REMARK    3  A    between atoms: N_9  and  N_10
REMARK    4  A    between atoms: N_10  and  C_11
REMARK    5  A    between atoms: C_11  and  C_12
REMARK                            x       y       z     vdW  Elec       q    Type
REMARK                         _______ _______ _______ _____ _____    ______ ____
ROOT
ATOM      1  C   UNL     1       9.250   2.080  22.945  0.00  0.00    +0.279 C 
ATOM      2  N   UNL     1       9.787   1.505  21.796  0.00  0.00    -0.245 N 
ATOM      3  H   UNL     1      10.586   1.970  21.367  0.00  0.00    +0.169 HD
ATOM      4  O   UNL     1       8.341   1.580  23.605  0.00  0.00    -0.267 OA
ENDROOT
BRANCH   1   9
ATOM      5  C   UNL     1      12.375   5.953  23.987  0.00  0.00    +0.089 C 
ATOM      6  C   UNL     1      11.285   4.992  23.736  0.00  0.00    +0.135 A 
ATOM      7  O   UNL     1      10.020   5.434  23.963  0.00  0.00    -0.359 OA
ATOM      8  N   UNL     1       9.116   4.421  23.691  0.00  0.00    -0.073 NA
ATOM      9  C   UNL     1       9.855   3.365  23.301  0.00  0.00    +0.169 A 
ATOM     10  C   UNL     1      11.236   3.689  23.309  0.00  0.00    +0.080 A 
ENDBRANCH   1   9
BRANCH   2  11
ATOM     11  N   UNL     1       9.381   0.212  21.394  0.00  0.00    -0.236 NA
ATOM     12  H   UNL     1       9.417   0.166  20.371  0.00  0.00    +0.145 HD
BRANCH  11  13
ATOM     13  C   UNL     1      10.221  -0.846  21.959  0.00  0.00    +0.137 C 
BRANCH  13  14
ATOM     14  C   UNL     1       9.397  -1.870  22.706  0.00  0.00    -0.032 A 
ATOM     15  C   UNL     1       9.921  -2.533  23.827  0.00  0.00    +0.005 A 
ATOM     16  C   UNL     1       9.156  -3.478  24.515  0.00  0.00    +0.000 A 
ATOM     17  C   UNL     1       7.864  -3.776  24.088  0.00  0.00    +0.000 A 
ATOM     18  C   UNL     1       7.335  -3.133  22.972  0.00  0.00    +0.000 A 
ATOM     19  C   UNL     1       8.097  -2.187  22.282  0.00  0.00    +0.005 A 
ENDBRANCH  13  14
ENDBRANCH  11  13
ENDBRANCH   2  11
TORSDOF 4
ENDMDL
MODEL 9
REMARK VINA RESULT:      -5.6      2.448      3.722
REMARK  Name = 
REMARK  5 active torsions:
REMARK  status: ('A' for Active; 'I' for Inactive)
REMARK    1  A    between atoms: C_1  and  C_2
REMARK    2  A    between atoms: C_4  and  C_7
REMARK    3  A    between atoms: N_9  and  N_10
REMARK    4  A    between atoms: N_10  and  C_11
REMARK    5  A    between atoms: C_11  and  C_12
REMARK                            x       y       z     vdW  Elec       q    Type
REMARK                         _______ _______ _______ _____ _____    ______ ____
ROOT
ATOM      1  C   UNL     1       9.646  -1.420  22.746  0.00  0.00    +0.279 C 
ATOM      2  N   UNL     1       9.054  -0.218  23.128  0.00  0.00    -0.245 N 
ATOM      3  H   UNL     1       8.329  -0.259  23.843  0.00  0.00    +0.169 HD
ATOM      4  O   UNL     1      10.585  -1.504  21.957  0.00  0.00    -0.267 OA
ENDROOT
BRANCH   1   9
ATOM      5  C   UNL     1       6.554  -5.157  24.268  0.00  0.00    +0.089 C 
ATOM      6  C   UNL     1       7.623  -4.187  23.969  0.00  0.00    +0.135 A 
ATOM      7  O   UNL     1       8.809  -4.373  24.605  0.00  0.00    -0.359 OA
ATOM      8  N   UNL     1       9.701  -3.384  24.226  0.00  0.00    -0.073 NA
ATOM      9  C   UNL     1       9.034  -2.601  23.358  0.00  0.00    +0.169 A 
ATOM     10  C   UNL     1       7.714  -3.082  23.161  0.00  0.00    +0.080 A 
ENDBRANCH   1   9
BRANCH   2  11
ATOM     11  N   UNL     1       9.609   1.011  22.707  0.00  0.00    -0.236 NA
ATOM     12  H   UNL     1       8.842   1.668  22.531  0.00  0.00    +0.145 HD
BRANCH  11  13
ATOM     13  C   UNL     1      10.527   1.586  23.693  0.00  0.00    +0.137 C 
BRANCH  13  14
ATOM     14  C   UNL     1      10.463   3.096  23.697  0.00  0.00    -0.032 A 
ATOM     15  C   UNL     1      11.604   3.863  23.412  0.00  0.00    +0.005 A 
ATOM     16  C   UNL     1      11.542   5.258  23.416  0.00  0.00    +0.000 A 
ATOM     17  C   UNL     1      10.342   5.903  23.710  0.00  0.00    +0.000 A 
ATOM     18  C   UNL     1       9.205   5.155  24.003  0.00  0.00    +0.000 A 
ATOM     19  C   UNL     1       9.265   3.759  24.000  0.00  0.00    +0.005 A 
ENDBRANCH  13  14
ENDBRANCH  11  13
ENDBRANCH   2  11
TORSDOF 4
ENDMDL
