MODEL 1
REMARK VINA RESULT:      -7.0      0.000      0.000
REMARK  Name = 
REMARK  27 active torsions:
REMARK  status: ('A' for Active; 'I' for Inactive)
REMARK    1  A    between atoms: C_1  and  N_2
REMARK    2  A    between atoms: C_3  and  C_5
REMARK    3  A    between atoms: C_5  and  N_7
REMARK    4  A    between atoms: C_5  and  C_60
REMARK    5  A    between atoms: C_8  and  C_10
REMARK    6  A    between atoms: C_10  and  O_12
REMARK    7  A    between atoms: C_10  and  C_26
REMARK    8  A    between atoms: O_12  and  C_13
REMARK    9  A    between atoms: C_13  and  C_14
REMARK   10  A    between atoms: C_17  and  C_20
REMARK   11  A    between atoms: C_26  and  O_28
REMARK   12  A    between atoms: C_26  and  C_29
REMARK   13  A    between atoms: C_29  and  O_31
REMARK   14  A    between atoms: C_29  and  C_32
REMARK   15  A    between atoms: C_32  and  O_34
REMARK   16  A    between atoms: C_32  and  C_48
REMARK   17  A    between atoms: O_34  and  C_35
REMARK   18  A    between atoms: C_35  and  C_36
REMARK   19  A    between atoms: C_39  and  C_42
REMARK   20  A    between atoms: N_50  and  C_51
REMARK   21  A    between atoms: C_51  and  C_53
REMARK   22  A    between atoms: C_51  and  C_56
REMARK   23  A    between atoms: C_53  and  C_54
REMARK   24  A    between atoms: C_53  and  C_55
REMARK   25  A    between atoms: N_58  and  C_59
REMARK   26  A    between atoms: C_60  and  C_61
REMARK   27  A    between atoms: C_60  and  C_62
REMARK                            x       y       z     vdW  Elec       q    Type
REMARK                         _______ _______ _______ _____ _____    ______ ____
ROOT
ATOM      1  C   UNL     1       8.432  -3.831  26.328  0.00  0.00    +0.184 C 
ENDROOT
BRANCH   1   2
ATOM      2  O   UNL     1       8.645  -4.845  27.337  0.00  0.00    -0.386 OA
ATOM      3  H   UNL     1       9.587  -5.134  27.345  0.00  0.00    +0.210 HD
ENDBRANCH   1   2
BRANCH   1   4
ATOM      4  C   UNL     1       6.906  -3.453  26.270  0.00  0.00    +0.184 C 
BRANCH   4   5
ATOM      5  O   UNL     1       6.153  -4.035  27.348  0.00  0.00    -0.386 OA
ATOM      6  H   UNL     1       5.613  -3.332  27.779  0.00  0.00    +0.210 HD
ENDBRANCH   4   5
BRANCH   4   7
ATOM      7  C   UNL     1       6.472  -1.903  26.162  0.00  0.00    +0.235 C 
BRANCH   7   8
ATOM      8  C   UNL     1       4.906  -1.637  26.191  0.00  0.00    +0.245 C 
ATOM      9  N   UNL     1       4.469  -0.627  27.067  0.00  0.00    -0.302 N 
ATOM     10  H   UNL     1       5.090  -0.386  27.833  0.00  0.00    +0.150 HD
ATOM     11  O   UNL     1       4.121  -2.271  25.480  0.00  0.00    -0.273 OA
BRANCH   9  12
ATOM     12  C   UNL     1       3.053  -0.188  27.227  0.00  0.00    +0.161 C 
BRANCH  12  13
ATOM     13  C   UNL     1       2.245  -1.078  28.234  0.00  0.00    +0.233 C 
ATOM     14  N   UNL     1       2.783  -2.335  28.479  0.00  0.00    -0.317 N 
ATOM     15  H   UNL     1       3.755  -2.500  28.251  0.00  0.00    +0.148 HD
ATOM     16  C   UNL     1       2.141  -3.281  29.371  0.00  0.00    +0.128 C 
ATOM     17  O   UNL     1       1.162  -0.724  28.700  0.00  0.00    -0.274 OA
ENDBRANCH  12  13
BRANCH  12  18
ATOM     18  C   UNL     1       2.916   1.311  27.662  0.00  0.00    +0.012 C 
ATOM     19  C   UNL     1       2.856   2.259  26.460  0.00  0.00    +0.009 C 
ATOM     20  C   UNL     1       3.990   1.808  28.644  0.00  0.00    +0.009 C 
ENDBRANCH  12  18
ENDBRANCH   9  12
ENDBRANCH   7   8
BRANCH   7  21
ATOM     21  O   UNL     1       7.090  -1.003  27.108  0.00  0.00    -0.360 OA
BRANCH  21  22
ATOM     22  C   UNL     1       8.036  -0.057  26.585  0.00  0.00    +0.196 C 
BRANCH  22  23
ATOM     23  C   UNL     1       7.354   1.150  25.907  0.00  0.00    -0.022 A 
ATOM     24  C   UNL     1       7.049   2.328  26.599  0.00  0.00    +0.006 A 
ATOM     25  C   UNL     1       6.375   3.410  25.970  0.00  0.00    +0.009 A 
ATOM     26  C   UNL     1       5.956   3.364  24.620  0.00  0.00    -0.016 A 
ATOM     27  C   UNL     1       6.233   2.152  23.961  0.00  0.00    +0.009 A 
ATOM     28  C   UNL     1       6.911   1.072  24.586  0.00  0.00    +0.006 A 
BRANCH  26  29
ATOM     29  C   UNL     1       5.291   4.520  23.924  0.00  0.00    +0.000 A 
ATOM     30  C   UNL     1       5.997   5.424  23.118  0.00  0.00    +0.119 A 
ATOM     31  N   UNL     1       5.468   6.470  22.427  0.00  0.00    -0.263 NA
ATOM     32  C   UNL     1       4.132   6.654  22.516  0.00  0.00    +0.111 A 
ATOM     33  C   UNL     1       3.321   5.840  23.278  0.00  0.00    +0.020 A 
ATOM     34  C   UNL     1       3.907   4.778  23.986  0.00  0.00    +0.011 A 
ENDBRANCH  26  29
ENDBRANCH  22  23
ENDBRANCH  21  22
ENDBRANCH   7  21
ENDBRANCH   4   7
ENDBRANCH   1   4
BRANCH   1  35
ATOM     35  C   UNL     1       9.220  -4.334  25.014  0.00  0.00    +0.235 C 
BRANCH  35  38
ATOM     36  N   UNL     1       6.925  -5.066  24.260  0.00  0.00    -0.302 N 
ATOM     37  H   UNL     1       6.661  -4.717  25.178  0.00  0.00    +0.150 HD
ATOM     38  C   UNL     1       8.302  -5.210  24.072  0.00  0.00    +0.245 C 
ATOM     39  O   UNL     1       8.738  -5.999  23.223  0.00  0.00    -0.273 OA
BRANCH  36  40
ATOM     40  C   UNL     1       5.919  -5.848  23.500  0.00  0.00    +0.161 C 
BRANCH  40  44
ATOM     41  C   UNL     1       3.229  -5.628  26.207  0.00  0.00    +0.128 C 
ATOM     42  N   UNL     1       4.201  -5.322  25.194  0.00  0.00    -0.317 N 
ATOM     43  H   UNL     1       4.755  -4.477  25.289  0.00  0.00    +0.148 HD
ATOM     44  C   UNL     1       4.723  -6.317  24.391  0.00  0.00    +0.233 C 
ATOM     45  O   UNL     1       4.357  -7.498  24.472  0.00  0.00    -0.274 OA
ENDBRANCH  40  44
BRANCH  40  46
ATOM     46  C   UNL     1       5.408  -5.146  22.211  0.00  0.00    +0.012 C 
ATOM     47  C   UNL     1       6.132  -5.658  20.964  0.00  0.00    +0.009 C 
ATOM     48  C   UNL     1       5.471  -3.616  22.250  0.00  0.00    +0.009 C 
ENDBRANCH  40  46
ENDBRANCH  36  40
ENDBRANCH  35  38
BRANCH  35  49
ATOM     49  O   UNL     1       9.921  -3.472  24.084  0.00  0.00    -0.360 OA
BRANCH  49  50
ATOM     50  C   UNL     1       9.339  -2.397  23.346  0.00  0.00    +0.196 C 
BRANCH  50  51
ATOM     51  C   UNL     1       9.845  -0.945  23.398  0.00  0.00    -0.022 A 
ATOM     52  C   UNL     1       9.588  -0.089  22.299  0.00  0.00    +0.006 A 
ATOM     53  C   UNL     1       9.884   1.300  22.319  0.00  0.00    +0.009 A 
ATOM     54  C   UNL     1      10.456   1.910  23.444  0.00  0.00    -0.016 A 
ATOM     55  C   UNL     1      10.845   1.019  24.471  0.00  0.00    +0.009 A 
ATOM     56  C   UNL     1      10.550  -0.374  24.454  0.00  0.00    +0.006 A 
BRANCH  54  57
ATOM     57  C   UNL     1      10.568   3.399  23.593  0.00  0.00    +0.000 A 
ATOM     58  C   UNL     1       9.460   4.172  23.969  0.00  0.00    +0.119 A 
ATOM     59  N   UNL     1       9.412   5.530  24.072  0.00  0.00    -0.263 NA
ATOM     60  C   UNL     1      10.539   6.199  23.777  0.00  0.00    +0.111 A 
ATOM     61  C   UNL     1      11.707   5.566  23.397  0.00  0.00    +0.020 A 
ATOM     62  C   UNL     1      11.718   4.159  23.307  0.00  0.00    +0.011 A 
ENDBRANCH  54  57
ENDBRANCH  50  51
ENDBRANCH  49  50
ENDBRANCH  35  49
ENDBRANCH   1  35
TORSDOF 21
ENDMDL
MODEL 2
REMARK VINA RESULT:      -6.6      1.438      2.187
REMARK  Name = 
REMARK  27 active torsions:
REMARK  status: ('A' for Active; 'I' for Inactive)
REMARK    1  A    between atoms: C_1  and  N_2
REMARK    2  A    between atoms: C_3  and  C_5
REMARK    3  A    between atoms: C_5  and  N_7
REMARK    4  A    between atoms: C_5  and  C_60
REMARK    5  A    between atoms: C_8  and  C_10
REMARK    6  A    between atoms: C_10  and  O_12
REMARK    7  A    between atoms: C_10  and  C_26
REMARK    8  A    between atoms: O_12  and  C_13
REMARK    9  A    between atoms: C_13  and  C_14
REMARK   10  A    between atoms: C_17  and  C_20
REMARK   11  A    between atoms: C_26  and  O_28
REMARK   12  A    between atoms: C_26  and  C_29
REMARK   13  A    between atoms: C_29  and  O_31
REMARK   14  A    between atoms: C_29  and  C_32
REMARK   15  A    between atoms: C_32  and  O_34
REMARK   16  A    between atoms: C_32  and  C_48
REMARK   17  A    between atoms: O_34  and  C_35
REMARK   18  A    between atoms: C_35  and  C_36
REMARK   19  A    between atoms: C_39  and  C_42
REMARK   20  A    between atoms: N_50  and  C_51
REMARK   21  A    between atoms: C_51  and  C_53
REMARK   22  A    between atoms: C_51  and  C_56
REMARK   23  A    between atoms: C_53  and  C_54
REMARK   24  A    between atoms: C_53  and  C_55
REMARK   25  A    between atoms: N_58  and  C_59
REMARK   26  A    between atoms: C_60  and  C_61
REMARK   27  A    between atoms: C_60  and  C_62
REMARK                            x       y       z     vdW  Elec       q    Type
REMARK                         _______ _______ _______ _____ _____    ______ ____
ROOT
ATOM      1  C   UNL     1       8.533  -3.701  26.195  0.00  0.00    +0.184 C 
ENDROOT
BRANCH   1   2
ATOM      2  O   UNL     1       9.025  -4.861  26.905  0.00  0.00    -0.386 OA
ATOM      3  H   UNL     1       9.295  -5.566  26.272  0.00  0.00    +0.210 HD
ENDBRANCH   1   2
BRANCH   1   4
ATOM      4  C   UNL     1       7.038  -3.425  26.601  0.00  0.00    +0.184 C 
BRANCH   4   5
ATOM      5  O   UNL     1       6.704  -3.980  27.885  0.00  0.00    -0.386 OA
ATOM      6  H   UNL     1       7.306  -3.600  28.565  0.00  0.00    +0.210 HD
ENDBRANCH   4   5
BRANCH   4   7
ATOM      7  C   UNL     1       6.467  -1.917  26.565  0.00  0.00    +0.235 C 
BRANCH   7   8
ATOM      8  C   UNL     1       4.941  -1.764  26.978  0.00  0.00    +0.245 C 
ATOM      9  N   UNL     1       4.137  -2.905  26.803  0.00  0.00    -0.302 N 
ATOM     10  H   UNL     1       4.469  -3.600  26.143  0.00  0.00    +0.150 HD
ATOM     11  O   UNL     1       4.489  -0.710  27.436  0.00  0.00    -0.273 OA
BRANCH   9  12
ATOM     12  C   UNL     1       2.692  -2.995  27.158  0.00  0.00    +0.161 C 
BRANCH  12  13
ATOM     13  C   UNL     1       1.793  -3.458  25.959  0.00  0.00    +0.233 C 
ATOM     14  N   UNL     1       1.868  -4.809  25.648  0.00  0.00    -0.317 N 
ATOM     15  H   UNL     1       2.237  -5.447  26.342  0.00  0.00    +0.148 HD
ATOM     16  C   UNL     1       1.113  -5.385  24.552  0.00  0.00    +0.128 C 
ATOM     17  O   UNL     1       1.143  -2.662  25.282  0.00  0.00    -0.274 OA
ENDBRANCH  12  13
BRANCH  12  18
ATOM     18  C   UNL     1       2.414  -3.933  28.383  0.00  0.00    +0.012 C 
ATOM     19  C   UNL     1       1.049  -3.661  29.022  0.00  0.00    +0.009 C 
ATOM     20  C   UNL     1       3.495  -3.919  29.476  0.00  0.00    +0.009 C 
ENDBRANCH  12  18
ENDBRANCH   9  12
ENDBRANCH   7   8
BRANCH   7  21
ATOM     21  O   UNL     1       7.226  -0.933  27.303  0.00  0.00    -0.360 OA
BRANCH  21  22
ATOM     22  C   UNL     1       7.962   0.031  26.535  0.00  0.00    +0.196 C 
BRANCH  22  23
ATOM     23  C   UNL     1       7.044   0.953  25.705  0.00  0.00    -0.022 A 
ATOM     24  C   UNL     1       6.878   0.805  24.323  0.00  0.00    +0.006 A 
ATOM     25  C   UNL     1       6.068   1.696  23.569  0.00  0.00    +0.009 A 
ATOM     26  C   UNL     1       5.395   2.793  24.154  0.00  0.00    -0.016 A 
ATOM     27  C   UNL     1       5.616   2.949  25.535  0.00  0.00    +0.009 A 
ATOM     28  C   UNL     1       6.421   2.056  26.292  0.00  0.00    +0.006 A 
BRANCH  26  29
ATOM     29  C   UNL     1       4.491   3.714  23.379  0.00  0.00    +0.000 A 
ATOM     30  C   UNL     1       4.743   5.086  23.247  0.00  0.00    +0.119 A 
ATOM     31  N   UNL     1       3.999   5.977  22.537  0.00  0.00    -0.263 NA
ATOM     32  C   UNL     1       2.916   5.495  21.887  0.00  0.00    +0.111 A 
ATOM     33  C   UNL     1       2.552   4.166  21.939  0.00  0.00    +0.020 A 
ATOM     34  C   UNL     1       3.340   3.281  22.692  0.00  0.00    +0.011 A 
ENDBRANCH  26  29
ENDBRANCH  22  23
ENDBRANCH  21  22
ENDBRANCH   7  21
ENDBRANCH   4   7
ENDBRANCH   1   4
BRANCH   1  35
ATOM     35  C   UNL     1       8.958  -3.906  24.653  0.00  0.00    +0.235 C 
BRANCH  35  38
ATOM     36  N   UNL     1       6.770  -5.132  24.363  0.00  0.00    -0.302 N 
ATOM     37  H   UNL     1       6.589  -4.750  25.287  0.00  0.00    +0.150 HD
ATOM     38  C   UNL     1       8.100  -5.031  23.947  0.00  0.00    +0.245 C 
ATOM     39  O   UNL     1       8.548  -5.805  23.090  0.00  0.00    -0.273 OA
BRANCH  36  40
ATOM     40  C   UNL     1       5.838  -6.164  23.844  0.00  0.00    +0.161 C 
BRANCH  40  44
ATOM     41  C   UNL     1       4.589  -6.881  27.386  0.00  0.00    +0.128 C 
ATOM     42  N   UNL     1       5.211  -6.298  26.230  0.00  0.00    -0.317 N 
ATOM     43  H   UNL     1       6.095  -5.812  26.344  0.00  0.00    +0.148 HD
ATOM     44  C   UNL     1       4.916  -6.756  24.960  0.00  0.00    +0.233 C 
ATOM     45  O   UNL     1       4.084  -7.649  24.752  0.00  0.00    -0.274 OA
ENDBRANCH  40  44
BRANCH  40  46
ATOM     46  C   UNL     1       5.001  -5.707  22.618  0.00  0.00    +0.012 C 
ATOM     47  C   UNL     1       5.820  -5.752  21.327  0.00  0.00    +0.009 C 
ATOM     48  C   UNL     1       4.351  -4.327  22.767  0.00  0.00    +0.009 C 
ENDBRANCH  40  46
ENDBRANCH  36  40
ENDBRANCH  35  38
BRANCH  35  49
ATOM     49  O   UNL     1       9.007  -2.854  23.657  0.00  0.00    -0.360 OA
BRANCH  49  50
ATOM     50  C   UNL     1      10.174  -2.125  23.277  0.00  0.00    +0.196 C 
BRANCH  50  51
ATOM     51  C   UNL     1      10.285  -0.591  23.330  0.00  0.00    -0.022 A 
ATOM     52  C   UNL     1       9.861   0.166  22.210  0.00  0.00    +0.006 A 
ATOM     53  C   UNL     1       9.787   1.584  22.223  0.00  0.00    +0.009 A 
ATOM     54  C   UNL     1      10.133   2.325  23.362  0.00  0.00    -0.016 A 
ATOM     55  C   UNL     1      10.695   1.568  24.416  0.00  0.00    +0.009 A 
ATOM     56  C   UNL     1      10.772   0.145  24.405  0.00  0.00    +0.006 A 
BRANCH  54  57
ATOM     57  C   UNL     1       9.849   3.792  23.496  0.00  0.00    +0.000 A 
ATOM     58  C   UNL     1       8.565   4.302  23.262  0.00  0.00    +0.119 A 
ATOM     59  N   UNL     1       8.194   5.614  23.283  0.00  0.00    -0.263 NA
ATOM     60  C   UNL     1       9.158   6.511  23.546  0.00  0.00    +0.111 A 
ATOM     61  C   UNL     1      10.467   6.149  23.800  0.00  0.00    +0.020 A 
ATOM     62  C   UNL     1      10.811   4.783  23.775  0.00  0.00    +0.011 A 
ENDBRANCH  54  57
ENDBRANCH  50  51
ENDBRANCH  49  50
ENDBRANCH  35  49
ENDBRANCH   1  35
TORSDOF 21
ENDMDL
MODEL 3
REMARK VINA RESULT:      -6.4      2.815      9.918
REMARK  Name = 
REMARK  27 active torsions:
REMARK  status: ('A' for Active; 'I' for Inactive)
REMARK    1  A    between atoms: C_1  and  N_2
REMARK    2  A    between atoms: C_3  and  C_5
REMARK    3  A    between atoms: C_5  and  N_7
REMARK    4  A    between atoms: C_5  and  C_60
REMARK    5  A    between atoms: C_8  and  C_10
REMARK    6  A    between atoms: C_10  and  O_12
REMARK    7  A    between atoms: C_10  and  C_26
REMARK    8  A    between atoms: O_12  and  C_13
REMARK    9  A    between atoms: C_13  and  C_14
REMARK   10  A    between atoms: C_17  and  C_20
REMARK   11  A    between atoms: C_26  and  O_28
REMARK   12  A    between atoms: C_26  and  C_29
REMARK   13  A    between atoms: C_29  and  O_31
REMARK   14  A    between atoms: C_29  and  C_32
REMARK   15  A    between atoms: C_32  and  O_34
REMARK   16  A    between atoms: C_32  and  C_48
REMARK   17  A    between atoms: O_34  and  C_35
REMARK   18  A    between atoms: C_35  and  C_36
REMARK   19  A    between atoms: C_39  and  C_42
REMARK   20  A    between atoms: N_50  and  C_51
REMARK   21  A    between atoms: C_51  and  C_53
REMARK   22  A    between atoms: C_51  and  C_56
REMARK   23  A    between atoms: C_53  and  C_54
REMARK   24  A    between atoms: C_53  and  C_55
REMARK   25  A    between atoms: N_58  and  C_59
REMARK   26  A    between atoms: C_60  and  C_61
REMARK   27  A    between atoms: C_60  and  C_62
REMARK                            x       y       z     vdW  Elec       q    Type
REMARK                         _______ _______ _______ _____ _____    ______ ____
ROOT
ATOM      1  C   UNL     1       7.291   0.009  25.525  0.00  0.00    +0.184 C 
ENDROOT
BRANCH   1   2
ATOM      2  O   UNL     1       8.074   1.189  25.819  0.00  0.00    -0.386 OA
ATOM      3  H   UNL     1       8.513   1.526  25.005  0.00  0.00    +0.210 HD
ENDBRANCH   1   2
BRANCH   1   4
ATOM      4  C   UNL     1       7.086  -0.116  23.970  0.00  0.00    +0.184 C 
BRANCH   4   5
ATOM      5  O   UNL     1       6.149   0.847  23.458  0.00  0.00    -0.386 OA
ATOM      6  H   UNL     1       6.618   1.698  23.299  0.00  0.00    +0.210 HD
ENDBRANCH   4   5
BRANCH   4   7
ATOM      7  C   UNL     1       8.368  -0.106  22.993  0.00  0.00    +0.235 C 
BRANCH   7   8
ATOM      8  C   UNL     1       8.759   1.318  22.407  0.00  0.00    +0.245 C 
ATOM      9  N   UNL     1       8.498   2.420  23.242  0.00  0.00    -0.302 N 
ATOM     10  H   UNL     1       7.802   2.288  23.969  0.00  0.00    +0.150 HD
ATOM     11  O   UNL     1       9.272   1.450  21.292  0.00  0.00    -0.273 OA
BRANCH   9  12
ATOM     12  C   UNL     1       8.817   3.838  22.911  0.00  0.00    +0.161 C 
BRANCH  12  13
ATOM     13  C   UNL     1       7.591   4.800  23.084  0.00  0.00    +0.233 C 
ATOM     14  N   UNL     1       7.394   5.703  22.047  0.00  0.00    -0.317 N 
ATOM     15  H   UNL     1       7.831   5.519  21.153  0.00  0.00    +0.148 HD
ATOM     16  C   UNL     1       6.314   6.671  22.070  0.00  0.00    +0.128 C 
ATOM     17  O   UNL     1       6.910   4.817  24.109  0.00  0.00    -0.274 OA
ENDBRANCH  12  13
BRANCH  12  18
ATOM     18  C   UNL     1      10.022   4.409  23.735  0.00  0.00    +0.012 C 
ATOM     19  C   UNL     1      10.084   5.939  23.685  0.00  0.00    +0.009 C 
ATOM     20  C   UNL     1      11.399   3.834  23.364  0.00  0.00    +0.009 C 
ENDBRANCH  12  18
ENDBRANCH   9  12
ENDBRANCH   7   8
BRANCH   7  21
ATOM     21  O   UNL     1       9.571  -0.714  23.515  0.00  0.00    -0.360 OA
BRANCH  21  22
ATOM     22  C   UNL     1       9.779  -2.104  23.219  0.00  0.00    +0.196 C 
BRANCH  22  23
ATOM     23  C   UNL     1       8.914  -3.033  24.096  0.00  0.00    -0.022 A 
ATOM     24  C   UNL     1       7.948  -3.891  23.558  0.00  0.00    +0.006 A 
ATOM     25  C   UNL     1       7.126  -4.703  24.387  0.00  0.00    +0.009 A 
ATOM     26  C   UNL     1       7.216  -4.685  25.798  0.00  0.00    -0.016 A 
ATOM     27  C   UNL     1       8.161  -3.780  26.315  0.00  0.00    +0.009 A 
ATOM     28  C   UNL     1       8.987  -2.973  25.489  0.00  0.00    +0.006 A 
BRANCH  26  29
ATOM     29  C   UNL     1       6.392  -5.577  26.688  0.00  0.00    +0.000 A 
ATOM     30  C   UNL     1       6.607  -5.673  28.069  0.00  0.00    +0.119 A 
ATOM     31  N   UNL     1       5.887  -6.424  28.946  0.00  0.00    -0.263 NA
ATOM     32  C   UNL     1       4.858  -7.142  28.442  0.00  0.00    +0.111 A 
ATOM     33  C   UNL     1       4.542  -7.142  27.100  0.00  0.00    +0.020 A 
ATOM     34  C   UNL     1       5.317  -6.362  26.226  0.00  0.00    +0.011 A 
ENDBRANCH  26  29
ENDBRANCH  22  23
ENDBRANCH  21  22
ENDBRANCH   7  21
ENDBRANCH   4   7
ENDBRANCH   1   4
BRANCH   1  35
ATOM     35  C   UNL     1       6.035   0.041  26.536  0.00  0.00    +0.235 C 
BRANCH  35  38
ATOM     36  N   UNL     1       4.428   1.905  25.973  0.00  0.00    -0.302 N 
ATOM     37  H   UNL     1       4.335   1.381  25.107  0.00  0.00    +0.150 HD
ATOM     38  C   UNL     1       5.503   1.511  26.774  0.00  0.00    +0.245 C 
ATOM     39  O   UNL     1       5.994   2.298  27.594  0.00  0.00    -0.273 OA
BRANCH  36  40
ATOM     40  C   UNL     1       3.838   3.266  26.026  0.00  0.00    +0.161 C 
BRANCH  40  44
ATOM     41  C   UNL     1       4.130   3.654  22.234  0.00  0.00    +0.128 C 
ATOM     42  N   UNL     1       4.142   3.147  23.578  0.00  0.00    -0.317 N 
ATOM     43  H   UNL     1       4.861   2.480  23.841  0.00  0.00    +0.148 HD
ATOM     44  C   UNL     1       3.543   3.849  24.606  0.00  0.00    +0.233 C 
ATOM     45  O   UNL     1       2.939   4.914  24.419  0.00  0.00    -0.274 OA
ENDBRANCH  40  44
BRANCH  40  46
ATOM     46  C   UNL     1       2.589   3.382  26.944  0.00  0.00    +0.012 C 
ATOM     47  C   UNL     1       2.901   4.151  28.228  0.00  0.00    +0.009 C 
ATOM     48  C   UNL     1       1.927   2.045  27.293  0.00  0.00    +0.009 C 
ENDBRANCH  40  46
ENDBRANCH  36  40
ENDBRANCH  35  38
BRANCH  35  49
ATOM     49  O   UNL     1       4.818  -0.729  26.374  0.00  0.00    -0.360 OA
BRANCH  49  50
ATOM     50  C   UNL     1       4.646  -2.098  26.741  0.00  0.00    +0.196 C 
BRANCH  50  51
ATOM     51  C   UNL     1       3.734  -3.082  25.986  0.00  0.00    -0.022 A 
ATOM     52  C   UNL     1       4.023  -3.383  24.633  0.00  0.00    +0.006 A 
ATOM     53  C   UNL     1       3.330  -4.386  23.904  0.00  0.00    +0.009 A 
ATOM     54  C   UNL     1       2.307  -5.144  24.491  0.00  0.00    -0.016 A 
ATOM     55  C   UNL     1       1.930  -4.729  25.789  0.00  0.00    +0.009 A 
ATOM     56  C   UNL     1       2.622  -3.723  26.523  0.00  0.00    +0.006 A 
BRANCH  54  57
ATOM     57  C   UNL     1       1.716  -6.358  23.837  0.00  0.00    +0.000 A 
ATOM     58  C   UNL     1       1.833  -7.624  24.427  0.00  0.00    +0.119 A 
ATOM     59  N   UNL     1       1.405  -8.808  23.906  0.00  0.00    -0.263 NA
ATOM     60  C   UNL     1       0.815  -8.760  22.700  0.00  0.00    +0.111 A 
ATOM     61  C   UNL     1       0.628  -7.580  22.006  0.00  0.00    +0.020 A 
ATOM     62  C   UNL     1       1.081  -6.375  22.580  0.00  0.00    +0.011 A 
ENDBRANCH  54  57
ENDBRANCH  50  51
ENDBRANCH  49  50
ENDBRANCH  35  49
ENDBRANCH   1  35
TORSDOF 21
ENDMDL
MODEL 4
REMARK VINA RESULT:      -6.4      2.245      4.062
REMARK  Name = 
REMARK  27 active torsions:
REMARK  status: ('A' for Active; 'I' for Inactive)
REMARK    1  A    between atoms: C_1  and  N_2
REMARK    2  A    between atoms: C_3  and  C_5
REMARK    3  A    between atoms: C_5  and  N_7
REMARK    4  A    between atoms: C_5  and  C_60
REMARK    5  A    between atoms: C_8  and  C_10
REMARK    6  A    between atoms: C_10  and  O_12
REMARK    7  A    between atoms: C_10  and  C_26
REMARK    8  A    between atoms: O_12  and  C_13
REMARK    9  A    between atoms: C_13  and  C_14
REMARK   10  A    between atoms: C_17  and  C_20
REMARK   11  A    between atoms: C_26  and  O_28
REMARK   12  A    between atoms: C_26  and  C_29
REMARK   13  A    between atoms: C_29  and  O_31
REMARK   14  A    between atoms: C_29  and  C_32
REMARK   15  A    between atoms: C_32  and  O_34
REMARK   16  A    between atoms: C_32  and  C_48
REMARK   17  A    between atoms: O_34  and  C_35
REMARK   18  A    between atoms: C_35  and  C_36
REMARK   19  A    between atoms: C_39  and  C_42
REMARK   20  A    between atoms: N_50  and  C_51
REMARK   21  A    between atoms: C_51  and  C_53
REMARK   22  A    between atoms: C_51  and  C_56
REMARK   23  A    between atoms: C_53  and  C_54
REMARK   24  A    between atoms: C_53  and  C_55
REMARK   25  A    between atoms: N_58  and  C_59
REMARK   26  A    between atoms: C_60  and  C_61
REMARK   27  A    between atoms: C_60  and  C_62
REMARK                            x       y       z     vdW  Elec       q    Type
REMARK                         _______ _______ _______ _____ _____    ______ ____
ROOT
ATOM      1  C   UNL     1       5.928  -6.013  26.704  0.00  0.00    +0.184 C 
ENDROOT
BRANCH   1   2
ATOM      2  O   UNL     1       5.051  -6.618  27.681  0.00  0.00    -0.386 OA
ATOM      3  H   UNL     1       4.362  -7.163  27.237  0.00  0.00    +0.210 HD
ENDBRANCH   1   2
BRANCH   1   4
ATOM      4  C   UNL     1       6.308  -4.556  27.163  0.00  0.00    +0.184 C 
BRANCH   4   5
ATOM      5  O   UNL     1       7.726  -4.320  27.132  0.00  0.00    -0.386 OA
ATOM      6  H   UNL     1       8.187  -5.080  27.558  0.00  0.00    +0.210 HD
ENDBRANCH   4   5
BRANCH   4   7
ATOM      7  C   UNL     1       5.595  -3.289  26.464  0.00  0.00    +0.235 C 
BRANCH   7   8
ATOM      8  C   UNL     1       4.709  -2.394  27.433  0.00  0.00    +0.245 C 
ATOM      9  N   UNL     1       3.990  -1.351  26.823  0.00  0.00    -0.302 N 
ATOM     10  H   UNL     1       4.328  -1.030  25.921  0.00  0.00    +0.150 HD
ATOM     11  O   UNL     1       4.645  -2.609  28.647  0.00  0.00    -0.273 OA
BRANCH   9  12
ATOM     12  C   UNL     1       3.071  -0.416  27.533  0.00  0.00    +0.161 C 
BRANCH  12  13
ATOM     13  C   UNL     1       3.056   1.023  26.908  0.00  0.00    +0.233 C 
ATOM     14  N   UNL     1       4.161   1.810  27.204  0.00  0.00    -0.317 N 
ATOM     15  H   UNL     1       5.005   1.358  27.533  0.00  0.00    +0.148 HD
ATOM     16  C   UNL     1       4.285   3.170  26.716  0.00  0.00    +0.128 C 
ATOM     17  O   UNL     1       2.090   1.455  26.280  0.00  0.00    -0.274 OA
ENDBRANCH  12  13
BRANCH  12  18
ATOM     18  C   UNL     1       1.597  -0.941  27.615  0.00  0.00    +0.012 C 
ATOM     19  C   UNL     1       1.165  -1.229  29.057  0.00  0.00    +0.009 C 
ATOM     20  C   UNL     1       1.291  -2.169  26.742  0.00  0.00    +0.009 C 
ENDBRANCH  12  18
ENDBRANCH   9  12
ENDBRANCH   7   8
BRANCH   7  21
ATOM     21  O   UNL     1       6.460  -2.405  25.716  0.00  0.00    -0.360 OA
BRANCH  21  22
ATOM     22  C   UNL     1       7.112  -1.358  26.451  0.00  0.00    +0.196 C 
BRANCH  22  23
ATOM     23  C   UNL     1       7.045   0.004  25.727  0.00  0.00    -0.022 A 
ATOM     24  C   UNL     1       6.417   0.167  24.487  0.00  0.00    +0.006 A 
ATOM     25  C   UNL     1       6.411   1.418  23.813  0.00  0.00    +0.009 A 
ATOM     26  C   UNL     1       7.047   2.568  24.336  0.00  0.00    -0.016 A 
ATOM     27  C   UNL     1       7.711   2.365  25.561  0.00  0.00    +0.009 A 
ATOM     28  C   UNL     1       7.714   1.118  26.238  0.00  0.00    +0.006 A 
BRANCH  26  29
ATOM     29  C   UNL     1       7.003   3.913  23.662  0.00  0.00    +0.000 A 
ATOM     30  C   UNL     1       5.816   4.471  23.168  0.00  0.00    +0.119 A 
ATOM     31  N   UNL     1       5.684   5.691  22.581  0.00  0.00    -0.263 NA
ATOM     32  C   UNL     1       6.801   6.446  22.470  0.00  0.00    +0.111 A 
ATOM     33  C   UNL     1       8.033   6.014  22.911  0.00  0.00    +0.020 A 
ATOM     34  C   UNL     1       8.130   4.743  23.501  0.00  0.00    +0.011 A 
ENDBRANCH  26  29
ENDBRANCH  22  23
ENDBRANCH  21  22
ENDBRANCH   7  21
ENDBRANCH   4   7
ENDBRANCH   1   4
BRANCH   1  35
ATOM     35  C   UNL     1       5.254  -6.288  25.265  0.00  0.00    +0.235 C 
BRANCH  35  38
ATOM     36  N   UNL     1       2.981  -7.054  24.479  0.00  0.00    -0.302 N 
ATOM     37  H   UNL     1       3.519  -7.394  23.687  0.00  0.00    +0.150 HD
ATOM     38  C   UNL     1       3.679  -6.181  25.319  0.00  0.00    +0.245 C 
ATOM     39  O   UNL     1       3.065  -5.375  26.031  0.00  0.00    -0.273 OA
BRANCH  36  40
ATOM     40  C   UNL     1       1.501  -7.053  24.363  0.00  0.00    +0.161 C 
BRANCH  40  44
ATOM     41  C   UNL     1       1.201  -8.260  20.749  0.00  0.00    +0.128 C 
ATOM     42  N   UNL     1       1.400  -8.182  22.169  0.00  0.00    -0.317 N 
ATOM     43  H   UNL     1       2.115  -8.765  22.594  0.00  0.00    +0.148 HD
ATOM     44  C   UNL     1       1.015  -7.061  22.878  0.00  0.00    +0.233 C 
ATOM     45  O   UNL     1       0.449  -6.098  22.342  0.00  0.00    -0.274 OA
ENDBRANCH  40  44
BRANCH  40  46
ATOM     46  C   UNL     1       0.799  -8.171  25.183  0.00  0.00    +0.012 C 
ATOM     47  C   UNL     1       0.470  -7.708  26.603  0.00  0.00    +0.009 C 
ATOM     48  C   UNL     1       1.563  -9.498  25.238  0.00  0.00    +0.009 C 
ENDBRANCH  40  46
ENDBRANCH  36  40
ENDBRANCH  35  38
BRANCH  35  49
ATOM     49  O   UNL     1       5.593  -5.589  24.042  0.00  0.00    -0.360 OA
BRANCH  49  50
ATOM     50  C   UNL     1       6.869  -5.602  23.403  0.00  0.00    +0.196 C 
BRANCH  50  51
ATOM     51  C   UNL     1       7.779  -4.367  23.275  0.00  0.00    -0.022 A 
ATOM     52  C   UNL     1       7.524  -3.432  22.242  0.00  0.00    +0.006 A 
ATOM     53  C   UNL     1       8.213  -2.195  22.137  0.00  0.00    +0.009 A 
ATOM     54  C   UNL     1       9.198  -1.824  23.063  0.00  0.00    -0.016 A 
ATOM     55  C   UNL     1       9.546  -2.829  23.995  0.00  0.00    +0.009 A 
ATOM     56  C   UNL     1       8.857  -4.072  24.103  0.00  0.00    +0.006 A 
BRANCH  54  57
ATOM     57  C   UNL     1       9.778  -0.442  23.125  0.00  0.00    +0.000 A 
ATOM     58  C   UNL     1      10.475  -0.002  24.259  0.00  0.00    +0.119 A 
ATOM     59  N   UNL     1      10.987   1.243  24.468  0.00  0.00    -0.263 NA
ATOM     60  C   UNL     1      10.800   2.146  23.490  0.00  0.00    +0.111 A 
ATOM     61  C   UNL     1      10.135   1.849  22.316  0.00  0.00    +0.020 A 
ATOM     62  C   UNL     1       9.624   0.548  22.135  0.00  0.00    +0.011 A 
ENDBRANCH  54  57
ENDBRANCH  50  51
ENDBRANCH  49  50
ENDBRANCH  35  49
ENDBRANCH   1  35
TORSDOF 21
ENDMDL
MODEL 5
REMARK VINA RESULT:      -6.2      2.101      3.340
REMARK  Name = 
REMARK  27 active torsions:
REMARK  status: ('A' for Active; 'I' for Inactive)
REMARK    1  A    between atoms: C_1  and  N_2
REMARK    2  A    between atoms: C_3  and  C_5
REMARK    3  A    between atoms: C_5  and  N_7
REMARK    4  A    between atoms: C_5  and  C_60
REMARK    5  A    between atoms: C_8  and  C_10
REMARK    6  A    between atoms: C_10  and  O_12
REMARK    7  A    between atoms: C_10  and  C_26
REMARK    8  A    between atoms: O_12  and  C_13
REMARK    9  A    between atoms: C_13  and  C_14
REMARK   10  A    between atoms: C_17  and  C_20
REMARK   11  A    between atoms: C_26  and  O_28
REMARK   12  A    between atoms: C_26  and  C_29
REMARK   13  A    between atoms: C_29  and  O_31
REMARK   14  A    between atoms: C_29  and  C_32
REMARK   15  A    between atoms: C_32  and  O_34
REMARK   16  A    between atoms: C_32  and  C_48
REMARK   17  A    between atoms: O_34  and  C_35
REMARK   18  A    between atoms: C_35  and  C_36
REMARK   19  A    between atoms: C_39  and  C_42
REMARK   20  A    between atoms: N_50  and  C_51
REMARK   21  A    between atoms: C_51  and  C_53
REMARK   22  A    between atoms: C_51  and  C_56
REMARK   23  A    between atoms: C_53  and  C_54
REMARK   24  A    between atoms: C_53  and  C_55
REMARK   25  A    between atoms: N_58  and  C_59
REMARK   26  A    between atoms: C_60  and  C_61
REMARK   27  A    between atoms: C_60  and  C_62
REMARK                            x       y       z     vdW  Elec       q    Type
REMARK                         _______ _______ _______ _____ _____    ______ ____
ROOT
ATOM      1  C   UNL     1       6.137  -2.377  26.634  0.00  0.00    +0.184 C 
ENDROOT
BRANCH   1   2
ATOM      2  O   UNL     1       6.221  -3.662  27.293  0.00  0.00    -0.386 OA
ATOM      3  H   UNL     1       5.500  -4.257  26.984  0.00  0.00    +0.210 HD
ENDBRANCH   1   2
BRANCH   1   4
ATOM      4  C   UNL     1       4.635  -1.914  26.563  0.00  0.00    +0.184 C 
BRANCH   4   5
ATOM      5  O   UNL     1       3.807  -2.838  25.835  0.00  0.00    -0.386 OA
ATOM      6  H   UNL     1       2.992  -2.372  25.536  0.00  0.00    +0.210 HD
ENDBRANCH   4   5
BRANCH   4   7
ATOM      7  C   UNL     1       3.852  -1.535  27.921  0.00  0.00    +0.235 C 
BRANCH   7   8
ATOM      8  C   UNL     1       3.886  -2.648  29.053  0.00  0.00    +0.245 C 
ATOM      9  N   UNL     1       3.525  -3.947  28.651  0.00  0.00    -0.302 N 
ATOM     10  H   UNL     1       2.964  -4.025  27.809  0.00  0.00    +0.150 HD
ATOM     11  O   UNL     1       4.220  -2.393  30.214  0.00  0.00    -0.273 OA
BRANCH   9  12
ATOM     12  C   UNL     1       3.522  -5.147  29.537  0.00  0.00    +0.161 C 
BRANCH  12  13
ATOM     13  C   UNL     1       2.078  -5.623  29.920  0.00  0.00    +0.233 C 
ATOM     14  N   UNL     1       1.938  -6.990  30.124  0.00  0.00    -0.317 N 
ATOM     15  H   UNL     1       2.768  -7.542  30.300  0.00  0.00    +0.148 HD
ATOM     16  C   UNL     1       0.661  -7.586  30.465  0.00  0.00    +0.128 C 
ATOM     17  O   UNL     1       1.119  -4.853  29.945  0.00  0.00    -0.274 OA
ENDBRANCH  12  13
BRANCH  12  18
ATOM     18  C   UNL     1       4.306  -6.362  28.933  0.00  0.00    +0.012 C 
ATOM     19  C   UNL     1       5.771  -6.386  29.382  0.00  0.00    +0.009 C 
ATOM     20  C   UNL     1       4.244  -6.484  27.402  0.00  0.00    +0.009 C 
ENDBRANCH  12  18
ENDBRANCH   9  12
ENDBRANCH   7   8
BRANCH   7  21
ATOM     21  O   UNL     1       4.211  -0.274  28.530  0.00  0.00    -0.360 OA
BRANCH  21  22
ATOM     22  C   UNL     1       5.595   0.106  28.471  0.00  0.00    +0.196 C 
BRANCH  22  23
ATOM     23  C   UNL     1       5.871   1.170  27.388  0.00  0.00    -0.022 A 
ATOM     24  C   UNL     1       7.130   1.334  26.797  0.00  0.00    +0.006 A 
ATOM     25  C   UNL     1       7.377   2.353  25.839  0.00  0.00    +0.009 A 
ATOM     26  C   UNL     1       6.383   3.273  25.433  0.00  0.00    -0.016 A 
ATOM     27  C   UNL     1       5.141   3.117  26.075  0.00  0.00    +0.009 A 
ATOM     28  C   UNL     1       4.890   2.096  27.030  0.00  0.00    +0.006 A 
BRANCH  26  29
ATOM     29  C   UNL     1       6.613   4.323  24.379  0.00  0.00    +0.000 A 
ATOM     30  C   UNL     1       6.699   5.689  24.679  0.00  0.00    +0.119 A 
ATOM     31  N   UNL     1       6.941   6.694  23.796  0.00  0.00    -0.263 NA
ATOM     32  C   UNL     1       7.126   6.347  22.502  0.00  0.00    +0.111 A 
ATOM     33  C   UNL     1       7.062   5.039  22.071  0.00  0.00    +0.020 A 
ATOM     34  C   UNL     1       6.799   4.031  23.013  0.00  0.00    +0.011 A 
ENDBRANCH  26  29
ENDBRANCH  22  23
ENDBRANCH  21  22
ENDBRANCH   7  21
ENDBRANCH   4   7
ENDBRANCH   1   4
BRANCH   1  35
ATOM     35  C   UNL     1       7.040  -2.497  25.303  0.00  0.00    +0.235 C 
BRANCH  35  38
ATOM     36  N   UNL     1       5.725  -4.160  23.932  0.00  0.00    -0.302 N 
ATOM     37  H   UNL     1       4.944  -3.576  24.221  0.00  0.00    +0.150 HD
ATOM     38  C   UNL     1       6.913  -3.921  24.627  0.00  0.00    +0.245 C 
ATOM     39  O   UNL     1       7.781  -4.800  24.704  0.00  0.00    -0.273 OA
BRANCH  36  40
ATOM     40  C   UNL     1       5.417  -5.458  23.282  0.00  0.00    +0.161 C 
BRANCH  40  44
ATOM     41  C   UNL     1       2.374  -7.710  23.816  0.00  0.00    +0.128 C 
ATOM     42  N   UNL     1       3.690  -7.136  23.835  0.00  0.00    -0.317 N 
ATOM     43  H   UNL     1       4.494  -7.757  23.832  0.00  0.00    +0.148 HD
ATOM     44  C   UNL     1       3.906  -5.844  23.397  0.00  0.00    +0.233 C 
ATOM     45  O   UNL     1       2.985  -5.111  23.010  0.00  0.00    -0.274 OA
ENDBRANCH  40  44
BRANCH  40  46
ATOM     46  C   UNL     1       5.907  -5.566  21.812  0.00  0.00    +0.012 C 
ATOM     47  C   UNL     1       7.262  -6.268  21.718  0.00  0.00    +0.009 C 
ATOM     48  C   UNL     1       5.965  -4.233  21.059  0.00  0.00    +0.009 C 
ENDBRANCH  40  46
ENDBRANCH  36  40
ENDBRANCH  35  38
BRANCH  35  49
ATOM     49  O   UNL     1       6.982  -1.589  24.175  0.00  0.00    -0.360 OA
BRANCH  49  50
ATOM     50  C   UNL     1       8.042  -1.344  23.251  0.00  0.00    +0.196 C 
BRANCH  50  51
ATOM     51  C   UNL     1       8.964  -0.112  23.308  0.00  0.00    -0.022 A 
ATOM     52  C   UNL     1       8.934   0.817  22.238  0.00  0.00    +0.006 A 
ATOM     53  C   UNL     1       9.635   2.051  22.272  0.00  0.00    +0.009 A 
ATOM     54  C   UNL     1      10.408   2.425  23.381  0.00  0.00    -0.016 A 
ATOM     55  C   UNL     1      10.549   1.425  24.371  0.00  0.00    +0.009 A 
ATOM     56  C   UNL     1       9.848   0.185  24.340  0.00  0.00    +0.006 A 
BRANCH  54  57
ATOM     57  C   UNL     1      10.968   3.806  23.554  0.00  0.00    +0.000 A 
ATOM     58  C   UNL     1      12.337   4.055  23.384  0.00  0.00    +0.119 A 
ATOM     59  N   UNL     1      12.979   5.242  23.578  0.00  0.00    -0.263 NA
ATOM     60  C   UNL     1      12.224   6.278  23.981  0.00  0.00    +0.111 A 
ATOM     61  C   UNL     1      10.862   6.177  24.184  0.00  0.00    +0.020 A 
ATOM     62  C   UNL     1      10.233   4.934  23.967  0.00  0.00    +0.011 A 
ENDBRANCH  54  57
ENDBRANCH  50  51
ENDBRANCH  49  50
ENDBRANCH  35  49
ENDBRANCH   1  35
TORSDOF 21
ENDMDL
MODEL 6
REMARK VINA RESULT:      -6.2      2.089      3.377
REMARK  Name = 
REMARK  27 active torsions:
REMARK  status: ('A' for Active; 'I' for Inactive)
REMARK    1  A    between atoms: C_1  and  N_2
REMARK    2  A    between atoms: C_3  and  C_5
REMARK    3  A    between atoms: C_5  and  N_7
REMARK    4  A    between atoms: C_5  and  C_60
REMARK    5  A    between atoms: C_8  and  C_10
REMARK    6  A    between atoms: C_10  and  O_12
REMARK    7  A    between atoms: C_10  and  C_26
REMARK    8  A    between atoms: O_12  and  C_13
REMARK    9  A    between atoms: C_13  and  C_14
REMARK   10  A    between atoms: C_17  and  C_20
REMARK   11  A    between atoms: C_26  and  O_28
REMARK   12  A    between atoms: C_26  and  C_29
REMARK   13  A    between atoms: C_29  and  O_31
REMARK   14  A    between atoms: C_29  and  C_32
REMARK   15  A    between atoms: C_32  and  O_34
REMARK   16  A    between atoms: C_32  and  C_48
REMARK   17  A    between atoms: O_34  and  C_35
REMARK   18  A    between atoms: C_35  and  C_36
REMARK   19  A    between atoms: C_39  and  C_42
REMARK   20  A    between atoms: N_50  and  C_51
REMARK   21  A    between atoms: C_51  and  C_53
REMARK   22  A    between atoms: C_51  and  C_56
REMARK   23  A    between atoms: C_53  and  C_54
REMARK   24  A    between atoms: C_53  and  C_55
REMARK   25  A    between atoms: N_58  and  C_59
REMARK   26  A    between atoms: C_60  and  C_61
REMARK   27  A    between atoms: C_60  and  C_62
REMARK                            x       y       z     vdW  Elec       q    Type
REMARK                         _______ _______ _______ _____ _____    ______ ____
ROOT
ATOM      1  C   UNL     1       7.514  -4.649  27.102  0.00  0.00    +0.184 C 
ENDROOT
BRANCH   1   2
ATOM      2  O   UNL     1       7.913  -6.021  27.319  0.00  0.00    -0.386 OA
ATOM      3  H   UNL     1       8.702  -6.243  26.772  0.00  0.00    +0.210 HD
ENDBRANCH   1   2
BRANCH   1   4
ATOM      4  C   UNL     1       5.956  -4.515  27.278  0.00  0.00    +0.184 C 
BRANCH   4   5
ATOM      5  O   UNL     1       5.581  -4.168  28.622  0.00  0.00    -0.386 OA
ATOM      6  H   UNL     1       5.111  -3.302  28.610  0.00  0.00    +0.210 HD
ENDBRANCH   4   5
BRANCH   4   7
ATOM      7  C   UNL     1       5.120  -3.561  26.283  0.00  0.00    +0.235 C 
BRANCH   7   8
ATOM      8  C   UNL     1       3.592  -3.955  26.094  0.00  0.00    +0.245 C 
ATOM      9  N   UNL     1       2.936  -4.443  27.239  0.00  0.00    -0.302 N 
ATOM     10  H   UNL     1       3.523  -4.822  27.975  0.00  0.00    +0.150 HD
ATOM     11  O   UNL     1       3.013  -3.830  25.012  0.00  0.00    -0.273 OA
BRANCH   9  12
ATOM     12  C   UNL     1       1.499  -4.837  27.298  0.00  0.00    +0.161 C 
BRANCH  12  13
ATOM     13  C   UNL     1       1.291  -6.347  27.665  0.00  0.00    +0.233 C 
ATOM     14  N   UNL     1       1.059  -7.193  26.589  0.00  0.00    -0.317 N 
ATOM     15  H   UNL     1       1.312  -6.879  25.661  0.00  0.00    +0.148 HD
ATOM     16  C   UNL     1       0.827  -8.613  26.768  0.00  0.00    +0.128 C 
ATOM     17  O   UNL     1       1.242  -6.738  28.831  0.00  0.00    -0.274 OA
ENDBRANCH  12  13
BRANCH  12  18
ATOM     18  C   UNL     1       0.659  -3.960  28.288  0.00  0.00    +0.012 C 
ATOM     19  C   UNL     1       0.443  -2.538  27.761  0.00  0.00    +0.009 C 
ATOM     20  C   UNL     1       1.205  -3.890  29.724  0.00  0.00    +0.009 C 
ENDBRANCH  12  18
ENDBRANCH   9  12
ENDBRANCH   7   8
BRANCH   7  21
ATOM     21  O   UNL     1       5.178  -2.144  26.563  0.00  0.00    -0.360 OA
BRANCH  21  22
ATOM     22  C   UNL     1       5.447  -1.272  25.454  0.00  0.00    +0.196 C 
BRANCH  22  23
ATOM     23  C   UNL     1       5.822   0.157  25.900  0.00  0.00    -0.022 A 
ATOM     24  C   UNL     1       5.406   1.297  25.202  0.00  0.00    +0.006 A 
ATOM     25  C   UNL     1       5.804   2.602  25.600  0.00  0.00    +0.009 A 
ATOM     26  C   UNL     1       6.652   2.834  26.708  0.00  0.00    -0.016 A 
ATOM     27  C   UNL     1       7.093   1.670  27.364  0.00  0.00    +0.009 A 
ATOM     28  C   UNL     1       6.692   0.366  26.971  0.00  0.00    +0.006 A 
BRANCH  26  29
ATOM     29  C   UNL     1       7.037   4.212  27.175  0.00  0.00    +0.000 A 
ATOM     30  C   UNL     1       7.068   4.569  28.530  0.00  0.00    +0.119 A 
ATOM     31  N   UNL     1       7.439   5.775  29.037  0.00  0.00    -0.263 NA
ATOM     32  C   UNL     1       7.824   6.723  28.152  0.00  0.00    +0.111 A 
ATOM     33  C   UNL     1       7.835   6.505  26.791  0.00  0.00    +0.020 A 
ATOM     34  C   UNL     1       7.434   5.248  26.307  0.00  0.00    +0.011 A 
ENDBRANCH  26  29
ENDBRANCH  22  23
ENDBRANCH  21  22
ENDBRANCH   7  21
ENDBRANCH   4   7
ENDBRANCH   1   4
BRANCH   1  35
ATOM     35  C   UNL     1       8.246  -4.178  25.744  0.00  0.00    +0.235 C 
BRANCH  35  38
ATOM     36  N   UNL     1       6.421  -5.191  24.323  0.00  0.00    -0.302 N 
ATOM     37  H   UNL     1       5.873  -5.051  25.167  0.00  0.00    +0.150 HD
ATOM     38  C   UNL     1       7.800  -5.045  24.500  0.00  0.00    +0.245 C 
ATOM     39  O   UNL     1       8.592  -5.592  23.720  0.00  0.00    -0.273 OA
BRANCH  36  40
ATOM     40  C   UNL     1       5.828  -6.013  23.239  0.00  0.00    +0.161 C 
BRANCH  40  44
ATOM     41  C   UNL     1       2.081  -6.767  23.314  0.00  0.00    +0.128 C 
ATOM     42  N   UNL     1       3.403  -6.358  22.927  0.00  0.00    -0.317 N 
ATOM     43  H   UNL     1       3.506  -5.542  22.332  0.00  0.00    +0.148 HD
ATOM     44  C   UNL     1       4.505  -6.720  23.677  0.00  0.00    +0.233 C 
ATOM     45  O   UNL     1       4.417  -7.439  24.682  0.00  0.00    -0.274 OA
ENDBRANCH  40  44
BRANCH  40  46
ATOM     46  C   UNL     1       5.634  -5.253  21.898  0.00  0.00    +0.012 C 
ATOM     47  C   UNL     1       6.640  -5.708  20.839  0.00  0.00    +0.009 C 
ATOM     48  C   UNL     1       5.670  -3.726  22.019  0.00  0.00    +0.009 C 
ENDBRANCH  40  46
ENDBRANCH  36  40
ENDBRANCH  35  38
BRANCH  35  49
ATOM     49  O   UNL     1       8.243  -2.826  25.223  0.00  0.00    -0.360 OA
BRANCH  49  50
ATOM     50  C   UNL     1       9.400  -2.072  24.862  0.00  0.00    +0.196 C 
BRANCH  50  51
ATOM     51  C   UNL     1       9.355  -0.619  24.357  0.00  0.00    -0.022 A 
ATOM     52  C   UNL     1       8.547  -0.307  23.236  0.00  0.00    +0.006 A 
ATOM     53  C   UNL     1       8.327   1.024  22.793  0.00  0.00    +0.009 A 
ATOM     54  C   UNL     1       8.907   2.120  23.448  0.00  0.00    -0.016 A 
ATOM     55  C   UNL     1       9.829   1.784  24.466  0.00  0.00    +0.009 A 
ATOM     56  C   UNL     1      10.052   0.449  24.913  0.00  0.00    +0.006 A 
BRANCH  54  57
ATOM     57  C   UNL     1       8.518   3.540  23.159  0.00  0.00    +0.000 A 
ATOM     58  C   UNL     1       9.379   4.601  23.472  0.00  0.00    +0.119 A 
ATOM     59  N   UNL     1       9.118   5.931  23.325  0.00  0.00    -0.263 NA
ATOM     60  C   UNL     1       7.911   6.260  22.837  0.00  0.00    +0.111 A 
ATOM     61  C   UNL     1       6.965   5.318  22.482  0.00  0.00    +0.020 A 
ATOM     62  C   UNL     1       7.274   3.952  22.644  0.00  0.00    +0.011 A 
ENDBRANCH  54  57
ENDBRANCH  50  51
ENDBRANCH  49  50
ENDBRANCH  35  49
ENDBRANCH   1  35
TORSDOF 21
ENDMDL
MODEL 7
REMARK VINA RESULT:      -6.2      2.335      8.367
REMARK  Name = 
REMARK  27 active torsions:
REMARK  status: ('A' for Active; 'I' for Inactive)
REMARK    1  A    between atoms: C_1  and  N_2
REMARK    2  A    between atoms: C_3  and  C_5
REMARK    3  A    between atoms: C_5  and  N_7
REMARK    4  A    between atoms: C_5  and  C_60
REMARK    5  A    between atoms: C_8  and  C_10
REMARK    6  A    between atoms: C_10  and  O_12
REMARK    7  A    between atoms: C_10  and  C_26
REMARK    8  A    between atoms: O_12  and  C_13
REMARK    9  A    between atoms: C_13  and  C_14
REMARK   10  A    between atoms: C_17  and  C_20
REMARK   11  A    between atoms: C_26  and  O_28
REMARK   12  A    between atoms: C_26  and  C_29
REMARK   13  A    between atoms: C_29  and  O_31
REMARK   14  A    between atoms: C_29  and  C_32
REMARK   15  A    between atoms: C_32  and  O_34
REMARK   16  A    between atoms: C_32  and  C_48
REMARK   17  A    between atoms: O_34  and  C_35
REMARK   18  A    between atoms: C_35  and  C_36
REMARK   19  A    between atoms: C_39  and  C_42
REMARK   20  A    between atoms: N_50  and  C_51
REMARK   21  A    between atoms: C_51  and  C_53
REMARK   22  A    between atoms: C_51  and  C_56
REMARK   23  A    between atoms: C_53  and  C_54
REMARK   24  A    between atoms: C_53  and  C_55
REMARK   25  A    between atoms: N_58  and  C_59
REMARK   26  A    between atoms: C_60  and  C_61
REMARK   27  A    between atoms: C_60  and  C_62
REMARK                            x       y       z     vdW  Elec       q    Type
REMARK                         _______ _______ _______ _____ _____    ______ ____
ROOT
ATOM      1  C   UNL     1       8.721  -0.637  25.903  0.00  0.00    +0.184 C 
ENDROOT
BRANCH   1   2
ATOM      2  O   UNL     1       9.731  -0.308  26.884  0.00  0.00    -0.386 OA
ATOM      3  H   UNL     1      10.270  -1.102  27.106  0.00  0.00    +0.210 HD
ENDBRANCH   1   2
BRANCH   1   4
ATOM      4  C   UNL     1       8.784   0.390  24.712  0.00  0.00    +0.184 C 
BRANCH   4   5
ATOM      5  O   UNL     1       9.651   1.503  24.989  0.00  0.00    -0.386 OA
ATOM      6  H   UNL     1       9.104   2.312  25.116  0.00  0.00    +0.210 HD
ENDBRANCH   4   5
BRANCH   4   7
ATOM      7  C   UNL     1       9.131  -0.132  23.226  0.00  0.00    +0.235 C 
BRANCH   7   8
ATOM      8  C   UNL     1       9.244  -1.710  23.074  0.00  0.00    +0.245 C 
ATOM      9  N   UNL     1       8.029  -2.418  23.087  0.00  0.00    -0.302 N 
ATOM     10  H   UNL     1       7.234  -1.955  23.515  0.00  0.00    +0.150 HD
ATOM     11  O   UNL     1      10.332  -2.279  22.942  0.00  0.00    -0.273 OA
BRANCH   9  12
ATOM     12  C   UNL     1       7.899  -3.895  22.923  0.00  0.00    +0.161 C 
BRANCH  12  13
ATOM     13  C   UNL     1       8.289  -4.692  24.215  0.00  0.00    +0.233 C 
ATOM     14  N   UNL     1       7.863  -4.129  25.412  0.00  0.00    -0.317 N 
ATOM     15  H   UNL     1       7.118  -3.444  25.388  0.00  0.00    +0.148 HD
ATOM     16  C   UNL     1       8.163  -4.737  26.693  0.00  0.00    +0.128 C 
ATOM     17  O   UNL     1       9.004  -5.693  24.178  0.00  0.00    -0.274 OA
ENDBRANCH  12  13
BRANCH  12  18
ATOM     18  C   UNL     1       6.466  -4.342  22.472  0.00  0.00    +0.012 C 
ATOM     19  C   UNL     1       5.404  -3.283  22.786  0.00  0.00    +0.009 C 
ATOM     20  C   UNL     1       6.002  -5.701  23.021  0.00  0.00    +0.009 C 
ENDBRANCH  12  18
ENDBRANCH   9  12
ENDBRANCH   7   8
BRANCH   7  21
ATOM     21  O   UNL     1       8.277   0.353  22.166  0.00  0.00    -0.360 OA
BRANCH  21  22
ATOM     22  C   UNL     1       8.413   1.736  21.803  0.00  0.00    +0.196 C 
BRANCH  22  23
ATOM     23  C   UNL     1       7.201   2.585  22.241  0.00  0.00    -0.022 A 
ATOM     24  C   UNL     1       7.167   3.977  22.100  0.00  0.00    +0.006 A 
ATOM     25  C   UNL     1       6.062   4.746  22.555  0.00  0.00    +0.009 A 
ATOM     26  C   UNL     1       4.940   4.165  23.191  0.00  0.00    -0.016 A 
ATOM     27  C   UNL     1       5.020   2.771  23.363  0.00  0.00    +0.009 A 
ATOM     28  C   UNL     1       6.120   2.000  22.903  0.00  0.00    +0.006 A 
BRANCH  26  29
ATOM     29  C   UNL     1       3.738   4.959  23.629  0.00  0.00    +0.000 A 
ATOM     30  C   UNL     1       3.821   6.303  24.018  0.00  0.00    +0.119 A 
ATOM     31  N   UNL     1       2.783   7.099  24.390  0.00  0.00    -0.263 NA
ATOM     32  C   UNL     1       1.549   6.547  24.379  0.00  0.00    +0.111 A 
ATOM     33  C   UNL     1       1.328   5.234  24.022  0.00  0.00    +0.020 A 
ATOM     34  C   UNL     1       2.428   4.442  23.654  0.00  0.00    +0.011 A 
ENDBRANCH  26  29
ENDBRANCH  22  23
ENDBRANCH  21  22
ENDBRANCH   7  21
ENDBRANCH   4   7
ENDBRANCH   1   4
BRANCH   1  35
ATOM     35  C   UNL     1       7.357  -0.879  26.728  0.00  0.00    +0.235 C 
BRANCH  35  38
ATOM     36  N   UNL     1       6.330   1.427  26.688  0.00  0.00    -0.302 N 
ATOM     37  H   UNL     1       6.607   1.385  25.710  0.00  0.00    +0.150 HD
ATOM     38  C   UNL     1       6.885   0.424  27.488  0.00  0.00    +0.245 C 
ATOM     39  O   UNL     1       7.000   0.591  28.709  0.00  0.00    -0.273 OA
BRANCH  36  40
ATOM     40  C   UNL     1       5.883   2.735  27.226  0.00  0.00    +0.161 C 
BRANCH  40  44
ATOM     41  C   UNL     1       8.543   4.754  25.365  0.00  0.00    +0.128 C 
ATOM     42  N   UNL     1       7.757   3.696  25.936  0.00  0.00    -0.317 N 
ATOM     43  H   UNL     1       8.232   2.865  26.275  0.00  0.00    +0.148 HD
ATOM     44  C   UNL     1       6.501   3.946  26.454  0.00  0.00    +0.233 C 
ATOM     45  O   UNL     1       5.978   5.068  26.417  0.00  0.00    -0.274 OA
ENDBRANCH  40  44
BRANCH  40  46
ATOM     46  C   UNL     1       4.340   2.881  27.343  0.00  0.00    +0.012 C 
ATOM     47  C   UNL     1       3.883   2.886  28.803  0.00  0.00    +0.009 C 
ATOM     48  C   UNL     1       3.539   1.839  26.556  0.00  0.00    +0.009 C 
ENDBRANCH  40  46
ENDBRANCH  36  40
ENDBRANCH  35  38
BRANCH  35  49
ATOM     49  O   UNL     1       6.127  -1.399  26.166  0.00  0.00    -0.360 OA
BRANCH  49  50
ATOM     50  C   UNL     1       5.076  -2.025  26.903  0.00  0.00    +0.196 C 
BRANCH  50  51
ATOM     51  C   UNL     1       4.263  -3.226  26.387  0.00  0.00    -0.022 A 
ATOM     52  C   UNL     1       3.130  -2.986  25.570  0.00  0.00    +0.006 A 
ATOM     53  C   UNL     1       2.410  -4.028  24.929  0.00  0.00    +0.009 A 
ATOM     54  C   UNL     1       2.783  -5.372  25.071  0.00  0.00    -0.016 A 
ATOM     55  C   UNL     1       3.817  -5.606  26.007  0.00  0.00    +0.009 A 
ATOM     56  C   UNL     1       4.542  -4.562  26.652  0.00  0.00    +0.006 A 
BRANCH  54  57
ATOM     57  C   UNL     1       2.200  -6.472  24.234  0.00  0.00    +0.000 A 
ATOM     58  C   UNL     1       1.632  -6.201  22.981  0.00  0.00    +0.119 A 
ATOM     59  N   UNL     1       1.011  -7.093  22.159  0.00  0.00    -0.263 NA
ATOM     60  C   UNL     1       0.928  -8.361  22.595  0.00  0.00    +0.111 A 
ATOM     61  C   UNL     1       1.448  -8.771  23.808  0.00  0.00    +0.020 A 
ATOM     62  C   UNL     1       2.087  -7.819  24.628  0.00  0.00    +0.011 A 
ENDBRANCH  54  57
ENDBRANCH  50  51
ENDBRANCH  49  50
ENDBRANCH  35  49
ENDBRANCH   1  35
TORSDOF 21
ENDMDL
MODEL 8
REMARK VINA RESULT:      -6.1      2.566      8.721
REMARK  Name = 
REMARK  27 active torsions:
REMARK  status: ('A' for Active; 'I' for Inactive)
REMARK    1  A    between atoms: C_1  and  N_2
REMARK    2  A    between atoms: C_3  and  C_5
REMARK    3  A    between atoms: C_5  and  N_7
REMARK    4  A    between atoms: C_5  and  C_60
REMARK    5  A    between atoms: C_8  and  C_10
REMARK    6  A    between atoms: C_10  and  O_12
REMARK    7  A    between atoms: C_10  and  C_26
REMARK    8  A    between atoms: O_12  and  C_13
REMARK    9  A    between atoms: C_13  and  C_14
REMARK   10  A    between atoms: C_17  and  C_20
REMARK   11  A    between atoms: C_26  and  O_28
REMARK   12  A    between atoms: C_26  and  C_29
REMARK   13  A    between atoms: C_29  and  O_31
REMARK   14  A    between atoms: C_29  and  C_32
REMARK   15  A    between atoms: C_32  and  O_34
REMARK   16  A    between atoms: C_32  and  C_48
REMARK   17  A    between atoms: O_34  and  C_35
REMARK   18  A    between atoms: C_35  and  C_36
REMARK   19  A    between atoms: C_39  and  C_42
REMARK   20  A    between atoms: N_50  and  C_51
REMARK   21  A    between atoms: C_51  and  C_53
REMARK   22  A    between atoms: C_51  and  C_56
REMARK   23  A    between atoms: C_53  and  C_54
REMARK   24  A    between atoms: C_53  and  C_55
REMARK   25  A    between atoms: N_58  and  C_59
REMARK   26  A    between atoms: C_60  and  C_61
REMARK   27  A    between atoms: C_60  and  C_62
REMARK                            x       y       z     vdW  Elec       q    Type
REMARK                         _______ _______ _______ _____ _____    ______ ____
ROOT
ATOM      1  C   UNL     1       8.832   1.317  25.362  0.00  0.00    +0.184 C 
ENDROOT
BRANCH   1   2
ATOM      2  O   UNL     1       9.397   0.150  26.001  0.00  0.00    -0.386 OA
ATOM      3  H   UNL     1       8.686  -0.475  26.271  0.00  0.00    +0.210 HD
ENDBRANCH   1   2
BRANCH   1   4
ATOM      4  C   UNL     1       7.461   1.683  26.042  0.00  0.00    +0.184 C 
BRANCH   4   5
ATOM      5  O   UNL     1       6.661   2.561  25.231  0.00  0.00    -0.386 OA
ATOM      6  H   UNL     1       6.048   3.067  25.814  0.00  0.00    +0.210 HD
ENDBRANCH   4   5
BRANCH   4   7
ATOM      7  C   UNL     1       6.495   0.505  26.572  0.00  0.00    +0.235 C 
BRANCH   7   8
ATOM      8  C   UNL     1       5.800   0.783  27.974  0.00  0.00    +0.245 C 
ATOM      9  N   UNL     1       4.450   0.402  28.078  0.00  0.00    -0.302 N 
ATOM     10  H   UNL     1       3.934   0.306  27.209  0.00  0.00    +0.150 HD
ATOM     11  O   UNL     1       6.411   1.291  28.918  0.00  0.00    -0.273 OA
BRANCH   9  12
ATOM     12  C   UNL     1       3.616   0.536  29.308  0.00  0.00    +0.161 C 
BRANCH  12  13
ATOM     13  C   UNL     1       2.614   1.740  29.241  0.00  0.00    +0.233 C 
ATOM     14  N   UNL     1       2.902   2.700  28.280  0.00  0.00    -0.317 N 
ATOM     15  H   UNL     1       3.524   2.454  27.520  0.00  0.00    +0.148 HD
ATOM     16  C   UNL     1       2.081   3.883  28.109  0.00  0.00    +0.128 C 
ATOM     17  O   UNL     1       1.693   1.872  30.047  0.00  0.00    -0.274 OA
ENDBRANCH  12  13
BRANCH  12  18
ATOM     18  C   UNL     1       2.815  -0.765  29.654  0.00  0.00    +0.012 C 
ATOM     19  C   UNL     1       3.737  -1.950  29.956  0.00  0.00    +0.009 C 
ATOM     20  C   UNL     1       1.772  -1.190  28.607  0.00  0.00    +0.009 C 
ENDBRANCH  12  18
ENDBRANCH   9  12
ENDBRANCH   7   8
BRANCH   7  21
ATOM     21  O   UNL     1       5.472   0.060  25.653  0.00  0.00    -0.360 OA
BRANCH  21  22
ATOM     22  C   UNL     1       5.665  -1.223  25.038  0.00  0.00    +0.196 C 
BRANCH  22  23
ATOM     23  C   UNL     1       5.126  -2.383  25.902  0.00  0.00    -0.022 A 
ATOM     24  C   UNL     1       5.954  -3.156  26.725  0.00  0.00    +0.006 A 
ATOM     25  C   UNL     1       5.447  -4.252  27.474  0.00  0.00    +0.009 A 
ATOM     26  C   UNL     1       4.089  -4.642  27.427  0.00  0.00    -0.016 A 
ATOM     27  C   UNL     1       3.288  -3.879  26.558  0.00  0.00    +0.009 A 
ATOM     28  C   UNL     1       3.791  -2.780  25.812  0.00  0.00    +0.006 A 
BRANCH  26  29
ATOM     29  C   UNL     1       3.525  -5.765  28.256  0.00  0.00    +0.000 A 
ATOM     30  C   UNL     1       4.128  -6.205  29.443  0.00  0.00    +0.119 A 
ATOM     31  N   UNL     1       3.666  -7.183  30.266  0.00  0.00    -0.263 NA
ATOM     32  C   UNL     1       2.508  -7.788  29.916  0.00  0.00    +0.111 A 
ATOM     33  C   UNL     1       1.816  -7.455  28.771  0.00  0.00    +0.020 A 
ATOM     34  C   UNL     1       2.333  -6.446  27.941  0.00  0.00    +0.011 A 
ENDBRANCH  26  29
ENDBRANCH  22  23
ENDBRANCH  21  22
ENDBRANCH   7  21
ENDBRANCH   4   7
ENDBRANCH   1   4
BRANCH   1  35
ATOM     35  C   UNL     1       8.934   1.053  23.774  0.00  0.00    +0.235 C 
BRANCH  35  38
ATOM     36  N   UNL     1       9.118   3.568  23.665  0.00  0.00    -0.302 N 
ATOM     37  H   UNL     1       8.956   3.488  24.665  0.00  0.00    +0.150 HD
ATOM     38  C   UNL     1       8.871   2.396  22.944  0.00  0.00    +0.245 C 
ATOM     39  O   UNL     1       8.604   2.449  21.736  0.00  0.00    -0.273 OA
BRANCH  36  40
ATOM     40  C   UNL     1       9.048   4.920  23.057  0.00  0.00    +0.161 C 
BRANCH  40  44
ATOM     41  C   UNL     1       5.342   5.340  23.896  0.00  0.00    +0.128 C 
ATOM     42  N   UNL     1       6.759   5.111  23.963  0.00  0.00    -0.317 N 
ATOM     43  H   UNL     1       7.110   4.416  24.615  0.00  0.00    +0.148 HD
ATOM     44  C   UNL     1       7.580   5.433  22.900  0.00  0.00    +0.233 C 
ATOM     45  O   UNL     1       7.151   5.964  21.867  0.00  0.00    -0.274 OA
ENDBRANCH  40  44
BRANCH  40  46
ATOM     46  C   UNL     1       9.935   5.982  23.764  0.00  0.00    +0.012 C 
ATOM     47  C   UNL     1      11.422   5.646  23.645  0.00  0.00    +0.009 C 
ATOM     48  C   UNL     1       9.580   6.234  25.233  0.00  0.00    +0.009 C 
ENDBRANCH  40  46
ENDBRANCH  36  40
ENDBRANCH  35  38
BRANCH  35  49
ATOM     49  O   UNL     1       9.994   0.310  23.122  0.00  0.00    -0.360 OA
BRANCH  49  50
ATOM     50  C   UNL     1      10.244  -1.087  23.272  0.00  0.00    +0.196 C 
BRANCH  50  51
ATOM     51  C   UNL     1       9.159  -2.172  23.153  0.00  0.00    -0.022 A 
ATOM     52  C   UNL     1       9.145  -3.234  24.090  0.00  0.00    +0.006 A 
ATOM     53  C   UNL     1       8.100  -4.194  24.149  0.00  0.00    +0.009 A 
ATOM     54  C   UNL     1       7.009  -4.145  23.270  0.00  0.00    -0.016 A 
ATOM     55  C   UNL     1       7.114  -3.174  22.247  0.00  0.00    +0.009 A 
ATOM     56  C   UNL     1       8.161  -2.210  22.185  0.00  0.00    +0.006 A 
BRANCH  54  57
ATOM     57  C   UNL     1       5.782  -4.989  23.448  0.00  0.00    +0.000 A 
ATOM     58  C   UNL     1       4.577  -4.653  22.815  0.00  0.00    +0.119 A 
ATOM     59  N   UNL     1       3.381  -5.293  22.948  0.00  0.00    -0.263 NA
ATOM     60  C   UNL     1       3.350  -6.351  23.776  0.00  0.00    +0.111 A 
ATOM     61  C   UNL     1       4.464  -6.797  24.462  0.00  0.00    +0.020 A 
ATOM     62  C   UNL     1       5.684  -6.111  24.294  0.00  0.00    +0.011 A 
ENDBRANCH  54  57
ENDBRANCH  50  51
ENDBRANCH  49  50
ENDBRANCH  35  49
ENDBRANCH   1  35
TORSDOF 21
ENDMDL
MODEL 9
REMARK VINA RESULT:      -6.1      3.381      9.705
REMARK  Name = 
REMARK  27 active torsions:
REMARK  status: ('A' for Active; 'I' for Inactive)
REMARK    1  A    between atoms: C_1  and  N_2
REMARK    2  A    between atoms: C_3  and  C_5
REMARK    3  A    between atoms: C_5  and  N_7
REMARK    4  A    between atoms: C_5  and  C_60
REMARK    5  A    between atoms: C_8  and  C_10
REMARK    6  A    between atoms: C_10  and  O_12
REMARK    7  A    between atoms: C_10  and  C_26
REMARK    8  A    between atoms: O_12  and  C_13
REMARK    9  A    between atoms: C_13  and  C_14
REMARK   10  A    between atoms: C_17  and  C_20
REMARK   11  A    between atoms: C_26  and  O_28
REMARK   12  A    between atoms: C_26  and  C_29
REMARK   13  A    between atoms: C_29  and  O_31
REMARK   14  A    between atoms: C_29  and  C_32
REMARK   15  A    between atoms: C_32  and  O_34
REMARK   16  A    between atoms: C_32  and  C_48
REMARK   17  A    between atoms: O_34  and  C_35
REMARK   18  A    between atoms: C_35  and  C_36
REMARK   19  A    between atoms: C_39  and  C_42
REMARK   20  A    between atoms: N_50  and  C_51
REMARK   21  A    between atoms: C_51  and  C_53
REMARK   22  A    between atoms: C_51  and  C_56
REMARK   23  A    between atoms: C_53  and  C_54
REMARK   24  A    between atoms: C_53  and  C_55
REMARK   25  A    between atoms: N_58  and  C_59
REMARK   26  A    between atoms: C_60  and  C_61
REMARK   27  A    between atoms: C_60  and  C_62
REMARK                            x       y       z     vdW  Elec       q    Type
REMARK                         _______ _______ _______ _____ _____    ______ ____
ROOT
ATOM      1  C   UNL     1       6.776   3.732  27.923  0.00  0.00    +0.184 C 
ENDROOT
BRANCH   1   2
ATOM      2  O   UNL     1       7.533   4.155  29.080  0.00  0.00    -0.386 OA
ATOM      3  H   UNL     1       7.054   3.928  29.910  0.00  0.00    +0.210 HD
ENDBRANCH   1   2
BRANCH   1   4
ATOM      4  C   UNL     1       6.882   4.821  26.793  0.00  0.00    +0.184 C 
BRANCH   4   5
ATOM      5  O   UNL     1       8.222   5.316  26.628  0.00  0.00    -0.386 OA
ATOM      6  H   UNL     1       8.392   5.470  25.670  0.00  0.00    +0.210 HD
ENDBRANCH   4   5
BRANCH   4   7
ATOM      7  C   UNL     1       6.303   4.502  25.322  0.00  0.00    +0.235 C 
BRANCH   7   8
ATOM      8  C   UNL     1       7.356   4.633  24.139  0.00  0.00    +0.245 C 
ATOM      9  N   UNL     1       8.521   3.855  24.263  0.00  0.00    -0.302 N 
ATOM     10  H   UNL     1       8.768   3.548  25.199  0.00  0.00    +0.150 HD
ATOM     11  O   UNL     1       7.158   5.364  23.164  0.00  0.00    -0.273 OA
BRANCH   9  12
ATOM     12  C   UNL     1       9.620   3.794  23.257  0.00  0.00    +0.161 C 
BRANCH  12  13
ATOM     13  C   UNL     1      10.787   4.796  23.563  0.00  0.00    +0.233 C 
ATOM     14  N   UNL     1      11.969   4.559  22.874  0.00  0.00    -0.317 N 
ATOM     15  H   UNL     1      11.940   3.981  22.044  0.00  0.00    +0.148 HD
ATOM     16  C   UNL     1      13.145   5.386  23.064  0.00  0.00    +0.128 C 
ATOM     17  O   UNL     1      10.692   5.671  24.424  0.00  0.00    -0.274 OA
ENDBRANCH  12  13
BRANCH  12  18
ATOM     18  C   UNL     1      10.224   2.359  23.088  0.00  0.00    +0.012 C 
ATOM     19  C   UNL     1       9.503   1.552  22.003  0.00  0.00    +0.009 C 
ATOM     20  C   UNL     1      10.296   1.523  24.376  0.00  0.00    +0.009 C 
ENDBRANCH  12  18
ENDBRANCH   9  12
ENDBRANCH   7   8
BRANCH   7  21
ATOM     21  O   UNL     1       5.620   3.238  25.167  0.00  0.00    -0.360 OA
BRANCH  21  22
ATOM     22  C   UNL     1       5.897   2.491  23.973  0.00  0.00    +0.196 C 
BRANCH  22  23
ATOM     23  C   UNL     1       6.447   1.080  24.270  0.00  0.00    -0.022 A 
ATOM     24  C   UNL     1       7.071   0.755  25.480  0.00  0.00    +0.006 A 
ATOM     25  C   UNL     1       7.616  -0.537  25.715  0.00  0.00    +0.009 A 
ATOM     26  C   UNL     1       7.580  -1.566  24.745  0.00  0.00    -0.016 A 
ATOM     27  C   UNL     1       6.990  -1.199  23.522  0.00  0.00    +0.009 A 
ATOM     28  C   UNL     1       6.439   0.089  23.287  0.00  0.00    +0.006 A 
BRANCH  26  29
ATOM     29  C   UNL     1       8.104  -2.954  24.998  0.00  0.00    +0.000 A 
ATOM     30  C   UNL     1       8.261  -3.900  23.975  0.00  0.00    +0.119 A 
ATOM     31  N   UNL     1       8.760  -5.158  24.112  0.00  0.00    -0.263 NA
ATOM     32  C   UNL     1       9.150  -5.535  25.350  0.00  0.00    +0.111 A 
ATOM     33  C   UNL     1       9.044  -4.704  26.445  0.00  0.00    +0.020 A 
ATOM     34  C   UNL     1       8.514  -3.416  26.264  0.00  0.00    +0.011 A 
ENDBRANCH  26  29
ENDBRANCH  22  23
ENDBRANCH  21  22
ENDBRANCH   7  21
ENDBRANCH   4   7
ENDBRANCH   1   4
BRANCH   1  35
ATOM     35  C   UNL     1       5.345   3.239  28.479  0.00  0.00    +0.235 C 
BRANCH  35  38
ATOM     36  N   UNL     1       3.285   4.124  27.319  0.00  0.00    -0.302 N 
ATOM     37  H   UNL     1       3.595   3.495  26.583  0.00  0.00    +0.150 HD
ATOM     38  C   UNL     1       4.233   4.350  28.321  0.00  0.00    +0.245 C 
ATOM     39  O   UNL     1       4.183   5.379  29.009  0.00  0.00    -0.273 OA
BRANCH  36  40
ATOM     40  C   UNL     1       2.204   5.088  26.998  0.00  0.00    +0.161 C 
BRANCH  40  44
ATOM     41  C   UNL     1       2.903   4.665  23.264  0.00  0.00    +0.128 C 
ATOM     42  N   UNL     1       2.833   4.485  24.687  0.00  0.00    -0.317 N 
ATOM     43  H   UNL     1       3.619   4.053  25.164  0.00  0.00    +0.148 HD
ATOM     44  C   UNL     1       1.994   5.266  25.459  0.00  0.00    +0.233 C 
ATOM     45  O   UNL     1       1.241   6.118  24.969  0.00  0.00    -0.274 OA
ENDBRANCH  40  44
BRANCH  40  46
ATOM     46  C   UNL     1       0.855   4.791  27.711  0.00  0.00    +0.012 C 
ATOM     47  C   UNL     1       0.648   5.695  28.927  0.00  0.00    +0.009 C 
ATOM     48  C   UNL     1       0.658   3.327  28.119  0.00  0.00    +0.009 C 
ENDBRANCH  40  46
ENDBRANCH  36  40
ENDBRANCH  35  38
BRANCH  35  49
ATOM     49  O   UNL     1       4.665   2.028  28.065  0.00  0.00    -0.360 OA
BRANCH  49  50
ATOM     50  C   UNL     1       4.829   0.739  28.656  0.00  0.00    +0.196 C 
BRANCH  50  51
ATOM     51  C   UNL     1       4.677  -0.585  27.885  0.00  0.00    -0.022 A 
ATOM     52  C   UNL     1       3.975  -0.585  26.654  0.00  0.00    +0.006 A 
ATOM     53  C   UNL     1       3.912  -1.721  25.805  0.00  0.00    +0.009 A 
ATOM     54  C   UNL     1       4.549  -2.924  26.142  0.00  0.00    -0.016 A 
ATOM     55  C   UNL     1       5.114  -2.955  27.438  0.00  0.00    +0.009 A 
ATOM     56  C   UNL     1       5.179  -1.817  28.293  0.00  0.00    +0.006 A 
BRANCH  54  57
ATOM     57  C   UNL     1       4.703  -4.062  25.176  0.00  0.00    +0.000 A 
ATOM     58  C   UNL     1       4.372  -3.909  23.823  0.00  0.00    +0.119 A 
ATOM     59  N   UNL     1       4.400  -4.876  22.863  0.00  0.00    -0.263 NA
ATOM     60  C   UNL     1       4.778  -6.105  23.254  0.00  0.00    +0.111 A 
ATOM     61  C   UNL     1       5.136  -6.398  24.556  0.00  0.00    +0.020 A 
ATOM     62  C   UNL     1       5.099  -5.369  25.519  0.00  0.00    +0.011 A 
ENDBRANCH  54  57
ENDBRANCH  50  51
ENDBRANCH  49  50
ENDBRANCH  35  49
ENDBRANCH   1  35
TORSDOF 21
ENDMDL
