MODEL 1
REMARK VINA RESULT:      -5.3      0.000      0.000
REMARK  Name = 
REMARK  8 active torsions:
REMARK  status: ('A' for Active; 'I' for Inactive)
REMARK    1  A    between atoms: C_1  and  C_2
REMARK    2  A    between atoms: C_2  and  C_3
REMARK    3  A    between atoms: C_3  and  N_4
REMARK    4  A    between atoms: N_4  and  C_5
REMARK    5  A    between atoms: C_5  and  C_6
REMARK    6  A    between atoms: C_5  and  C_7
REMARK    7  A    between atoms: N_9  and  C_10
REMARK    8  A    between atoms: C_15  and  C_16
REMARK                            x       y       z     vdW  Elec       q    Type
REMARK                         _______ _______ _______ _____ _____    ______ ____
ROOT
ATOM      1  C   UNL     1       9.620  -1.505  23.746  0.00  0.00    +0.234 C 
ATOM      2  N   UNL     1       8.405  -2.105  24.050  0.00  0.00    -0.284 N 
ATOM      3  H   UNL     1       7.875  -1.624  24.772  0.00  0.00    +0.155 HD
ATOM      4  O   UNL     1      10.353  -1.765  22.795  0.00  0.00    -0.274 OA
ENDROOT
BRANCH   2   5
ATOM      5  C   UNL     1       7.787  -3.179  23.365  0.00  0.00    +0.036 A 
ATOM      6  C   UNL     1       8.051  -4.512  23.747  0.00  0.00    -0.029 A 
ATOM      7  C   UNL     1       8.994  -4.888  24.857  0.00  0.00    +0.045 C 
ATOM      8  C   UNL     1       7.432  -5.567  23.042  0.00  0.00    +0.005 A 
ATOM      9  C   UNL     1       6.552  -5.313  21.991  0.00  0.00    +0.000 A 
ATOM     10  C   UNL     1       6.298  -4.002  21.615  0.00  0.00    +0.002 A 
ATOM     11  C   UNL     1       6.918  -2.950  22.288  0.00  0.00    +0.023 A 
ENDBRANCH   2   5
BRANCH   1  12
ATOM     12  C   UNL     1      10.029  -0.410  24.757  0.00  0.00    +0.138 C 
ATOM     13  C   UNL     1       8.766   0.225  25.334  0.00  0.00    +0.034 C 
BRANCH  12  14
ATOM     14  N   UNL     1      10.917   0.562  24.074  0.00  0.00    -0.306 NA
ATOM     15  H   UNL     1      11.631   0.847  24.752  0.00  0.00    +0.123 HD
BRANCH  14  16
ATOM     16  C   UNL     1      10.191   1.768  23.662  0.00  0.00    +0.081 C 
BRANCH  16  18
ATOM     17  C   UNL     1       8.740   1.382  21.636  0.00  0.00    +0.005 C 
ATOM     18  C   UNL     1      10.110   1.816  22.135  0.00  0.00    +0.012 C 
ENDBRANCH  16  18
ENDBRANCH  14  16
ENDBRANCH  12  14
ENDBRANCH   1  12
TORSDOF 5
ENDMDL
MODEL 2
REMARK VINA RESULT:      -5.3      1.671      2.279
REMARK  Name = 
REMARK  8 active torsions:
REMARK  status: ('A' for Active; 'I' for Inactive)
REMARK    1  A    between atoms: C_1  and  C_2
REMARK    2  A    between atoms: C_2  and  C_3
REMARK    3  A    between atoms: C_3  and  N_4
REMARK    4  A    between atoms: N_4  and  C_5
REMARK    5  A    between atoms: C_5  and  C_6
REMARK    6  A    between atoms: C_5  and  C_7
REMARK    7  A    between atoms: N_9  and  C_10
REMARK    8  A    between atoms: C_15  and  C_16
REMARK                            x       y       z     vdW  Elec       q    Type
REMARK                         _______ _______ _______ _____ _____    ______ ____
ROOT
ATOM      1  C   UNL     1       9.326  -2.636  23.271  0.00  0.00    +0.234 C 
ATOM      2  N   UNL     1       8.161  -2.631  22.515  0.00  0.00    -0.284 N 
ATOM      3  H   UNL     1       8.166  -1.961  21.751  0.00  0.00    +0.155 HD
ATOM      4  O   UNL     1       9.653  -3.466  24.115  0.00  0.00    -0.274 OA
ENDROOT
BRANCH   2   5
ATOM      5  C   UNL     1       7.082  -3.544  22.602  0.00  0.00    +0.036 A 
ATOM      6  C   UNL     1       5.932  -3.218  23.352  0.00  0.00    -0.029 A 
ATOM      7  C   UNL     1       5.775  -1.930  24.114  0.00  0.00    +0.045 C 
ATOM      8  C   UNL     1       4.874  -4.149  23.433  0.00  0.00    +0.005 A 
ATOM      9  C   UNL     1       4.938  -5.373  22.769  0.00  0.00    +0.000 A 
ATOM     10  C   UNL     1       6.071  -5.693  22.036  0.00  0.00    +0.002 A 
ATOM     11  C   UNL     1       7.134  -4.792  21.964  0.00  0.00    +0.023 A 
ENDBRANCH   2   5
BRANCH   1  12
ATOM     12  C   UNL     1      10.255  -1.439  22.966  0.00  0.00    +0.138 C 
ATOM     13  C   UNL     1      10.256  -0.497  24.168  0.00  0.00    +0.034 C 
BRANCH  12  14
ATOM     14  N   UNL     1       9.800  -0.791  21.711  0.00  0.00    -0.306 NA
ATOM     15  H   UNL     1      10.463  -1.060  20.976  0.00  0.00    +0.123 HD
BRANCH  14  16
ATOM     16  C   UNL     1       9.822   0.672  21.814  0.00  0.00    +0.081 C 
BRANCH  16  18
ATOM     17  C   UNL     1       7.430   1.130  22.467  0.00  0.00    +0.005 C 
ATOM     18  C   UNL     1       8.472   1.234  21.364  0.00  0.00    +0.012 C 
ENDBRANCH  16  18
ENDBRANCH  14  16
ENDBRANCH  12  14
ENDBRANCH   1  12
TORSDOF 5
ENDMDL
MODEL 3
REMARK VINA RESULT:      -5.2      1.402      5.888
REMARK  Name = 
REMARK  8 active torsions:
REMARK  status: ('A' for Active; 'I' for Inactive)
REMARK    1  A    between atoms: C_1  and  C_2
REMARK    2  A    between atoms: C_2  and  C_3
REMARK    3  A    between atoms: C_3  and  N_4
REMARK    4  A    between atoms: N_4  and  C_5
REMARK    5  A    between atoms: C_5  and  C_6
REMARK    6  A    between atoms: C_5  and  C_7
REMARK    7  A    between atoms: N_9  and  C_10
REMARK    8  A    between atoms: C_15  and  C_16
REMARK                            x       y       z     vdW  Elec       q    Type
REMARK                         _______ _______ _______ _____ _____    ______ ____
ROOT
ATOM      1  C   UNL     1       8.963  -2.777  23.678  0.00  0.00    +0.234 C 
ATOM      2  N   UNL     1       8.382  -1.532  23.479  0.00  0.00    -0.284 N 
ATOM      3  H   UNL     1       7.371  -1.525  23.590  0.00  0.00    +0.155 HD
ATOM      4  O   UNL     1      10.162  -3.020  23.794  0.00  0.00    -0.274 OA
ENDROOT
BRANCH   2   5
ATOM      5  C   UNL     1       9.048  -0.295  23.309  0.00  0.00    +0.036 A 
ATOM      6  C   UNL     1       9.510   0.425  24.432  0.00  0.00    -0.029 A 
ATOM      7  C   UNL     1       9.316  -0.035  25.851  0.00  0.00    +0.045 C 
ATOM      8  C   UNL     1      10.162   1.662  24.238  0.00  0.00    +0.005 A 
ATOM      9  C   UNL     1      10.374   2.172  22.958  0.00  0.00    +0.000 A 
ATOM     10  C   UNL     1       9.917   1.465  21.857  0.00  0.00    +0.002 A 
ATOM     11  C   UNL     1       9.252   0.251  22.033  0.00  0.00    +0.023 A 
ENDBRANCH   2   5
BRANCH   1  12
ATOM     12  C   UNL     1       7.934  -3.928  23.744  0.00  0.00    +0.138 C 
ATOM     13  C   UNL     1       8.561  -5.109  24.480  0.00  0.00    +0.034 C 
BRANCH  12  14
ATOM     14  N   UNL     1       7.499  -4.258  22.364  0.00  0.00    -0.306 NA
ATOM     15  H   UNL     1       6.576  -3.833  22.230  0.00  0.00    +0.123 HD
BRANCH  14  16
ATOM     16  C   UNL     1       7.354  -5.705  22.170  0.00  0.00    +0.081 C 
BRANCH  16  18
ATOM     17  C   UNL     1       4.877  -5.740  22.642  0.00  0.00    +0.005 C 
ATOM     18  C   UNL     1       5.962  -6.005  21.610  0.00  0.00    +0.012 C 
ENDBRANCH  16  18
ENDBRANCH  14  16
ENDBRANCH  12  14
ENDBRANCH   1  12
TORSDOF 5
ENDMDL
MODEL 4
REMARK VINA RESULT:      -5.2      1.723      5.670
REMARK  Name = 
REMARK  8 active torsions:
REMARK  status: ('A' for Active; 'I' for Inactive)
REMARK    1  A    between atoms: C_1  and  C_2
REMARK    2  A    between atoms: C_2  and  C_3
REMARK    3  A    between atoms: C_3  and  N_4
REMARK    4  A    between atoms: N_4  and  C_5
REMARK    5  A    between atoms: C_5  and  C_6
REMARK    6  A    between atoms: C_5  and  C_7
REMARK    7  A    between atoms: N_9  and  C_10
REMARK    8  A    between atoms: C_15  and  C_16
REMARK                            x       y       z     vdW  Elec       q    Type
REMARK                         _______ _______ _______ _____ _____    ______ ____
ROOT
ATOM      1  C   UNL     1       7.457  -2.693  22.529  0.00  0.00    +0.234 C 
ATOM      2  N   UNL     1       8.775  -2.256  22.569  0.00  0.00    -0.284 N 
ATOM      3  H   UNL     1       9.452  -2.960  22.287  0.00  0.00    +0.155 HD
ATOM      4  O   UNL     1       6.448  -1.999  22.631  0.00  0.00    -0.274 OA
ENDROOT
BRANCH   2   5
ATOM      5  C   UNL     1       9.232  -0.935  22.793  0.00  0.00    +0.036 A 
ATOM      6  C   UNL     1       9.402  -0.455  24.109  0.00  0.00    -0.029 A 
ATOM      7  C   UNL     1       9.100  -1.270  25.337  0.00  0.00    +0.045 C 
ATOM      8  C   UNL     1       9.848   0.870  24.308  0.00  0.00    +0.005 A 
ATOM      9  C   UNL     1      10.141   1.702  23.228  0.00  0.00    +0.000 A 
ATOM     10  C   UNL     1       9.969   1.229  21.936  0.00  0.00    +0.002 A 
ATOM     11  C   UNL     1       9.509  -0.071  21.723  0.00  0.00    +0.023 A 
ENDBRANCH   2   5
BRANCH   1  12
ATOM     12  C   UNL     1       7.326  -4.221  22.342  0.00  0.00    +0.138 C 
ATOM     13  C   UNL     1       5.845  -4.588  22.305  0.00  0.00    +0.034 C 
BRANCH  12  14
ATOM     14  N   UNL     1       8.074  -4.900  23.430  0.00  0.00    -0.306 NA
ATOM     15  H   UNL     1       8.222  -5.870  23.133  0.00  0.00    +0.123 HD
BRANCH  14  16
ATOM     16  C   UNL     1       7.308  -4.931  24.681  0.00  0.00    +0.081 C 
BRANCH  16  18
ATOM     17  C   UNL     1       9.722  -5.007  25.405  0.00  0.00    +0.005 C 
ATOM     18  C   UNL     1       8.272  -5.025  25.865  0.00  0.00    +0.012 C 
ENDBRANCH  16  18
ENDBRANCH  14  16
ENDBRANCH  12  14
ENDBRANCH   1  12
TORSDOF 5
ENDMDL
MODEL 5
REMARK VINA RESULT:      -5.1      2.123      6.055
REMARK  Name = 
REMARK  8 active torsions:
REMARK  status: ('A' for Active; 'I' for Inactive)
REMARK    1  A    between atoms: C_1  and  C_2
REMARK    2  A    between atoms: C_2  and  C_3
REMARK    3  A    between atoms: C_3  and  N_4
REMARK    4  A    between atoms: N_4  and  C_5
REMARK    5  A    between atoms: C_5  and  C_6
REMARK    6  A    between atoms: C_5  and  C_7
REMARK    7  A    between atoms: N_9  and  C_10
REMARK    8  A    between atoms: C_15  and  C_16
REMARK                            x       y       z     vdW  Elec       q    Type
REMARK                         _______ _______ _______ _____ _____    ______ ____
ROOT
ATOM      1  C   UNL     1       8.847  -2.430  24.603  0.00  0.00    +0.234 C 
ATOM      2  N   UNL     1       9.973  -1.786  24.108  0.00  0.00    -0.284 N 
ATOM      3  H   UNL     1      10.762  -2.405  23.937  0.00  0.00    +0.155 HD
ATOM      4  O   UNL     1       7.718  -1.959  24.711  0.00  0.00    -0.274 OA
ENDROOT
BRANCH   2   5
ATOM      5  C   UNL     1      10.070  -0.440  23.683  0.00  0.00    +0.036 A 
ATOM      6  C   UNL     1       9.771  -0.093  22.347  0.00  0.00    -0.029 A 
ATOM      7  C   UNL     1       9.364  -1.093  21.300  0.00  0.00    +0.045 C 
ATOM      8  C   UNL     1       9.885   1.255  21.942  0.00  0.00    +0.005 A 
ATOM      9  C   UNL     1      10.269   2.248  22.843  0.00  0.00    +0.000 A 
ATOM     10  C   UNL     1      10.565   1.904  24.153  0.00  0.00    +0.002 A 
ATOM     11  C   UNL     1      10.478   0.574  24.563  0.00  0.00    +0.023 A 
ENDBRANCH   2   5
BRANCH   1  12
ATOM     12  C   UNL     1       9.122  -3.884  25.049  0.00  0.00    +0.138 C 
ATOM     13  C   UNL     1       8.330  -4.833  24.154  0.00  0.00    +0.034 C 
BRANCH  12  14
ATOM     14  N   UNL     1       8.783  -4.013  26.488  0.00  0.00    -0.306 NA
ATOM     15  H   UNL     1       9.663  -4.167  26.992  0.00  0.00    +0.123 HD
BRANCH  14  16
ATOM     16  C   UNL     1       7.917  -5.169  26.743  0.00  0.00    +0.081 C 
BRANCH  16  18
ATOM     17  C   UNL     1       5.417  -4.939  26.515  0.00  0.00    +0.005 C 
ATOM     18  C   UNL     1       6.623  -4.698  27.409  0.00  0.00    +0.012 C 
ENDBRANCH  16  18
ENDBRANCH  14  16
ENDBRANCH  12  14
ENDBRANCH   1  12
TORSDOF 5
ENDMDL
MODEL 6
REMARK VINA RESULT:      -5.1      1.737      2.134
REMARK  Name = 
REMARK  8 active torsions:
REMARK  status: ('A' for Active; 'I' for Inactive)
REMARK    1  A    between atoms: C_1  and  C_2
REMARK    2  A    between atoms: C_2  and  C_3
REMARK    3  A    between atoms: C_3  and  N_4
REMARK    4  A    between atoms: N_4  and  C_5
REMARK    5  A    between atoms: C_5  and  C_6
REMARK    6  A    between atoms: C_5  and  C_7
REMARK    7  A    between atoms: N_9  and  C_10
REMARK    8  A    between atoms: C_15  and  C_16
REMARK                            x       y       z     vdW  Elec       q    Type
REMARK                         _______ _______ _______ _____ _____    ______ ____
ROOT
ATOM      1  C   UNL     1       8.355  -2.182  22.806  0.00  0.00    +0.234 C 
ATOM      2  N   UNL     1       8.417  -3.528  23.141  0.00  0.00    -0.284 N 
ATOM      3  H   UNL     1       9.336  -3.835  23.450  0.00  0.00    +0.155 HD
ATOM      4  O   UNL     1       7.341  -1.522  22.592  0.00  0.00    -0.274 OA
ENDROOT
BRANCH   2   5
ATOM      5  C   UNL     1       7.334  -4.433  23.249  0.00  0.00    +0.036 A 
ATOM      6  C   UNL     1       6.722  -4.665  24.500  0.00  0.00    -0.029 A 
ATOM      7  C   UNL     1       7.171  -4.012  25.778  0.00  0.00    +0.045 C 
ATOM      8  C   UNL     1       5.651  -5.580  24.584  0.00  0.00    +0.005 A 
ATOM      9  C   UNL     1       5.176  -6.241  23.453  0.00  0.00    +0.000 A 
ATOM     10  C   UNL     1       5.781  -6.015  22.225  0.00  0.00    +0.002 A 
ATOM     11  C   UNL     1       6.855  -5.129  22.129  0.00  0.00    +0.023 A 
ENDBRANCH   2   5
BRANCH   1  12
ATOM     12  C   UNL     1       9.745  -1.514  22.703  0.00  0.00    +0.138 C 
ATOM     13  C   UNL     1      10.025  -0.757  23.999  0.00  0.00    +0.034 C 
BRANCH  12  14
ATOM     14  N   UNL     1       9.770  -0.648  21.498  0.00  0.00    -0.306 NA
ATOM     15  H   UNL     1      10.618  -0.886  20.974  0.00  0.00    +0.123 HD
BRANCH  14  16
ATOM     16  C   UNL     1       9.849   0.774  21.850  0.00  0.00    +0.081 C 
BRANCH  16  18
ATOM     17  C   UNL     1       8.189   2.618  22.296  0.00  0.00    +0.005 C 
ATOM     18  C   UNL     1       8.591   1.490  21.358  0.00  0.00    +0.012 C 
ENDBRANCH  16  18
ENDBRANCH  14  16
ENDBRANCH  12  14
ENDBRANCH   1  12
TORSDOF 5
ENDMDL
MODEL 7
REMARK VINA RESULT:      -5.0      1.741      5.756
REMARK  Name = 
REMARK  8 active torsions:
REMARK  status: ('A' for Active; 'I' for Inactive)
REMARK    1  A    between atoms: C_1  and  C_2
REMARK    2  A    between atoms: C_2  and  C_3
REMARK    3  A    between atoms: C_3  and  N_4
REMARK    4  A    between atoms: N_4  and  C_5
REMARK    5  A    between atoms: C_5  and  C_6
REMARK    6  A    between atoms: C_5  and  C_7
REMARK    7  A    between atoms: N_9  and  C_10
REMARK    8  A    between atoms: C_15  and  C_16
REMARK                            x       y       z     vdW  Elec       q    Type
REMARK                         _______ _______ _______ _____ _____    ______ ____
ROOT
ATOM      1  C   UNL     1       8.324  -2.695  25.116  0.00  0.00    +0.234 C 
ATOM      2  N   UNL     1       9.471  -2.275  24.454  0.00  0.00    -0.284 N 
ATOM      3  H   UNL     1      10.086  -3.033  24.172  0.00  0.00    +0.155 HD
ATOM      4  O   UNL     1       7.339  -2.013  25.388  0.00  0.00    -0.274 OA
ENDROOT
BRANCH   2   5
ATOM      5  C   UNL     1       9.769  -0.964  24.009  0.00  0.00    +0.036 A 
ATOM      6  C   UNL     1       9.589  -0.616  22.653  0.00  0.00    -0.029 A 
ATOM      7  C   UNL     1       9.108  -1.581  21.604  0.00  0.00    +0.045 C 
ATOM      8  C   UNL     1       9.904   0.693  22.230  0.00  0.00    +0.005 A 
ATOM      9  C   UNL     1      10.369   1.650  23.131  0.00  0.00    +0.000 A 
ATOM     10  C   UNL     1      10.547   1.305  24.462  0.00  0.00    +0.002 A 
ATOM     11  C   UNL     1      10.261   0.009  24.891  0.00  0.00    +0.023 A 
ENDBRANCH   2   5
BRANCH   1  12
ATOM     12  C   UNL     1       8.368  -4.184  25.527  0.00  0.00    +0.138 C 
ATOM     13  C   UNL     1       9.754  -4.741  25.213  0.00  0.00    +0.034 C 
BRANCH  12  14
ATOM     14  N   UNL     1       7.273  -4.903  24.829  0.00  0.00    -0.306 NA
ATOM     15  H   UNL     1       7.319  -5.882  25.128  0.00  0.00    +0.123 HD
BRANCH  14  16
ATOM     16  C   UNL     1       7.442  -4.874  23.372  0.00  0.00    +0.081 C 
BRANCH  16  18
ATOM     17  C   UNL     1       6.539  -5.796  21.207  0.00  0.00    +0.005 C 
ATOM     18  C   UNL     1       6.395  -5.779  22.721  0.00  0.00    +0.012 C 
ENDBRANCH  16  18
ENDBRANCH  14  16
ENDBRANCH  12  14
ENDBRANCH   1  12
TORSDOF 5
ENDMDL
MODEL 8
REMARK VINA RESULT:      -5.0      1.703      5.961
REMARK  Name = 
REMARK  8 active torsions:
REMARK  status: ('A' for Active; 'I' for Inactive)
REMARK    1  A    between atoms: C_1  and  C_2
REMARK    2  A    between atoms: C_2  and  C_3
REMARK    3  A    between atoms: C_3  and  N_4
REMARK    4  A    between atoms: N_4  and  C_5
REMARK    5  A    between atoms: C_5  and  C_6
REMARK    6  A    between atoms: C_5  and  C_7
REMARK    7  A    between atoms: N_9  and  C_10
REMARK    8  A    between atoms: C_15  and  C_16
REMARK                            x       y       z     vdW  Elec       q    Type
REMARK                         _______ _______ _______ _____ _____    ______ ____
ROOT
ATOM      1  C   UNL     1       7.409  -2.208  22.899  0.00  0.00    +0.234 C 
ATOM      2  N   UNL     1       8.744  -1.876  22.709  0.00  0.00    -0.284 N 
ATOM      3  H   UNL     1       9.231  -2.483  22.055  0.00  0.00    +0.155 HD
ATOM      4  O   UNL     1       6.558  -1.534  23.476  0.00  0.00    -0.274 OA
ENDROOT
BRANCH   2   5
ATOM      5  C   UNL     1       9.415  -0.725  23.187  0.00  0.00    +0.036 A 
ATOM      6  C   UNL     1       9.508   0.431  22.382  0.00  0.00    -0.029 A 
ATOM      7  C   UNL     1       8.942   0.522  20.992  0.00  0.00    +0.045 C 
ATOM      8  C   UNL     1      10.192   1.562  22.877  0.00  0.00    +0.005 A 
ATOM      9  C   UNL     1      10.759   1.563  24.150  0.00  0.00    +0.000 A 
ATOM     10  C   UNL     1      10.670   0.425  24.938  0.00  0.00    +0.002 A 
ATOM     11  C   UNL     1      10.015  -0.708  24.455  0.00  0.00    +0.023 A 
ENDBRANCH   2   5
BRANCH   1  12
ATOM     12  C   UNL     1       7.031  -3.582  22.304  0.00  0.00    +0.138 C 
ATOM     13  C   UNL     1       5.510  -3.719  22.305  0.00  0.00    +0.034 C 
BRANCH  12  14
ATOM     14  N   UNL     1       7.717  -4.644  23.081  0.00  0.00    -0.306 NA
ATOM     15  H   UNL     1       7.753  -5.477  22.486  0.00  0.00    +0.123 HD
BRANCH  14  16
ATOM     16  C   UNL     1       6.975  -4.997  24.296  0.00  0.00    +0.081 C 
BRANCH  16  18
ATOM     17  C   UNL     1       9.346  -4.861  25.140  0.00  0.00    +0.005 C 
ATOM     18  C   UNL     1       7.874  -4.800  25.517  0.00  0.00    +0.012 C 
ENDBRANCH  16  18
ENDBRANCH  14  16
ENDBRANCH  12  14
ENDBRANCH   1  12
TORSDOF 5
ENDMDL
MODEL 9
REMARK VINA RESULT:      -5.0      1.706      5.643
REMARK  Name = 
REMARK  8 active torsions:
REMARK  status: ('A' for Active; 'I' for Inactive)
REMARK    1  A    between atoms: C_1  and  C_2
REMARK    2  A    between atoms: C_2  and  C_3
REMARK    3  A    between atoms: C_3  and  N_4
REMARK    4  A    between atoms: N_4  and  C_5
REMARK    5  A    between atoms: C_5  and  C_6
REMARK    6  A    between atoms: C_5  and  C_7
REMARK    7  A    between atoms: N_9  and  C_10
REMARK    8  A    between atoms: C_15  and  C_16
REMARK                            x       y       z     vdW  Elec       q    Type
REMARK                         _______ _______ _______ _____ _____    ______ ____
ROOT
ATOM      1  C   UNL     1       9.007  -2.831  23.532  0.00  0.00    +0.234 C 
ATOM      2  N   UNL     1       8.405  -1.607  23.271  0.00  0.00    -0.284 N 
ATOM      3  H   UNL     1       7.390  -1.648  23.221  0.00  0.00    +0.155 HD
ATOM      4  O   UNL     1      10.183  -3.024  23.830  0.00  0.00    -0.274 OA
ENDROOT
BRANCH   2   5
ATOM      5  C   UNL     1       9.030  -0.337  23.236  0.00  0.00    +0.036 A 
ATOM      6  C   UNL     1       9.293   0.360  24.435  0.00  0.00    -0.029 A 
ATOM      7  C   UNL     1       8.921  -0.160  25.797  0.00  0.00    +0.045 C 
ATOM      8  C   UNL     1       9.907   1.629  24.375  0.00  0.00    +0.005 A 
ATOM      9  C   UNL     1      10.275   2.195  23.155  0.00  0.00    +0.000 A 
ATOM     10  C   UNL     1      10.012   1.510  21.978  0.00  0.00    +0.002 A 
ATOM     11  C   UNL     1       9.387   0.263  22.020  0.00  0.00    +0.023 A 
ENDBRANCH   2   5
BRANCH   1  12
ATOM     12  C   UNL     1       8.036  -4.026  23.409  0.00  0.00    +0.138 C 
ATOM     13  C   UNL     1       6.624  -3.494  23.174  0.00  0.00    +0.034 C 
BRANCH  12  14
ATOM     14  N   UNL     1       8.153  -4.863  24.629  0.00  0.00    -0.306 NA
ATOM     15  H   UNL     1       8.330  -5.824  24.319  0.00  0.00    +0.123 HD
BRANCH  14  16
ATOM     16  C   UNL     1       6.910  -4.870  25.408  0.00  0.00    +0.081 C 
BRANCH  16  18
ATOM     17  C   UNL     1       6.502  -2.822  26.820  0.00  0.00    +0.005 C 
ATOM     18  C   UNL     1       7.152  -4.195  26.759  0.00  0.00    +0.012 C 
ENDBRANCH  16  18
ENDBRANCH  14  16
ENDBRANCH  12  14
ENDBRANCH   1  12
TORSDOF 5
ENDMDL
