MODEL 1
REMARK VINA RESULT:      -7.4      0.000      0.000
REMARK  Name = 
REMARK  14 active torsions:
REMARK  status: ('A' for Active; 'I' for Inactive)
REMARK    1  A    between atoms: C_1  and  C_2
REMARK    2  A    between atoms: C_3  and  C_4
REMARK    3  A    between atoms: C_4  and  N_5
REMARK    4  A    between atoms: N_5  and  C_6
REMARK    5  A    between atoms: C_9  and  S_12
REMARK    6  A    between atoms: S_12  and  C_15
REMARK    7  A    between atoms: C_15  and  C_16
REMARK    8  A    between atoms: C_16  and  C_29
REMARK    9  A    between atoms: C_22  and  O_24
REMARK   10  A    between atoms: O_24  and  C_25
REMARK   11  A    between atoms: C_25  and  C_26
REMARK   12  A    between atoms: C_25  and  C_27
REMARK   13  A    between atoms: C_25  and  C_28
REMARK   14  A    between atoms: N_31  and  O_32
REMARK                            x       y       z     vdW  Elec       q    Type
REMARK                         _______ _______ _______ _____ _____    ______ ____
ROOT
ATOM      1  C   UNL     1       6.952  -2.289  23.314  0.00  0.00    +0.071 C 
ATOM      2  C   UNL     1       7.003  -3.317  24.477  0.00  0.00    +0.037 C 
ATOM      3  C   UNL     1       7.003  -4.779  24.027  0.00  0.00    +0.112 C 
ATOM      4  N   UNL     1       5.914  -5.030  23.092  0.00  0.00    -0.267 N 
ATOM      5  C   UNL     1       4.989  -6.058  23.192  0.00  0.00    +0.403 C 
ATOM      6  O   UNL     1       4.155  -6.266  22.318  0.00  0.00    -0.226 OA
ATOM      7  C   UNL     1       5.846  -4.160  21.932  0.00  0.00    +0.112 C 
ATOM      8  C   UNL     1       5.777  -2.704  22.372  0.00  0.00    +0.037 C 
ENDROOT
BRANCH   1   9
ATOM      9  C   UNL     1       6.575  -0.891  23.846  0.00  0.00    +0.243 C 
ATOM     10  N   UNL     1       6.279   0.081  22.916  0.00  0.00    -0.197 N 
ATOM     11  H   UNL     1       5.756  -0.148  22.073  0.00  0.00    +0.182 HD
ATOM     12  O   UNL     1       6.525  -0.637  25.052  0.00  0.00    -0.273 OA
BRANCH  10  13
ATOM     13  O   UNL     1       5.934   1.337  23.481  0.00  0.00    -0.295 OA
ATOM     14  H   UNL     1       5.533   1.812  22.721  0.00  0.00    +0.241 HD
ENDBRANCH  10  13
ENDBRANCH   1   9
BRANCH   1  15
ATOM     15  C   UNL     1       8.229  -2.216  22.441  0.00  0.00    +0.188 C 
BRANCH  15  16
ATOM     16  S   UNL     1       9.723  -1.723  23.259  0.00  0.00    -0.002 S 
ATOM     17  O   UNL     1       9.653  -2.143  24.642  0.00  0.00    -0.169 OA
ATOM     18  O   UNL     1      10.833  -2.130  22.419  0.00  0.00    -0.169 OA
BRANCH  16  22
ATOM     19  C   UNL     1       9.403   2.841  23.188  0.00  0.00    +0.028 A 
ATOM     20  C   UNL     1       9.485   2.157  24.409  0.00  0.00    +0.025 A 
ATOM     21  C   UNL     1       9.603   0.766  24.445  0.00  0.00    +0.029 A 
ATOM     22  C   UNL     1       9.665   0.051  23.248  0.00  0.00    +0.088 A 
ATOM     23  C   UNL     1       9.658   0.717  22.025  0.00  0.00    +0.029 A 
ATOM     24  C   UNL     1       9.565   2.107  22.005  0.00  0.00    +0.025 A 
BRANCH  19  25
ATOM     25  N   UNL     1       9.248   4.235  23.187  0.00  0.00    -0.333 N 
ATOM     26  H   UNL     1       9.259   4.619  22.244  0.00  0.00    +0.147 HD
BRANCH  25  27
ATOM     27  C   UNL     1      10.141   4.967  24.076  0.00  0.00    +0.191 C 
BRANCH  27  30
ATOM     28  C   UNL     1      13.844   5.875  21.994  0.00  0.00    +0.106 C 
ATOM     29  C   UNL     1      12.548   5.558  22.722  0.00  0.00    -0.104 C 
ATOM     30  C   UNL     1      11.437   5.285  23.347  0.00  0.00    -0.084 C 
ENDBRANCH  27  30
ENDBRANCH  25  27
ENDBRANCH  19  25
ENDBRANCH  16  22
ENDBRANCH  15  16
ENDBRANCH   1  15
BRANCH   5  31
ATOM     31  O   UNL     1       5.077  -6.780  24.345  0.00  0.00    -0.445 OA
BRANCH  31  32
ATOM     32  C   UNL     1       4.051  -6.593  25.363  0.00  0.00    +0.107 C 
ATOM     33  C   UNL     1       3.479  -5.167  25.321  0.00  0.00    +0.055 C 
ATOM     34  C   UNL     1       4.747  -6.773  26.722  0.00  0.00    +0.055 C 
ATOM     35  C   UNL     1       2.951  -7.661  25.252  0.00  0.00    +0.055 C 
ENDBRANCH  31  32
ENDBRANCH   5  31
TORSDOF 10
ENDMDL
MODEL 2
REMARK VINA RESULT:      -7.3      2.332      3.693
REMARK  Name = 
REMARK  14 active torsions:
REMARK  status: ('A' for Active; 'I' for Inactive)
REMARK    1  A    between atoms: C_1  and  C_2
REMARK    2  A    between atoms: C_3  and  C_4
REMARK    3  A    between atoms: C_4  and  N_5
REMARK    4  A    between atoms: N_5  and  C_6
REMARK    5  A    between atoms: C_9  and  S_12
REMARK    6  A    between atoms: S_12  and  C_15
REMARK    7  A    between atoms: C_15  and  C_16
REMARK    8  A    between atoms: C_16  and  C_29
REMARK    9  A    between atoms: C_22  and  O_24
REMARK   10  A    between atoms: O_24  and  C_25
REMARK   11  A    between atoms: C_25  and  C_26
REMARK   12  A    between atoms: C_25  and  C_27
REMARK   13  A    between atoms: C_25  and  C_28
REMARK   14  A    between atoms: N_31  and  O_32
REMARK                            x       y       z     vdW  Elec       q    Type
REMARK                         _______ _______ _______ _____ _____    ______ ____
ROOT
ATOM      1  C   UNL     1       7.382  -3.628  24.659  0.00  0.00    +0.071 C 
ATOM      2  C   UNL     1       6.280  -3.988  23.625  0.00  0.00    +0.037 C 
ATOM      3  C   UNL     1       4.974  -3.209  23.798  0.00  0.00    +0.112 C 
ATOM      4  N   UNL     1       4.509  -3.283  25.176  0.00  0.00    -0.267 N 
ATOM      5  C   UNL     1       3.231  -3.642  25.576  0.00  0.00    +0.403 C 
ATOM      6  O   UNL     1       2.880  -3.592  26.749  0.00  0.00    -0.226 OA
ATOM      7  C   UNL     1       5.457  -2.883  26.201  0.00  0.00    +0.112 C 
ATOM      8  C   UNL     1       6.735  -3.702  26.079  0.00  0.00    +0.037 C 
ENDROOT
BRANCH   1   9
ATOM      9  C   UNL     1       8.492  -4.699  24.659  0.00  0.00    +0.243 C 
ATOM     10  N   UNL     1       9.395  -4.675  25.699  0.00  0.00    -0.197 N 
ATOM     11  H   UNL     1       9.091  -4.456  26.646  0.00  0.00    +0.182 HD
ATOM     12  O   UNL     1       8.578  -5.558  23.778  0.00  0.00    -0.273 OA
BRANCH  10  13
ATOM     13  O   UNL     1      10.381  -5.695  25.634  0.00  0.00    -0.295 OA
ATOM     14  H   UNL     1      11.067  -5.294  25.059  0.00  0.00    +0.241 HD
ENDBRANCH  10  13
ENDBRANCH   1   9
BRANCH   1  15
ATOM     15  C   UNL     1       7.988  -2.211  24.510  0.00  0.00    +0.188 C 
BRANCH  15  16
ATOM     16  S   UNL     1       9.155  -1.981  23.194  0.00  0.00    -0.002 S 
ATOM     17  O   UNL     1      10.396  -2.633  23.556  0.00  0.00    -0.169 OA
ATOM     18  O   UNL     1       8.481  -2.315  21.953  0.00  0.00    -0.169 OA
BRANCH  16  22
ATOM     19  C   UNL     1      10.121   2.491  23.219  0.00  0.00    +0.028 A 
ATOM     20  C   UNL     1      10.009   1.799  22.005  0.00  0.00    +0.025 A 
ATOM     21  C   UNL     1       9.695   0.438  21.982  0.00  0.00    +0.029 A 
ATOM     22  C   UNL     1       9.466  -0.234  23.183  0.00  0.00    +0.088 A 
ATOM     23  C   UNL     1       9.501   0.452  24.395  0.00  0.00    +0.029 A 
ATOM     24  C   UNL     1       9.791   1.814  24.400  0.00  0.00    +0.025 A 
BRANCH  19  25
ATOM     25  N   UNL     1      10.474   3.849  23.210  0.00  0.00    -0.333 N 
ATOM     26  H   UNL     1      11.476   3.984  23.329  0.00  0.00    +0.147 HD
BRANCH  25  27
ATOM     27  C   UNL     1       9.705   4.703  24.106  0.00  0.00    +0.191 C 
BRANCH  27  30
ATOM     28  C   UNL     1       6.816   6.996  21.812  0.00  0.00    +0.106 C 
ATOM     29  C   UNL     1       7.827   6.193  22.615  0.00  0.00    -0.104 C 
ATOM     30  C   UNL     1       8.694   5.505  23.303  0.00  0.00    -0.084 C 
ENDBRANCH  27  30
ENDBRANCH  25  27
ENDBRANCH  19  25
ENDBRANCH  16  22
ENDBRANCH  15  16
ENDBRANCH   1  15
BRANCH   5  31
ATOM     31  O   UNL     1       2.427  -4.072  24.562  0.00  0.00    -0.445 OA
BRANCH  31  32
ATOM     32  C   UNL     1       2.086  -5.487  24.498  0.00  0.00    +0.107 C 
ATOM     33  C   UNL     1       3.286  -6.367  24.880  0.00  0.00    +0.055 C 
ATOM     34  C   UNL     1       1.741  -5.788  23.031  0.00  0.00    +0.055 C 
ATOM     35  C   UNL     1       0.844  -5.802  25.348  0.00  0.00    +0.055 C 
ENDBRANCH  31  32
ENDBRANCH   5  31
TORSDOF 10
ENDMDL
MODEL 3
REMARK VINA RESULT:      -7.2      2.018      3.171
REMARK  Name = 
REMARK  14 active torsions:
REMARK  status: ('A' for Active; 'I' for Inactive)
REMARK    1  A    between atoms: C_1  and  C_2
REMARK    2  A    between atoms: C_3  and  C_4
REMARK    3  A    between atoms: C_4  and  N_5
REMARK    4  A    between atoms: N_5  and  C_6
REMARK    5  A    between atoms: C_9  and  S_12
REMARK    6  A    between atoms: S_12  and  C_15
REMARK    7  A    between atoms: C_15  and  C_16
REMARK    8  A    between atoms: C_16  and  C_29
REMARK    9  A    between atoms: C_22  and  O_24
REMARK   10  A    between atoms: O_24  and  C_25
REMARK   11  A    between atoms: C_25  and  C_26
REMARK   12  A    between atoms: C_25  and  C_27
REMARK   13  A    between atoms: C_25  and  C_28
REMARK   14  A    between atoms: N_31  and  O_32
REMARK                            x       y       z     vdW  Elec       q    Type
REMARK                         _______ _______ _______ _____ _____    ______ ____
ROOT
ATOM      1  C   UNL     1       7.219  -3.897  24.580  0.00  0.00    +0.071 C 
ATOM      2  C   UNL     1       6.216  -4.379  23.496  0.00  0.00    +0.037 C 
ATOM      3  C   UNL     1       4.818  -3.769  23.614  0.00  0.00    +0.112 C 
ATOM      4  N   UNL     1       4.306  -3.915  24.969  0.00  0.00    -0.267 N 
ATOM      5  C   UNL     1       3.065  -4.433  25.308  0.00  0.00    +0.403 C 
ATOM      6  O   UNL     1       2.659  -4.440  26.465  0.00  0.00    -0.226 OA
ATOM      7  C   UNL     1       5.151  -3.412  26.037  0.00  0.00    +0.112 C 
ATOM      8  C   UNL     1       6.524  -4.066  25.969  0.00  0.00    +0.037 C 
ENDROOT
BRANCH   1   9
ATOM      9  C   UNL     1       8.452  -4.823  24.624  0.00  0.00    +0.243 C 
ATOM     10  N   UNL     1       9.278  -4.724  25.721  0.00  0.00    -0.197 N 
ATOM     11  H   UNL     1       8.892  -4.578  26.652  0.00  0.00    +0.182 HD
ATOM     12  O   UNL     1       8.699  -5.634  23.727  0.00  0.00    -0.273 OA
BRANCH  10  13
ATOM     13  O   UNL     1      10.386  -5.613  25.695  0.00  0.00    -0.295 OA
ATOM     14  H   UNL     1      10.244  -6.158  26.499  0.00  0.00    +0.241 HD
ENDBRANCH  10  13
ENDBRANCH   1   9
BRANCH   1  15
ATOM     15  C   UNL     1       7.652  -2.415  24.467  0.00  0.00    +0.188 C 
BRANCH  15  16
ATOM     16  S   UNL     1       8.847  -2.030  23.213  0.00  0.00    -0.002 S 
ATOM     17  O   UNL     1      10.152  -2.455  23.674  0.00  0.00    -0.169 OA
ATOM     18  O   UNL     1       8.320  -2.507  21.949  0.00  0.00    -0.169 OA
BRANCH  16  22
ATOM     19  C   UNL     1       8.729   2.539  22.998  0.00  0.00    +0.028 A 
ATOM     20  C   UNL     1       8.660   1.888  24.237  0.00  0.00    +0.025 A 
ATOM     21  C   UNL     1       8.715   0.494  24.320  0.00  0.00    +0.029 A 
ATOM     22  C   UNL     1       8.865  -0.257  23.153  0.00  0.00    +0.088 A 
ATOM     23  C   UNL     1       9.009   0.374  21.920  0.00  0.00    +0.029 A 
ATOM     24  C   UNL     1       8.977   1.765  21.856  0.00  0.00    +0.025 A 
BRANCH  19  25
ATOM     25  N   UNL     1       8.635   3.938  22.946  0.00  0.00    -0.333 N 
ATOM     26  H   UNL     1       8.890   4.303  22.031  0.00  0.00    +0.147 HD
BRANCH  25  27
ATOM     27  C   UNL     1       9.313   4.653  24.020  0.00  0.00    +0.191 C 
BRANCH  27  30
ATOM     28  C   UNL     1      13.472   5.295  22.944  0.00  0.00    +0.106 C 
ATOM     29  C   UNL     1      12.017   5.070  23.320  0.00  0.00    -0.104 C 
ATOM     30  C   UNL     1      10.768   4.877  23.643  0.00  0.00    -0.084 C 
ENDBRANCH  27  30
ENDBRANCH  25  27
ENDBRANCH  19  25
ENDBRANCH  16  22
ENDBRANCH  15  16
ENDBRANCH   1  15
BRANCH   5  31
ATOM     31  O   UNL     1       2.367  -4.947  24.257  0.00  0.00    -0.445 OA
BRANCH  31  32
ATOM     32  C   UNL     1       2.188  -6.392  24.181  0.00  0.00    +0.107 C 
ATOM     33  C   UNL     1       3.491  -7.132  24.520  0.00  0.00    +0.055 C 
ATOM     34  C   UNL     1       1.841  -6.713  22.719  0.00  0.00    +0.055 C 
ATOM     35  C   UNL     1       1.014  -6.857  25.057  0.00  0.00    +0.055 C 
ENDBRANCH  31  32
ENDBRANCH   5  31
TORSDOF 10
ENDMDL
MODEL 4
REMARK VINA RESULT:      -7.1      2.269      3.618
REMARK  Name = 
REMARK  14 active torsions:
REMARK  status: ('A' for Active; 'I' for Inactive)
REMARK    1  A    between atoms: C_1  and  C_2
REMARK    2  A    between atoms: C_3  and  C_4
REMARK    3  A    between atoms: C_4  and  N_5
REMARK    4  A    between atoms: N_5  and  C_6
REMARK    5  A    between atoms: C_9  and  S_12
REMARK    6  A    between atoms: S_12  and  C_15
REMARK    7  A    between atoms: C_15  and  C_16
REMARK    8  A    between atoms: C_16  and  C_29
REMARK    9  A    between atoms: C_22  and  O_24
REMARK   10  A    between atoms: O_24  and  C_25
REMARK   11  A    between atoms: C_25  and  C_26
REMARK   12  A    between atoms: C_25  and  C_27
REMARK   13  A    between atoms: C_25  and  C_28
REMARK   14  A    between atoms: N_31  and  O_32
REMARK                            x       y       z     vdW  Elec       q    Type
REMARK                         _______ _______ _______ _____ _____    ______ ____
ROOT
ATOM      1  C   UNL     1       6.517  -3.337  24.110  0.00  0.00    +0.071 C 
ATOM      2  C   UNL     1       5.283  -3.234  25.049  0.00  0.00    +0.037 C 
ATOM      3  C   UNL     1       5.625  -3.223  26.540  0.00  0.00    +0.112 C 
ATOM      4  N   UNL     1       6.505  -4.335  26.875  0.00  0.00    -0.267 N 
ATOM      5  C   UNL     1       6.301  -5.239  27.906  0.00  0.00    +0.403 C 
ATOM      6  O   UNL     1       7.132  -6.095  28.191  0.00  0.00    -0.226 OA
ATOM      7  C   UNL     1       7.723  -4.451  26.094  0.00  0.00    +0.112 C 
ATOM      8  C   UNL     1       7.389  -4.532  24.611  0.00  0.00    +0.037 C 
ENDROOT
BRANCH   1   9
ATOM      9  C   UNL     1       6.078  -3.722  22.682  0.00  0.00    +0.243 C 
ATOM     10  N   UNL     1       6.540  -4.917  22.179  0.00  0.00    -0.197 N 
ATOM     11  H   UNL     1       6.618  -5.738  22.776  0.00  0.00    +0.182 HD
ATOM     12  O   UNL     1       5.334  -3.006  22.007  0.00  0.00    -0.273 OA
BRANCH  10  13
ATOM     13  O   UNL     1       6.088  -5.206  20.864  0.00  0.00    -0.295 OA
ATOM     14  H   UNL     1       5.180  -5.548  21.020  0.00  0.00    +0.241 HD
ENDBRANCH  10  13
ENDBRANCH   1   9
BRANCH   1  15
ATOM     15  C   UNL     1       7.431  -2.088  24.084  0.00  0.00    +0.188 C 
BRANCH  15  16
ATOM     16  S   UNL     1       8.929  -2.221  23.141  0.00  0.00    -0.002 S 
ATOM     17  O   UNL     1       9.878  -3.015  23.892  0.00  0.00    -0.169 OA
ATOM     18  O   UNL     1       8.560  -2.596  21.790  0.00  0.00    -0.169 OA
BRANCH  16  22
ATOM     19  C   UNL     1      10.396   2.111  23.015  0.00  0.00    +0.028 A 
ATOM     20  C   UNL     1      10.599   1.329  24.161  0.00  0.00    +0.025 A 
ATOM     21  C   UNL     1      10.174  -0.001  24.206  0.00  0.00    +0.029 A 
ATOM     22  C   UNL     1       9.562  -0.564  23.086  0.00  0.00    +0.088 A 
ATOM     23  C   UNL     1       9.417   0.173  21.913  0.00  0.00    +0.029 A 
ATOM     24  C   UNL     1       9.868   1.491  21.875  0.00  0.00    +0.025 A 
BRANCH  19  25
ATOM     25  N   UNL     1      10.802   3.454  23.015  0.00  0.00    -0.333 N 
ATOM     26  H   UNL     1      11.802   3.550  23.181  0.00  0.00    +0.147 HD
BRANCH  25  27
ATOM     27  C   UNL     1      10.026   4.345  23.867  0.00  0.00    +0.191 C 
BRANCH  27  30
ATOM     28  C   UNL     1       5.850   4.227  22.677  0.00  0.00    +0.106 C 
ATOM     29  C   UNL     1       7.311   4.268  23.093  0.00  0.00    -0.104 C 
ATOM     30  C   UNL     1       8.565   4.303  23.450  0.00  0.00    -0.084 C 
ENDBRANCH  27  30
ENDBRANCH  25  27
ENDBRANCH  19  25
ENDBRANCH  16  22
ENDBRANCH  15  16
ENDBRANCH   1  15
BRANCH   5  31
ATOM     31  O   UNL     1       5.102  -5.105  28.541  0.00  0.00    -0.445 OA
BRANCH  31  32
ATOM     32  C   UNL     1       4.039  -6.049  28.224  0.00  0.00    +0.107 C 
ATOM     33  C   UNL     1       4.277  -6.720  26.862  0.00  0.00    +0.055 C 
ATOM     34  C   UNL     1       2.744  -5.228  28.114  0.00  0.00    +0.055 C 
ATOM     35  C   UNL     1       3.850  -7.078  29.350  0.00  0.00    +0.055 C 
ENDBRANCH  31  32
ENDBRANCH   5  31
TORSDOF 10
ENDMDL
MODEL 5
REMARK VINA RESULT:      -6.8      1.379      2.247
REMARK  Name = 
REMARK  14 active torsions:
REMARK  status: ('A' for Active; 'I' for Inactive)
REMARK    1  A    between atoms: C_1  and  C_2
REMARK    2  A    between atoms: C_3  and  C_4
REMARK    3  A    between atoms: C_4  and  N_5
REMARK    4  A    between atoms: N_5  and  C_6
REMARK    5  A    between atoms: C_9  and  S_12
REMARK    6  A    between atoms: S_12  and  C_15
REMARK    7  A    between atoms: C_15  and  C_16
REMARK    8  A    between atoms: C_16  and  C_29
REMARK    9  A    between atoms: C_22  and  O_24
REMARK   10  A    between atoms: O_24  and  C_25
REMARK   11  A    between atoms: C_25  and  C_26
REMARK   12  A    between atoms: C_25  and  C_27
REMARK   13  A    between atoms: C_25  and  C_28
REMARK   14  A    between atoms: N_31  and  O_32
REMARK                            x       y       z     vdW  Elec       q    Type
REMARK                         _______ _______ _______ _____ _____    ______ ____
ROOT
ATOM      1  C   UNL     1       7.010  -2.213  23.263  0.00  0.00    +0.071 C 
ATOM      2  C   UNL     1       7.074  -3.228  24.437  0.00  0.00    +0.037 C 
ATOM      3  C   UNL     1       7.072  -4.696  24.002  0.00  0.00    +0.112 C 
ATOM      4  N   UNL     1       5.975  -4.958  23.081  0.00  0.00    -0.267 N 
ATOM      5  C   UNL     1       5.053  -5.987  23.201  0.00  0.00    +0.403 C 
ATOM      6  O   UNL     1       4.211  -6.207  22.337  0.00  0.00    -0.226 OA
ATOM      7  C   UNL     1       5.894  -4.101  21.912  0.00  0.00    +0.112 C 
ATOM      8  C   UNL     1       5.827  -2.641  22.337  0.00  0.00    +0.037 C 
ENDROOT
BRANCH   1   9
ATOM      9  C   UNL     1       6.635  -0.810  23.783  0.00  0.00    +0.243 C 
ATOM     10  N   UNL     1       6.305   0.145  22.847  0.00  0.00    -0.197 N 
ATOM     11  H   UNL     1       5.761  -0.101  22.022  0.00  0.00    +0.182 HD
ATOM     12  O   UNL     1       6.615  -0.538  24.986  0.00  0.00    -0.273 OA
BRANCH  10  13
ATOM     13  O   UNL     1       5.965   1.407  23.402  0.00  0.00    -0.295 OA
ATOM     14  H   UNL     1       5.800   1.955  22.604  0.00  0.00    +0.241 HD
ENDBRANCH  10  13
ENDBRANCH   1   9
BRANCH   1  15
ATOM     15  C   UNL     1       8.277  -2.147  22.377  0.00  0.00    +0.188 C 
BRANCH  15  16
ATOM     16  S   UNL     1       9.792  -1.709  23.189  0.00  0.00    -0.002 S 
ATOM     17  O   UNL     1       9.733  -2.174  24.559  0.00  0.00    -0.169 OA
ATOM     18  O   UNL     1      10.883  -2.110  22.321  0.00  0.00    -0.169 OA
BRANCH  16  22
ATOM     19  C   UNL     1       9.557   2.859  23.283  0.00  0.00    +0.028 A 
ATOM     20  C   UNL     1       9.721   2.136  24.472  0.00  0.00    +0.025 A 
ATOM     21  C   UNL     1       9.815   0.742  24.456  0.00  0.00    +0.029 A 
ATOM     22  C   UNL     1       9.768   0.065  23.237  0.00  0.00    +0.088 A 
ATOM     23  C   UNL     1       9.679   0.770  22.039  0.00  0.00    +0.029 A 
ATOM     24  C   UNL     1       9.612   2.161  22.069  0.00  0.00    +0.025 A 
BRANCH  19  25
ATOM     25  N   UNL     1       9.430   4.256  23.336  0.00  0.00    -0.333 N 
ATOM     26  H   UNL     1       9.776   4.637  24.214  0.00  0.00    +0.147 HD
BRANCH  25  27
ATOM     27  C   UNL     1       8.112   4.780  23.002  0.00  0.00    +0.191 C 
BRANCH  27  30
ATOM     28  C   UNL     1       5.493   4.436  26.451  0.00  0.00    +0.106 C 
ATOM     29  C   UNL     1       6.410   4.556  25.244  0.00  0.00    -0.104 C 
ATOM     30  C   UNL     1       7.196   4.659  24.209  0.00  0.00    -0.084 C 
ENDBRANCH  27  30
ENDBRANCH  25  27
ENDBRANCH  19  25
ENDBRANCH  16  22
ENDBRANCH  15  16
ENDBRANCH   1  15
BRANCH   5  31
ATOM     31  O   UNL     1       5.154  -6.697  24.360  0.00  0.00    -0.445 OA
BRANCH  31  32
ATOM     32  C   UNL     1       4.127  -6.515  25.378  0.00  0.00    +0.107 C 
ATOM     33  C   UNL     1       3.560  -5.087  25.348  0.00  0.00    +0.055 C 
ATOM     34  C   UNL     1       4.820  -6.709  26.737  0.00  0.00    +0.055 C 
ATOM     35  C   UNL     1       3.024  -7.578  25.256  0.00  0.00    +0.055 C 
ENDBRANCH  31  32
ENDBRANCH   5  31
TORSDOF 10
ENDMDL
MODEL 6
REMARK VINA RESULT:      -6.8      2.570      5.474
REMARK  Name = 
REMARK  14 active torsions:
REMARK  status: ('A' for Active; 'I' for Inactive)
REMARK    1  A    between atoms: C_1  and  C_2
REMARK    2  A    between atoms: C_3  and  C_4
REMARK    3  A    between atoms: C_4  and  N_5
REMARK    4  A    between atoms: N_5  and  C_6
REMARK    5  A    between atoms: C_9  and  S_12
REMARK    6  A    between atoms: S_12  and  C_15
REMARK    7  A    between atoms: C_15  and  C_16
REMARK    8  A    between atoms: C_16  and  C_29
REMARK    9  A    between atoms: C_22  and  O_24
REMARK   10  A    between atoms: O_24  and  C_25
REMARK   11  A    between atoms: C_25  and  C_26
REMARK   12  A    between atoms: C_25  and  C_27
REMARK   13  A    between atoms: C_25  and  C_28
REMARK   14  A    between atoms: N_31  and  O_32
REMARK                            x       y       z     vdW  Elec       q    Type
REMARK                         _______ _______ _______ _____ _____    ______ ____
ROOT
ATOM      1  C   UNL     1       6.771  -2.223  24.224  0.00  0.00    +0.071 C 
ATOM      2  C   UNL     1       6.297  -1.012  23.375  0.00  0.00    +0.037 C 
ATOM      3  C   UNL     1       6.396   0.338  24.089  0.00  0.00    +0.112 C 
ATOM      4  N   UNL     1       5.759   0.275  25.398  0.00  0.00    -0.267 N 
ATOM      5  C   UNL     1       4.815   1.171  25.877  0.00  0.00    +0.403 C 
ATOM      6  O   UNL     1       4.389   1.112  27.025  0.00  0.00    -0.226 OA
ATOM      7  C   UNL     1       6.208  -0.783  26.285  0.00  0.00    +0.112 C 
ATOM      8  C   UNL     1       6.049  -2.137  25.607  0.00  0.00    +0.037 C 
ENDROOT
BRANCH   1   9
ATOM      9  C   UNL     1       6.291  -3.546  23.593  0.00  0.00    +0.243 C 
ATOM     10  N   UNL     1       5.659  -3.471  22.372  0.00  0.00    -0.197 N 
ATOM     11  H   UNL     1       5.978  -2.817  21.660  0.00  0.00    +0.182 HD
ATOM     12  O   UNL     1       6.465  -4.638  24.141  0.00  0.00    -0.273 OA
BRANCH  10  13
ATOM     13  O   UNL     1       5.253  -4.729  21.852  0.00  0.00    -0.295 OA
ATOM     14  H   UNL     1       6.109  -5.155  21.628  0.00  0.00    +0.241 HD
ENDBRANCH  10  13
ENDBRANCH   1   9
BRANCH   1  15
ATOM     15  C   UNL     1       8.292  -2.273  24.510  0.00  0.00    +0.188 C 
BRANCH  15  16
ATOM     16  S   UNL     1       9.369  -2.066  23.116  0.00  0.00    -0.002 S 
ATOM     17  O   UNL     1      10.598  -2.789  23.369  0.00  0.00    -0.169 OA
ATOM     18  O   UNL     1       8.590  -2.331  21.922  0.00  0.00    -0.169 OA
BRANCH  16  22
ATOM     19  C   UNL     1      10.229   2.428  23.137  0.00  0.00    +0.028 A 
ATOM     20  C   UNL     1      10.443   1.662  24.291  0.00  0.00    +0.025 A 
ATOM     21  C   UNL     1      10.204   0.286  24.293  0.00  0.00    +0.029 A 
ATOM     22  C   UNL     1       9.769  -0.337  23.123  0.00  0.00    +0.088 A 
ATOM     23  C   UNL     1       9.620   0.394  21.946  0.00  0.00    +0.029 A 
ATOM     24  C   UNL     1       9.886   1.761  21.953  0.00  0.00    +0.025 A 
BRANCH  19  25
ATOM     25  N   UNL     1      10.444   3.814  23.177  0.00  0.00    -0.333 N 
ATOM     26  H   UNL     1      11.428   4.044  23.303  0.00  0.00    +0.147 HD
BRANCH  25  27
ATOM     27  C   UNL     1       9.596   4.554  24.102  0.00  0.00    +0.191 C 
BRANCH  27  30
ATOM     28  C   UNL     1       6.785   6.995  21.862  0.00  0.00    +0.106 C 
ATOM     29  C   UNL     1       7.768   6.141  22.646  0.00  0.00    -0.104 C 
ATOM     30  C   UNL     1       8.612   5.408  23.319  0.00  0.00    -0.084 C 
ENDBRANCH  27  30
ENDBRANCH  25  27
ENDBRANCH  19  25
ENDBRANCH  16  22
ENDBRANCH  15  16
ENDBRANCH   1  15
BRANCH   5  31
ATOM     31  O   UNL     1       4.396   2.087  24.958  0.00  0.00    -0.445 OA
BRANCH  31  32
ATOM     32  C   UNL     1       4.742   3.487  25.166  0.00  0.00    +0.107 C 
ATOM     33  C   UNL     1       3.687   4.200  26.026  0.00  0.00    +0.055 C 
ATOM     34  C   UNL     1       4.733   4.150  23.779  0.00  0.00    +0.055 C 
ATOM     35  C   UNL     1       6.158   3.633  25.747  0.00  0.00    +0.055 C 
ENDBRANCH  31  32
ENDBRANCH   5  31
TORSDOF 10
ENDMDL
MODEL 7
REMARK VINA RESULT:      -6.6      1.504      2.297
REMARK  Name = 
REMARK  14 active torsions:
REMARK  status: ('A' for Active; 'I' for Inactive)
REMARK    1  A    between atoms: C_1  and  C_2
REMARK    2  A    between atoms: C_3  and  C_4
REMARK    3  A    between atoms: C_4  and  N_5
REMARK    4  A    between atoms: N_5  and  C_6
REMARK    5  A    between atoms: C_9  and  S_12
REMARK    6  A    between atoms: S_12  and  C_15
REMARK    7  A    between atoms: C_15  and  C_16
REMARK    8  A    between atoms: C_16  and  C_29
REMARK    9  A    between atoms: C_22  and  O_24
REMARK   10  A    between atoms: O_24  and  C_25
REMARK   11  A    between atoms: C_25  and  C_26
REMARK   12  A    between atoms: C_25  and  C_27
REMARK   13  A    between atoms: C_25  and  C_28
REMARK   14  A    between atoms: N_31  and  O_32
REMARK                            x       y       z     vdW  Elec       q    Type
REMARK                         _______ _______ _______ _____ _____    ______ ____
ROOT
ATOM      1  C   UNL     1       7.350  -2.082  24.450  0.00  0.00    +0.071 C 
ATOM      2  C   UNL     1       6.698  -2.657  25.737  0.00  0.00    +0.037 C 
ATOM      3  C   UNL     1       6.796  -4.178  25.869  0.00  0.00    +0.112 C 
ATOM      4  N   UNL     1       6.329  -4.831  24.654  0.00  0.00    -0.267 N 
ATOM      5  C   UNL     1       5.396  -5.855  24.598  0.00  0.00    +0.403 C 
ATOM      6  O   UNL     1       5.119  -6.423  23.548  0.00  0.00    -0.226 OA
ATOM      7  C   UNL     1       6.952  -4.406  23.412  0.00  0.00    +0.112 C 
ATOM      8  C   UNL     1       6.799  -2.901  23.240  0.00  0.00    +0.037 C 
ENDROOT
BRANCH   1   9
ATOM      9  C   UNL     1       6.883  -0.632  24.210  0.00  0.00    +0.243 C 
ATOM     10  N   UNL     1       6.389  -0.325  22.962  0.00  0.00    -0.197 N 
ATOM     11  H   UNL     1       5.808  -0.990  22.454  0.00  0.00    +0.182 HD
ATOM     12  O   UNL     1       6.932   0.231  25.091  0.00  0.00    -0.273 OA
BRANCH  10  13
ATOM     13  O   UNL     1       5.971   1.025  22.819  0.00  0.00    -0.295 OA
ATOM     14  H   UNL     1       5.966   1.347  23.746  0.00  0.00    +0.241 HD
ENDBRANCH  10  13
ENDBRANCH   1   9
BRANCH   1  15
ATOM     15  C   UNL     1       8.894  -2.176  24.395  0.00  0.00    +0.188 C 
BRANCH  15  16
ATOM     16  S   UNL     1       9.663  -1.720  22.862  0.00  0.00    -0.002 S 
ATOM     17  O   UNL     1      10.975  -2.330  22.804  0.00  0.00    -0.169 OA
ATOM     18  O   UNL     1       8.695  -1.948  21.806  0.00  0.00    -0.169 OA
BRANCH  16  22
ATOM     19  C   UNL     1      10.467   2.772  23.199  0.00  0.00    +0.028 A 
ATOM     20  C   UNL     1       9.958   2.232  22.010  0.00  0.00    +0.025 A 
ATOM     21  C   UNL     1       9.689   0.866  21.899  0.00  0.00    +0.029 A 
ATOM     22  C   UNL     1       9.908   0.033  22.997  0.00  0.00    +0.088 A 
ATOM     23  C   UNL     1      10.343   0.561  24.210  0.00  0.00    +0.029 A 
ATOM     24  C   UNL     1      10.584   1.929  24.313  0.00  0.00    +0.025 A 
BRANCH  19  25
ATOM     25  N   UNL     1      10.760   4.142  23.266  0.00  0.00    -0.333 N 
ATOM     26  H   UNL     1      11.747   4.312  23.451  0.00  0.00    +0.147 HD
BRANCH  25  27
ATOM     27  C   UNL     1       9.905   4.925  24.148  0.00  0.00    +0.191 C 
BRANCH  27  30
ATOM     28  C   UNL     1       6.864   6.954  21.801  0.00  0.00    +0.106 C 
ATOM     29  C   UNL     1       7.928   6.244  22.622  0.00  0.00    -0.104 C 
ATOM     30  C   UNL     1       8.841   5.635  23.326  0.00  0.00    -0.084 C 
ENDBRANCH  27  30
ENDBRANCH  25  27
ENDBRANCH  19  25
ENDBRANCH  16  22
ENDBRANCH  15  16
ENDBRANCH   1  15
BRANCH   5  31
ATOM     31  O   UNL     1       4.809  -6.143  25.794  0.00  0.00    -0.445 OA
BRANCH  31  32
ATOM     32  C   UNL     1       3.434  -5.713  26.015  0.00  0.00    +0.107 C 
ATOM     33  C   UNL     1       3.141  -5.532  27.512  0.00  0.00    +0.055 C 
ATOM     34  C   UNL     1       2.534  -6.848  25.501  0.00  0.00    +0.055 C 
ATOM     35  C   UNL     1       3.106  -4.449  25.204  0.00  0.00    +0.055 C 
ENDBRANCH  31  32
ENDBRANCH   5  31
TORSDOF 10
ENDMDL
MODEL 8
REMARK VINA RESULT:      -6.6      1.810      3.162
REMARK  Name = 
REMARK  14 active torsions:
REMARK  status: ('A' for Active; 'I' for Inactive)
REMARK    1  A    between atoms: C_1  and  C_2
REMARK    2  A    between atoms: C_3  and  C_4
REMARK    3  A    between atoms: C_4  and  N_5
REMARK    4  A    between atoms: N_5  and  C_6
REMARK    5  A    between atoms: C_9  and  S_12
REMARK    6  A    between atoms: S_12  and  C_15
REMARK    7  A    between atoms: C_15  and  C_16
REMARK    8  A    between atoms: C_16  and  C_29
REMARK    9  A    between atoms: C_22  and  O_24
REMARK   10  A    between atoms: O_24  and  C_25
REMARK   11  A    between atoms: C_25  and  C_26
REMARK   12  A    between atoms: C_25  and  C_27
REMARK   13  A    between atoms: C_25  and  C_28
REMARK   14  A    between atoms: N_31  and  O_32
REMARK                            x       y       z     vdW  Elec       q    Type
REMARK                         _______ _______ _______ _____ _____    ______ ____
ROOT
ATOM      1  C   UNL     1       7.379  -3.144  24.212  0.00  0.00    +0.071 C 
ATOM      2  C   UNL     1       6.065  -3.018  23.393  0.00  0.00    +0.037 C 
ATOM      3  C   UNL     1       4.862  -3.728  24.017  0.00  0.00    +0.112 C 
ATOM      4  N   UNL     1       5.194  -5.106  24.352  0.00  0.00    -0.267 N 
ATOM      5  C   UNL     1       4.454  -6.221  23.992  0.00  0.00    +0.403 C 
ATOM      6  O   UNL     1       4.741  -7.346  24.388  0.00  0.00    -0.226 OA
ATOM      7  C   UNL     1       6.366  -5.304  25.186  0.00  0.00    +0.112 C 
ATOM      8  C   UNL     1       7.583  -4.658  24.539  0.00  0.00    +0.037 C 
ENDROOT
BRANCH   1   9
ATOM      9  C   UNL     1       8.594  -2.745  23.349  0.00  0.00    +0.243 C 
ATOM     10  N   UNL     1       8.338  -2.132  22.143  0.00  0.00    -0.197 N 
ATOM     11  H   UNL     1       7.582  -1.456  22.052  0.00  0.00    +0.182 HD
ATOM     12  O   UNL     1       9.755  -2.949  23.712  0.00  0.00    -0.273 OA
BRANCH  10  13
ATOM     13  O   UNL     1       9.504  -1.788  21.409  0.00  0.00    -0.295 OA
ATOM     14  H   UNL     1      10.159  -1.609  22.119  0.00  0.00    +0.241 HD
ENDBRANCH  10  13
ENDBRANCH   1   9
BRANCH   1  15
ATOM     15  C   UNL     1       7.392  -2.385  25.561  0.00  0.00    +0.188 C 
BRANCH  15  16
ATOM     16  S   UNL     1       6.705  -0.749  25.557  0.00  0.00    -0.002 S 
ATOM     17  O   UNL     1       5.468  -0.769  24.803  0.00  0.00    -0.169 OA
ATOM     18  O   UNL     1       6.727  -0.265  26.924  0.00  0.00    -0.169 OA
BRANCH  16  22
ATOM     19  C   UNL     1       9.634   1.882  23.227  0.00  0.00    +0.028 A 
ATOM     20  C   UNL     1      10.071   1.153  24.341  0.00  0.00    +0.025 A 
ATOM     21  C   UNL     1       9.193   0.330  25.050  0.00  0.00    +0.029 A 
ATOM     22  C   UNL     1       7.868   0.215  24.627  0.00  0.00    +0.088 A 
ATOM     23  C   UNL     1       7.433   0.873  23.479  0.00  0.00    +0.029 A 
ATOM     24  C   UNL     1       8.327   1.670  22.768  0.00  0.00    +0.025 A 
BRANCH  19  25
ATOM     25  N   UNL     1      10.532   2.727  22.558  0.00  0.00    -0.333 N 
ATOM     26  H   UNL     1      11.158   2.209  21.944  0.00  0.00    +0.147 HD
BRANCH  25  27
ATOM     27  C   UNL     1      11.261   3.664  23.403  0.00  0.00    +0.191 C 
BRANCH  27  30
ATOM     28  C   UNL     1       8.753   7.107  24.254  0.00  0.00    +0.106 C 
ATOM     29  C   UNL     1       9.631   5.903  23.956  0.00  0.00    -0.104 C 
ATOM     30  C   UNL     1      10.384   4.869  23.701  0.00  0.00    -0.084 C 
ENDBRANCH  27  30
ENDBRANCH  25  27
ENDBRANCH  19  25
ENDBRANCH  16  22
ENDBRANCH  15  16
ENDBRANCH   1  15
BRANCH   5  31
ATOM     31  O   UNL     1       3.414  -5.956  23.152  0.00  0.00    -0.445 OA
BRANCH  31  32
ATOM     32  C   UNL     1       2.063  -6.276  23.595  0.00  0.00    +0.107 C 
ATOM     33  C   UNL     1       1.673  -7.710  23.205  0.00  0.00    +0.055 C 
ATOM     34  C   UNL     1       1.120  -5.321  22.846  0.00  0.00    +0.055 C 
ATOM     35  C   UNL     1       1.893  -6.019  25.101  0.00  0.00    +0.055 C 
ENDBRANCH  31  32
ENDBRANCH   5  31
TORSDOF 10
ENDMDL
MODEL 9
REMARK VINA RESULT:      -6.5      2.279      3.800
REMARK  Name = 
REMARK  14 active torsions:
REMARK  status: ('A' for Active; 'I' for Inactive)
REMARK    1  A    between atoms: C_1  and  C_2
REMARK    2  A    between atoms: C_3  and  C_4
REMARK    3  A    between atoms: C_4  and  N_5
REMARK    4  A    between atoms: N_5  and  C_6
REMARK    5  A    between atoms: C_9  and  S_12
REMARK    6  A    between atoms: S_12  and  C_15
REMARK    7  A    between atoms: C_15  and  C_16
REMARK    8  A    between atoms: C_16  and  C_29
REMARK    9  A    between atoms: C_22  and  O_24
REMARK   10  A    between atoms: O_24  and  C_25
REMARK   11  A    between atoms: C_25  and  C_26
REMARK   12  A    between atoms: C_25  and  C_27
REMARK   13  A    between atoms: C_25  and  C_28
REMARK   14  A    between atoms: N_31  and  O_32
REMARK                            x       y       z     vdW  Elec       q    Type
REMARK                         _______ _______ _______ _____ _____    ______ ____
ROOT
ATOM      1  C   UNL     1       7.978  -0.843  24.376  0.00  0.00    +0.071 C 
ATOM      2  C   UNL     1       6.751  -1.571  23.761  0.00  0.00    +0.037 C 
ATOM      3  C   UNL     1       5.621  -1.851  24.754  0.00  0.00    +0.112 C 
ATOM      4  N   UNL     1       6.136  -2.510  25.947  0.00  0.00    -0.267 N 
ATOM      5  C   UNL     1       5.626  -3.671  26.508  0.00  0.00    +0.403 C 
ATOM      6  O   UNL     1       6.049  -4.120  27.567  0.00  0.00    -0.226 OA
ATOM      7  C   UNL     1       7.233  -1.847  26.628  0.00  0.00    +0.112 C 
ATOM      8  C   UNL     1       8.390  -1.626  25.664  0.00  0.00    +0.037 C 
ENDROOT
BRANCH   1   9
ATOM      9  C   UNL     1       9.193  -0.943  23.431  0.00  0.00    +0.243 C 
ATOM     10  N   UNL     1       8.964  -1.398  22.152  0.00  0.00    -0.197 N 
ATOM     11  H   UNL     1       8.124  -1.126  21.646  0.00  0.00    +0.182 HD
ATOM     12  O   UNL     1      10.331  -0.623  23.786  0.00  0.00    -0.273 OA
BRANCH  10  13
ATOM     13  O   UNL     1      10.128  -1.454  21.340  0.00  0.00    -0.295 OA
ATOM     14  H   UNL     1       9.786  -1.197  20.456  0.00  0.00    +0.241 HD
ENDBRANCH  10  13
ENDBRANCH   1   9
BRANCH   1  15
ATOM     15  C   UNL     1       7.731   0.625  24.798  0.00  0.00    +0.188 C 
BRANCH  15  16
ATOM     16  S   UNL     1       6.874   1.653  23.633  0.00  0.00    -0.002 S 
ATOM     17  O   UNL     1       7.316   1.306  22.298  0.00  0.00    -0.169 OA
ATOM     18  O   UNL     1       5.465   1.616  23.976  0.00  0.00    -0.169 OA
BRANCH  16  22
ATOM     19  C   UNL     1       8.567   5.811  24.512  0.00  0.00    +0.028 A 
ATOM     20  C   UNL     1       8.122   5.488  23.223  0.00  0.00    +0.025 A 
ATOM     21  C   UNL     1       7.585   4.229  22.945  0.00  0.00    +0.029 A 
ATOM     22  C   UNL     1       7.467   3.291  23.971  0.00  0.00    +0.088 A 
ATOM     23  C   UNL     1       7.836   3.618  25.274  0.00  0.00    +0.029 A 
ATOM     24  C   UNL     1       8.347   4.886  25.541  0.00  0.00    +0.025 A 
BRANCH  19  25
ATOM     25  N   UNL     1       9.135   7.072  24.750  0.00  0.00    -0.333 N 
ATOM     26  H   UNL     1       9.155   7.647  23.910  0.00  0.00    +0.147 HD
BRANCH  25  27
ATOM     27  C   UNL     1      10.426   7.061  25.425  0.00  0.00    +0.191 C 
BRANCH  27  30
ATOM     28  C   UNL     1      13.370   5.096  22.905  0.00  0.00    +0.106 C 
ATOM     29  C   UNL     1      12.340   5.784  23.787  0.00  0.00    -0.104 C 
ATOM     30  C   UNL     1      11.456   6.373  24.544  0.00  0.00    -0.084 C 
ENDBRANCH  27  30
ENDBRANCH  25  27
ENDBRANCH  19  25
ENDBRANCH  16  22
ENDBRANCH  15  16
ENDBRANCH   1  15
BRANCH   5  31
ATOM     31  O   UNL     1       4.648  -4.267  25.769  0.00  0.00    -0.445 OA
BRANCH  31  32
ATOM     32  C   UNL     1       5.007  -5.399  24.924  0.00  0.00    +0.107 C 
ATOM     33  C   UNL     1       6.502  -5.376  24.569  0.00  0.00    +0.055 C 
ATOM     34  C   UNL     1       4.219  -5.234  23.615  0.00  0.00    +0.055 C 
ATOM     35  C   UNL     1       4.584  -6.731  25.564  0.00  0.00    +0.055 C 
ENDBRANCH  31  32
ENDBRANCH   5  31
TORSDOF 10
ENDMDL
