MODEL 1
REMARK VINA RESULT:      -3.8      0.000      0.000
REMARK  Name = 
REMARK  9 active torsions:
REMARK  status: ('A' for Active; 'I' for Inactive)
REMARK    1  A    between atoms: N_1  and  C_2
REMARK    2  A    between atoms: C_2  and  C_3
REMARK    3  A    between atoms: C_3  and  O_4
REMARK    4  A    between atoms: O_4  and  C_5
REMARK    5  A    between atoms: C_5  and  C_6
REMARK    6  A    between atoms: C_6  and  CA_7
REMARK    7  A    between atoms: CA_7  and  N_9
REMARK    8  A    between atoms: CA_7  and  C_10
REMARK    9  A    between atoms: C_10  and  O_11
REMARK                            x       y       z     vdW  Elec       q    Type
REMARK                         _______ _______ _______ _____ _____    ______ ____
ROOT
ATOM      1  C   UNL     1       9.269   1.796  24.311  0.00  0.00    +0.058 C 
ENDROOT
BRANCH   1   2
ATOM      2  C   UNL     1      10.591   1.057  24.468  0.00  0.00    +0.162 C 
BRANCH   2   3
ATOM      3  O   UNL     1      10.657   0.002  23.511  0.00  0.00    -0.378 OA
BRANCH   3   4
ATOM      4  C   UNL     1       9.885  -1.131  23.928  0.00  0.00    +0.174 C 
BRANCH   4   5
ATOM      5  C   UNL     1       9.351  -1.867  22.694  0.00  0.00    +0.105 C 
BRANCH   5   6
ATOM      6  N   UNL     1      10.060  -1.457  21.477  0.00  0.00    -0.328 NA
ATOM      7  H   UNL     1      10.815  -2.129  21.324  0.00  0.00    +0.118 HD
ATOM      8  H   UNL     1       9.433  -1.552  20.679  0.00  0.00    +0.118 HD
ENDBRANCH   5   6
ENDBRANCH   4   5
ENDBRANCH   3   4
ENDBRANCH   2   3
ENDBRANCH   1   2
BRANCH   1   9
ATOM      9  CA  UNL     1       9.210   2.717  23.086  0.00  0.00    +0.163 C 
BRANCH   9  10
ATOM     10  N   UNL     1      10.569   2.961  22.511  0.00  0.00    -0.318 NA
ATOM     11  H1  UNL     1      10.632   2.415  21.642  0.00  0.00    +0.119 HD
ATOM     12  H2  UNL     1      10.588   3.928  22.175  0.00  0.00    +0.119 HD
ENDBRANCH   9  10
BRANCH   9  13
ATOM     13  C   UNL     1       8.357   2.029  22.008  0.00  0.00    +0.322 C 
ATOM     14  OXT UNL     1       7.139   2.050  21.947  0.00  0.00    -0.249 OA
BRANCH  13  15
ATOM     15  O   UNL     1       9.139   1.347  21.128  0.00  0.00    -0.480 OA
ATOM     16  H   UNL     1      10.019   1.799  21.138  0.00  0.00    +0.295 HD
ENDBRANCH  13  15
ENDBRANCH   9  13
ENDBRANCH   1   9
TORSDOF 9
ENDMDL
MODEL 2
REMARK VINA RESULT:      -3.8      7.029      8.418
REMARK  Name = 
REMARK  9 active torsions:
REMARK  status: ('A' for Active; 'I' for Inactive)
REMARK    1  A    between atoms: N_1  and  C_2
REMARK    2  A    between atoms: C_2  and  C_3
REMARK    3  A    between atoms: C_3  and  O_4
REMARK    4  A    between atoms: O_4  and  C_5
REMARK    5  A    between atoms: C_5  and  C_6
REMARK    6  A    between atoms: C_6  and  CA_7
REMARK    7  A    between atoms: CA_7  and  N_9
REMARK    8  A    between atoms: CA_7  and  C_10
REMARK    9  A    between atoms: C_10  and  O_11
REMARK                            x       y       z     vdW  Elec       q    Type
REMARK                         _______ _______ _______ _____ _____    ______ ____
ROOT
ATOM      1  C   UNL     1       7.070  -4.044  25.840  0.00  0.00    +0.058 C 
ENDROOT
BRANCH   1   2
ATOM      2  C   UNL     1       5.781  -4.735  26.267  0.00  0.00    +0.162 C 
BRANCH   2   3
ATOM      3  O   UNL     1       5.742  -6.045  25.705  0.00  0.00    -0.378 OA
BRANCH   3   4
ATOM      4  C   UNL     1       4.638  -6.801  26.216  0.00  0.00    +0.174 C 
BRANCH   4   5
ATOM      5  C   UNL     1       4.557  -6.624  27.737  0.00  0.00    +0.105 C 
BRANCH   5   6
ATOM      6  N   UNL     1       5.478  -7.531  28.432  0.00  0.00    -0.328 NA
ATOM      7  H   UNL     1       5.952  -6.986  29.156  0.00  0.00    +0.118 HD
ATOM      8  H   UNL     1       4.939  -8.242  28.922  0.00  0.00    +0.118 HD
ENDBRANCH   5   6
ENDBRANCH   4   5
ENDBRANCH   3   4
ENDBRANCH   2   3
ENDBRANCH   1   2
BRANCH   1   9
ATOM      9  CA  UNL     1       8.337  -4.658  26.446  0.00  0.00    +0.163 C 
BRANCH   9  10
ATOM     10  N   UNL     1       8.017  -5.789  27.371  0.00  0.00    -0.318 NA
ATOM     11  H1  UNL     1       7.457  -5.401  28.141  0.00  0.00    +0.119 HD
ATOM     12  H2  UNL     1       7.349  -6.398  26.888  0.00  0.00    +0.119 HD
ENDBRANCH   9  10
BRANCH   9  13
ATOM     13  C   UNL     1       9.197  -5.215  25.299  0.00  0.00    +0.322 C 
ATOM     14  OXT UNL     1       8.829  -5.364  24.146  0.00  0.00    -0.249 OA
BRANCH  13  15
ATOM     15  O   UNL     1      10.435  -5.564  25.741  0.00  0.00    -0.480 OA
ATOM     16  H   UNL     1      11.026  -5.535  24.948  0.00  0.00    +0.295 HD
ENDBRANCH  13  15
ENDBRANCH   9  13
ENDBRANCH   1   9
TORSDOF 9
ENDMDL
MODEL 3
REMARK VINA RESULT:      -3.8      1.907      3.753
REMARK  Name = 
REMARK  9 active torsions:
REMARK  status: ('A' for Active; 'I' for Inactive)
REMARK    1  A    between atoms: N_1  and  C_2
REMARK    2  A    between atoms: C_2  and  C_3
REMARK    3  A    between atoms: C_3  and  O_4
REMARK    4  A    between atoms: O_4  and  C_5
REMARK    5  A    between atoms: C_5  and  C_6
REMARK    6  A    between atoms: C_6  and  CA_7
REMARK    7  A    between atoms: CA_7  and  N_9
REMARK    8  A    between atoms: CA_7  and  C_10
REMARK    9  A    between atoms: C_10  and  O_11
REMARK                            x       y       z     vdW  Elec       q    Type
REMARK                         _______ _______ _______ _____ _____    ______ ____
ROOT
ATOM      1  C   UNL     1       9.593  -0.830  24.589  0.00  0.00    +0.058 C 
ENDROOT
BRANCH   1   2
ATOM      2  C   UNL     1      10.605   0.271  24.876  0.00  0.00    +0.162 C 
BRANCH   2   3
ATOM      3  O   UNL     1      10.677   1.147  23.754  0.00  0.00    -0.378 OA
BRANCH   3   4
ATOM      4  C   UNL     1       9.809   2.276  23.913  0.00  0.00    +0.174 C 
BRANCH   4   5
ATOM      5  C   UNL     1       8.922   2.417  22.671  0.00  0.00    +0.105 C 
BRANCH   5   6
ATOM      6  N   UNL     1       9.643   2.035  21.451  0.00  0.00    -0.328 NA
ATOM      7  H   UNL     1       9.576   1.018  21.364  0.00  0.00    +0.118 HD
ATOM      8  H   UNL     1       9.155   2.419  20.643  0.00  0.00    +0.118 HD
ENDBRANCH   5   6
ENDBRANCH   4   5
ENDBRANCH   3   4
ENDBRANCH   2   3
ENDBRANCH   1   2
BRANCH   1   9
ATOM      9  CA  UNL     1      10.074  -1.871  23.572  0.00  0.00    +0.163 C 
BRANCH   9  10
ATOM     10  N   UNL     1       9.839  -3.266  24.055  0.00  0.00    -0.318 NA
ATOM     11  H1  UNL     1      10.623  -3.839  23.719  0.00  0.00    +0.119 HD
ATOM     12  H2  UNL     1       9.976  -3.264  25.070  0.00  0.00    +0.119 HD
ENDBRANCH   9  10
BRANCH   9  13
ATOM     13  C   UNL     1       9.274  -1.679  22.273  0.00  0.00    +0.322 C 
ATOM     14  OXT UNL     1       8.195  -2.190  22.024  0.00  0.00    -0.249 OA
BRANCH  13  15
ATOM     15  O   UNL     1       9.945  -0.881  21.398  0.00  0.00    -0.480 OA
ATOM     16  H   UNL     1       9.452  -0.939  20.543  0.00  0.00    +0.295 HD
ENDBRANCH  13  15
ENDBRANCH   9  13
ENDBRANCH   1   9
TORSDOF 9
ENDMDL
MODEL 4
REMARK VINA RESULT:      -3.7      1.591      4.160
REMARK  Name = 
REMARK  9 active torsions:
REMARK  status: ('A' for Active; 'I' for Inactive)
REMARK    1  A    between atoms: N_1  and  C_2
REMARK    2  A    between atoms: C_2  and  C_3
REMARK    3  A    between atoms: C_3  and  O_4
REMARK    4  A    between atoms: O_4  and  C_5
REMARK    5  A    between atoms: C_5  and  C_6
REMARK    6  A    between atoms: C_6  and  CA_7
REMARK    7  A    between atoms: CA_7  and  N_9
REMARK    8  A    between atoms: CA_7  and  C_10
REMARK    9  A    between atoms: C_10  and  O_11
REMARK                            x       y       z     vdW  Elec       q    Type
REMARK                         _______ _______ _______ _____ _____    ______ ____
ROOT
ATOM      1  C   UNL     1       7.626  -1.304  22.836  0.00  0.00    +0.058 C 
ENDROOT
BRANCH   1   2
ATOM      2  C   UNL     1       7.293   0.179  22.741  0.00  0.00    +0.162 C 
BRANCH   2   3
ATOM      3  O   UNL     1       8.119   0.905  23.649  0.00  0.00    -0.378 OA
BRANCH   3   4
ATOM      4  C   UNL     1       8.222   2.284  23.276  0.00  0.00    +0.174 C 
BRANCH   4   5
ATOM      5  C   UNL     1       9.696   2.647  23.065  0.00  0.00    +0.105 C 
BRANCH   5   6
ATOM      6  N   UNL     1      10.192   2.149  21.777  0.00  0.00    -0.328 NA
ATOM      7  H   UNL     1      11.168   2.444  21.693  0.00  0.00    +0.118 HD
ATOM      8  H   UNL     1      10.208   1.131  21.798  0.00  0.00    +0.118 HD
ENDBRANCH   5   6
ENDBRANCH   4   5
ENDBRANCH   3   4
ENDBRANCH   2   3
ENDBRANCH   1   2
BRANCH   1   9
ATOM      9  CA  UNL     1       8.917  -1.702  22.110  0.00  0.00    +0.163 C 
BRANCH   9  10
ATOM     10  N   UNL     1       9.349  -0.653  21.135  0.00  0.00    -0.318 NA
ATOM     11  H1  UNL     1       8.835   0.206  21.367  0.00  0.00    +0.119 HD
ATOM     12  H2  UNL     1      10.318  -0.408  21.360  0.00  0.00    +0.119 HD
ENDBRANCH   9  10
BRANCH   9  13
ATOM     13  C   UNL     1      10.030  -1.857  23.160  0.00  0.00    +0.322 C 
ATOM     14  OXT UNL     1      10.305  -2.887  23.752  0.00  0.00    -0.249 OA
BRANCH  13  15
ATOM     15  O   UNL     1      10.662  -0.673  23.381  0.00  0.00    -0.480 OA
ATOM     16  H   UNL     1      10.166  -0.231  24.114  0.00  0.00    +0.295 HD
ENDBRANCH  13  15
ENDBRANCH   9  13
ENDBRANCH   1   9
TORSDOF 9
ENDMDL
MODEL 5
REMARK VINA RESULT:      -3.7      1.981      2.133
REMARK  Name = 
REMARK  9 active torsions:
REMARK  status: ('A' for Active; 'I' for Inactive)
REMARK    1  A    between atoms: N_1  and  C_2
REMARK    2  A    between atoms: C_2  and  C_3
REMARK    3  A    between atoms: C_3  and  O_4
REMARK    4  A    between atoms: O_4  and  C_5
REMARK    5  A    between atoms: C_5  and  C_6
REMARK    6  A    between atoms: C_6  and  CA_7
REMARK    7  A    between atoms: CA_7  and  N_9
REMARK    8  A    between atoms: CA_7  and  C_10
REMARK    9  A    between atoms: C_10  and  O_11
REMARK                            x       y       z     vdW  Elec       q    Type
REMARK                         _______ _______ _______ _____ _____    ______ ____
ROOT
ATOM      1  C   UNL     1       9.617   1.509  24.266  0.00  0.00    +0.058 C 
ENDROOT
BRANCH   1   2
ATOM      2  C   UNL     1      10.225   0.160  24.625  0.00  0.00    +0.162 C 
BRANCH   2   3
ATOM      3  O   UNL     1      10.668  -0.487  23.434  0.00  0.00    -0.378 OA
BRANCH   3   4
ATOM      4  C   UNL     1      10.040  -1.764  23.267  0.00  0.00    +0.174 C 
BRANCH   4   5
ATOM      5  C   UNL     1       9.055  -1.700  22.095  0.00  0.00    +0.105 C 
BRANCH   5   6
ATOM      6  N   UNL     1       9.527  -0.788  21.047  0.00  0.00    -0.328 NA
ATOM      7  H   UNL     1       9.404  -1.266  20.151  0.00  0.00    +0.118 HD
ATOM      8  H   UNL     1       8.919   0.028  21.016  0.00  0.00    +0.118 HD
ENDBRANCH   5   6
ENDBRANCH   4   5
ENDBRANCH   3   4
ENDBRANCH   2   3
ENDBRANCH   1   2
BRANCH   1   9
ATOM      9  CA  UNL     1      10.469   2.341  23.299  0.00  0.00    +0.163 C 
BRANCH   9  10
ATOM     10  N   UNL     1      10.066   2.119  21.876  0.00  0.00    -0.318 NA
ATOM     11  H1  UNL     1       9.606   1.200  21.832  0.00  0.00    +0.119 HD
ATOM     12  H2  UNL     1       9.300   2.768  21.672  0.00  0.00    +0.119 HD
ENDBRANCH   9  10
BRANCH   9  13
ATOM     13  C   UNL     1      10.252   3.828  23.625  0.00  0.00    +0.322 C 
ATOM     14  OXT UNL     1       9.320   4.284  24.266  0.00  0.00    -0.249 OA
BRANCH  13  15
ATOM     15  O   UNL     1      11.227   4.597  23.070  0.00  0.00    -0.480 OA
ATOM     16  H   UNL     1      12.080   4.131  23.255  0.00  0.00    +0.295 HD
ENDBRANCH  13  15
ENDBRANCH   9  13
ENDBRANCH   1   9
TORSDOF 9
ENDMDL
MODEL 6
REMARK VINA RESULT:      -3.6      2.584      3.108
REMARK  Name = 
REMARK  9 active torsions:
REMARK  status: ('A' for Active; 'I' for Inactive)
REMARK    1  A    between atoms: N_1  and  C_2
REMARK    2  A    between atoms: C_2  and  C_3
REMARK    3  A    between atoms: C_3  and  O_4
REMARK    4  A    between atoms: O_4  and  C_5
REMARK    5  A    between atoms: C_5  and  C_6
REMARK    6  A    between atoms: C_6  and  CA_7
REMARK    7  A    between atoms: CA_7  and  N_9
REMARK    8  A    between atoms: CA_7  and  C_10
REMARK    9  A    between atoms: C_10  and  O_11
REMARK                            x       y       z     vdW  Elec       q    Type
REMARK                         _______ _______ _______ _____ _____    ______ ____
ROOT
ATOM      1  C   UNL     1       9.253  -0.266  23.595  0.00  0.00    +0.058 C 
ENDROOT
BRANCH   1   2
ATOM      2  C   UNL     1       9.841  -1.478  24.304  0.00  0.00    +0.162 C 
BRANCH   2   3
ATOM      3  O   UNL     1       9.063  -2.631  23.987  0.00  0.00    -0.378 OA
BRANCH   3   4
ATOM      4  C   UNL     1       8.799  -3.421  25.153  0.00  0.00    +0.174 C 
BRANCH   4   5
ATOM      5  C   UNL     1       8.989  -4.905  24.818  0.00  0.00    +0.105 C 
BRANCH   5   6
ATOM      6  N   UNL     1      10.249  -5.421  25.365  0.00  0.00    -0.328 NA
ATOM      7  H   UNL     1      10.012  -6.179  26.009  0.00  0.00    +0.118 HD
ATOM      8  H   UNL     1      10.788  -5.848  24.614  0.00  0.00    +0.118 HD
ENDBRANCH   5   6
ENDBRANCH   4   5
ENDBRANCH   3   4
ENDBRANCH   2   3
ENDBRANCH   1   2
BRANCH   1   9
ATOM      9  CA  UNL     1       9.903   0.042  22.240  0.00  0.00    +0.163 C 
BRANCH   9  10
ATOM     10  N   UNL     1       9.622  -1.030  21.236  0.00  0.00    -0.318 NA
ATOM     11  H1  UNL     1      10.523  -1.300  20.821  0.00  0.00    +0.119 HD
ATOM     12  H2  UNL     1       9.350  -1.871  21.755  0.00  0.00    +0.119 HD
ENDBRANCH   9  10
BRANCH   9  13
ATOM     13  C   UNL     1       9.307   1.355  21.708  0.00  0.00    +0.322 C 
ATOM     14  OXT UNL     1       8.132   1.541  21.435  0.00  0.00    -0.249 OA
BRANCH  13  15
ATOM     15  O   UNL     1      10.273   2.298  21.541  0.00  0.00    -0.480 OA
ATOM     16  H   UNL     1       9.870   3.003  20.975  0.00  0.00    +0.295 HD
ENDBRANCH  13  15
ENDBRANCH   9  13
ENDBRANCH   1   9
TORSDOF 9
ENDMDL
MODEL 7
REMARK VINA RESULT:      -3.6      6.312      7.184
REMARK  Name = 
REMARK  9 active torsions:
REMARK  status: ('A' for Active; 'I' for Inactive)
REMARK    1  A    between atoms: N_1  and  C_2
REMARK    2  A    between atoms: C_2  and  C_3
REMARK    3  A    between atoms: C_3  and  O_4
REMARK    4  A    between atoms: O_4  and  C_5
REMARK    5  A    between atoms: C_5  and  C_6
REMARK    6  A    between atoms: C_6  and  CA_7
REMARK    7  A    between atoms: CA_7  and  N_9
REMARK    8  A    between atoms: CA_7  and  C_10
REMARK    9  A    between atoms: C_10  and  O_11
REMARK                            x       y       z     vdW  Elec       q    Type
REMARK                         _______ _______ _______ _____ _____    ______ ____
ROOT
ATOM      1  C   UNL     1       7.290  -3.700  25.687  0.00  0.00    +0.058 C 
ENDROOT
BRANCH   1   2
ATOM      2  C   UNL     1       6.091  -4.618  25.492  0.00  0.00    +0.162 C 
BRANCH   2   3
ATOM      3  O   UNL     1       6.393  -5.578  24.482  0.00  0.00    -0.378 OA
BRANCH   3   4
ATOM      4  C   UNL     1       6.476  -4.968  23.188  0.00  0.00    +0.174 C 
BRANCH   4   5
ATOM      5  C   UNL     1       6.718  -6.049  22.129  0.00  0.00    +0.105 C 
BRANCH   5   6
ATOM      6  N   UNL     1       5.627  -6.091  21.148  0.00  0.00    -0.328 NA
ATOM      7  H   UNL     1       4.749  -6.109  21.671  0.00  0.00    +0.118 HD
ATOM      8  H   UNL     1       5.622  -5.221  20.619  0.00  0.00    +0.118 HD
ENDBRANCH   5   6
ENDBRANCH   4   5
ENDBRANCH   3   4
ENDBRANCH   2   3
ENDBRANCH   1   2
BRANCH   1   9
ATOM      9  CA  UNL     1       8.500  -4.383  26.337  0.00  0.00    +0.163 C 
BRANCH   9  10
ATOM     10  N   UNL     1       8.148  -5.730  26.882  0.00  0.00    -0.318 NA
ATOM     11  H1  UNL     1       8.407  -6.422  26.167  0.00  0.00    +0.119 HD
ATOM     12  H2  UNL     1       8.803  -5.931  27.643  0.00  0.00    +0.119 HD
ENDBRANCH   9  10
BRANCH   9  13
ATOM     13  C   UNL     1       9.579  -4.576  25.259  0.00  0.00    +0.322 C 
ATOM     14  OXT UNL     1       9.840  -3.785  24.368  0.00  0.00    -0.249 OA
BRANCH  13  15
ATOM     15  O   UNL     1      10.200  -5.778  25.399  0.00  0.00    -0.480 OA
ATOM     16  H   UNL     1      10.454  -6.062  24.485  0.00  0.00    +0.295 HD
ENDBRANCH  13  15
ENDBRANCH   9  13
ENDBRANCH   1   9
TORSDOF 9
ENDMDL
MODEL 8
REMARK VINA RESULT:      -3.6      3.638      4.307
REMARK  Name = 
REMARK  9 active torsions:
REMARK  status: ('A' for Active; 'I' for Inactive)
REMARK    1  A    between atoms: N_1  and  C_2
REMARK    2  A    between atoms: C_2  and  C_3
REMARK    3  A    between atoms: C_3  and  O_4
REMARK    4  A    between atoms: O_4  and  C_5
REMARK    5  A    between atoms: C_5  and  C_6
REMARK    6  A    between atoms: C_6  and  CA_7
REMARK    7  A    between atoms: CA_7  and  N_9
REMARK    8  A    between atoms: CA_7  and  C_10
REMARK    9  A    between atoms: C_10  and  O_11
REMARK                            x       y       z     vdW  Elec       q    Type
REMARK                         _______ _______ _______ _____ _____    ______ ____
ROOT
ATOM      1  C   UNL     1      10.200  -2.182  23.502  0.00  0.00    +0.058 C 
ENDROOT
BRANCH   1   2
ATOM      2  C   UNL     1       9.280  -3.137  24.251  0.00  0.00    +0.162 C 
BRANCH   2   3
ATOM      3  O   UNL     1      10.000  -4.323  24.578  0.00  0.00    -0.378 OA
BRANCH   3   4
ATOM      4  C   UNL     1       9.155  -5.290  25.214  0.00  0.00    +0.174 C 
BRANCH   4   5
ATOM      5  C   UNL     1       8.617  -4.713  26.528  0.00  0.00    +0.105 C 
BRANCH   5   6
ATOM      6  N   UNL     1       7.953  -5.744  27.334  0.00  0.00    -0.328 NA
ATOM      7  H   UNL     1       8.684  -6.257  27.833  0.00  0.00    +0.118 HD
ATOM      8  H   UNL     1       7.387  -5.293  28.051  0.00  0.00    +0.118 HD
ENDBRANCH   5   6
ENDBRANCH   4   5
ENDBRANCH   3   4
ENDBRANCH   2   3
ENDBRANCH   1   2
BRANCH   1   9
ATOM      9  CA  UNL     1       9.752  -0.716  23.552  0.00  0.00    +0.163 C 
BRANCH   9  10
ATOM     10  N   UNL     1      10.609   0.093  24.474  0.00  0.00    -0.318 NA
ATOM     11  H1  UNL     1      10.026   0.860  24.833  0.00  0.00    +0.119 HD
ATOM     12  H2  UNL     1      10.778  -0.476  25.309  0.00  0.00    +0.119 HD
ENDBRANCH   9  10
BRANCH   9  13
ATOM     13  C   UNL     1       9.888  -0.124  22.140  0.00  0.00    +0.322 C 
ATOM     14  OXT UNL     1      10.035   1.059  21.879  0.00  0.00    -0.249 OA
BRANCH  13  15
ATOM     15  O   UNL     1       9.788  -1.094  21.191  0.00  0.00    -0.480 OA
ATOM     16  H   UNL     1      10.684  -1.508  21.129  0.00  0.00    +0.295 HD
ENDBRANCH  13  15
ENDBRANCH   9  13
ENDBRANCH   1   9
TORSDOF 9
ENDMDL
MODEL 9
REMARK VINA RESULT:      -3.6      4.482      6.401
REMARK  Name = 
REMARK  9 active torsions:
REMARK  status: ('A' for Active; 'I' for Inactive)
REMARK    1  A    between atoms: N_1  and  C_2
REMARK    2  A    between atoms: C_2  and  C_3
REMARK    3  A    between atoms: C_3  and  O_4
REMARK    4  A    between atoms: O_4  and  C_5
REMARK    5  A    between atoms: C_5  and  C_6
REMARK    6  A    between atoms: C_6  and  CA_7
REMARK    7  A    between atoms: CA_7  and  N_9
REMARK    8  A    between atoms: CA_7  and  C_10
REMARK    9  A    between atoms: C_10  and  O_11
REMARK                            x       y       z     vdW  Elec       q    Type
REMARK                         _______ _______ _______ _____ _____    ______ ____
ROOT
ATOM      1  C   UNL     1       8.714  -3.399  25.915  0.00  0.00    +0.058 C 
ENDROOT
BRANCH   1   2
ATOM      2  C   UNL     1       9.029  -2.391  24.818  0.00  0.00    +0.162 C 
BRANCH   2   3
ATOM      3  O   UNL     1      10.006  -2.943  23.939  0.00  0.00    -0.378 OA
BRANCH   3   4
ATOM      4  C   UNL     1      10.423  -1.989  22.955  0.00  0.00    +0.174 C 
BRANCH   4   5
ATOM      5  C   UNL     1       9.189  -1.366  22.292  0.00  0.00    +0.105 C 
BRANCH   5   6
ATOM      6  N   UNL     1       9.523  -0.767  20.995  0.00  0.00    -0.328 NA
ATOM      7  H   UNL     1      10.014   0.111  21.183  0.00  0.00    +0.118 HD
ATOM      8  H   UNL     1      10.191  -1.366  20.514  0.00  0.00    +0.118 HD
ENDBRANCH   5   6
ENDBRANCH   4   5
ENDBRANCH   3   4
ENDBRANCH   2   3
ENDBRANCH   1   2
BRANCH   1   9
ATOM      9  CA  UNL     1       8.553  -4.839  25.413  0.00  0.00    +0.163 C 
BRANCH   9  10
ATOM     10  N   UNL     1       9.826  -5.614  25.537  0.00  0.00    -0.318 NA
ATOM     11  H1  UNL     1       9.585  -6.528  25.941  0.00  0.00    +0.119 HD
ATOM     12  H2  UNL     1      10.129  -5.856  24.589  0.00  0.00    +0.119 HD
ENDBRANCH   9  10
BRANCH   9  13
ATOM     13  C   UNL     1       7.490  -5.534  26.280  0.00  0.00    +0.322 C 
ATOM     14  OXT UNL     1       6.342  -5.767  25.941  0.00  0.00    -0.249 OA
BRANCH  13  15
ATOM     15  O   UNL     1       7.984  -5.836  27.511  0.00  0.00    -0.480 OA
ATOM     16  H   UNL     1       8.376  -6.741  27.434  0.00  0.00    +0.295 HD
ENDBRANCH  13  15
ENDBRANCH   9  13
ENDBRANCH   1   9
TORSDOF 9
ENDMDL
