MODEL 1
REMARK VINA RESULT:      -7.3      0.000      0.000
REMARK  Name = 
REMARK  14 active torsions:
REMARK  status: ('A' for Active; 'I' for Inactive)
REMARK    1  A    between atoms: C_2  and  C_3
REMARK    2  A    between atoms: C_2  and  N_8
REMARK    3  A    between atoms: C_2  and  C_27
REMARK    4  A    between atoms: C_3  and  C_4
REMARK    5  A    between atoms: C_4  and  C_5
REMARK    6  A    between atoms: C_5  and  O_6
REMARK    7  A    between atoms: N_8  and  S_9
REMARK    8  A    between atoms: S_9  and  C_12
REMARK    9  A    between atoms: C_19  and  O_20
REMARK   10  A    between atoms: O_20  and  C_21
REMARK   11  A    between atoms: C_21  and  C_22
REMARK   12  A    between atoms: C_22  and  C_23
REMARK   13  A    between atoms: C_23  and  C_24
REMARK   14  A    between atoms: C_27  and  O_28
REMARK                            x       y       z     vdW  Elec       q    Type
REMARK                         _______ _______ _______ _____ _____    ______ ____
ROOT
ATOM      1  S   UNL     1       8.075  -4.020  23.748  0.00  0.00    +0.059 S 
ATOM      2  O   UNL     1       7.437  -4.027  22.456  0.00  0.00    -0.153 OA
ATOM      3  O   UNL     1       9.038  -5.029  24.126  0.00  0.00    -0.153 OA
ENDROOT
BRANCH   1   4
ATOM      4  C   UNL     1       8.804  -2.425  23.989  0.00  0.00    +0.106 A 
ATOM      5  C   UNL     1       8.840  -1.853  25.263  0.00  0.00    +0.029 A 
ATOM      6  C   UNL     1       9.261  -0.531  25.419  0.00  0.00    +0.010 A 
ATOM      7  C   UNL     1       9.586   0.252  24.299  0.00  0.00    -0.014 A 
ATOM      8  C   UNL     1       9.911   1.611  24.427  0.00  0.00    +0.054 A 
ATOM      9  C   UNL     1      10.125   2.404  23.297  0.00  0.00    +0.121 A 
ATOM     10  C   UNL     1      10.077   1.826  22.031  0.00  0.00    +0.046 A 
ATOM     11  C   UNL     1       9.795   0.465  21.889  0.00  0.00    +0.012 A 
ATOM     12  C   UNL     1       9.534  -0.330  23.011  0.00  0.00    -0.016 A 
ATOM     13  C   UNL     1       9.174  -1.677  22.868  0.00  0.00    +0.037 A 
BRANCH   9  14
ATOM     14  O   UNL     1      10.400   3.722  23.546  0.00  0.00    -0.492 OA
BRANCH  14  15
ATOM     15  C   UNL     1      11.752   4.117  23.294  0.00  0.00    +0.229 C 
BRANCH  15  16
ATOM     16  C   UNL     1      11.905   5.585  23.684  0.00  0.00    +0.041 C 
BRANCH  16  17
ATOM     17  C   UNL     1      10.552   6.201  24.029  0.00  0.00    -0.000 C 
ATOM     18  C   UNL     1      10.580   6.903  25.375  0.00  0.00    +0.004 C 
ENDBRANCH  16  17
ENDBRANCH  15  16
ENDBRANCH  14  15
ENDBRANCH   9  14
ENDBRANCH   1   4
BRANCH   1  19
ATOM     19  N   UNL     1       6.880  -4.156  24.925  0.00  0.00    -0.176 NA
ATOM     20  H   UNL     1       6.588  -3.263  25.322  0.00  0.00    +0.149 HD
BRANCH  19  21
ATOM     21  C   UNL     1       6.807  -5.394  25.733  0.00  0.00    +0.185 C 
BRANCH  21  22
ATOM     22  C   UNL     1       7.445  -5.289  27.118  0.00  0.00    +0.324 C 
ATOM     23  O   UNL     1       6.794  -5.287  28.154  0.00  0.00    -0.249 OA
BRANCH  22  24
ATOM     24  O   UNL     1       8.785  -5.099  27.109  0.00  0.00    -0.479 OA
ATOM     25  H   UNL     1       9.286  -5.885  27.392  0.00  0.00    +0.295 HD
ENDBRANCH  22  24
ENDBRANCH  21  22
BRANCH  21  26
ATOM     26  C   UNL     1       5.343  -5.815  25.915  0.00  0.00    +0.043 C 
BRANCH  26  27
ATOM     27  C   UNL     1       4.408  -5.288  24.820  0.00  0.00    +0.122 C 
BRANCH  27  28
ATOM     28  C   UNL     1       4.450  -6.175  23.598  0.00  0.00    +0.305 C 
ATOM     29  O   UNL     1       4.521  -5.781  22.446  0.00  0.00    -0.251 OA
BRANCH  28  30
ATOM     30  O   UNL     1       4.411  -7.492  23.908  0.00  0.00    -0.481 OA
ATOM     31  H   UNL     1       3.823  -7.715  24.657  0.00  0.00    +0.295 HD
ENDBRANCH  28  30
ENDBRANCH  27  28
ENDBRANCH  26  27
ENDBRANCH  21  26
ENDBRANCH  19  21
ENDBRANCH   1  19
TORSDOF 13
ENDMDL
MODEL 2
REMARK VINA RESULT:      -7.0      1.547      3.293
REMARK  Name = 
REMARK  14 active torsions:
REMARK  status: ('A' for Active; 'I' for Inactive)
REMARK    1  A    between atoms: C_2  and  C_3
REMARK    2  A    between atoms: C_2  and  N_8
REMARK    3  A    between atoms: C_2  and  C_27
REMARK    4  A    between atoms: C_3  and  C_4
REMARK    5  A    between atoms: C_4  and  C_5
REMARK    6  A    between atoms: C_5  and  O_6
REMARK    7  A    between atoms: N_8  and  S_9
REMARK    8  A    between atoms: S_9  and  C_12
REMARK    9  A    between atoms: C_19  and  O_20
REMARK   10  A    between atoms: O_20  and  C_21
REMARK   11  A    between atoms: C_21  and  C_22
REMARK   12  A    between atoms: C_22  and  C_23
REMARK   13  A    between atoms: C_23  and  C_24
REMARK   14  A    between atoms: C_27  and  O_28
REMARK                            x       y       z     vdW  Elec       q    Type
REMARK                         _______ _______ _______ _____ _____    ______ ____
ROOT
ATOM      1  S   UNL     1       6.773  -4.588  22.505  0.00  0.00    +0.059 S 
ATOM      2  O   UNL     1       5.560  -3.944  22.069  0.00  0.00    -0.153 OA
ATOM      3  O   UNL     1       7.467  -5.544  21.673  0.00  0.00    -0.153 OA
ENDROOT
BRANCH   1   4
ATOM      4  C   UNL     1       7.916  -3.328  22.994  0.00  0.00    +0.106 A 
ATOM      5  C   UNL     1       8.293  -3.202  24.333  0.00  0.00    +0.029 A 
ATOM      6  C   UNL     1       9.059  -2.108  24.739  0.00  0.00    +0.010 A 
ATOM      7  C   UNL     1       9.400  -1.097  23.825  0.00  0.00    -0.014 A 
ATOM      8  C   UNL     1      10.080   0.060  24.235  0.00  0.00    +0.054 A 
ATOM      9  C   UNL     1      10.315   1.106  23.340  0.00  0.00    +0.121 A 
ATOM     10  C   UNL     1       9.927   0.973  22.010  0.00  0.00    +0.046 A 
ATOM     11  C   UNL     1       9.286  -0.189  21.576  0.00  0.00    +0.012 A 
ATOM     12  C   UNL     1       9.003  -1.225  22.474  0.00  0.00    -0.016 A 
ATOM     13  C   UNL     1       8.290  -2.359  22.061  0.00  0.00    +0.037 A 
BRANCH   9  14
ATOM     14  O   UNL     1      10.956   2.197  23.864  0.00  0.00    -0.492 OA
BRANCH  14  15
ATOM     15  C   UNL     1      10.364   3.459  23.543  0.00  0.00    +0.229 C 
BRANCH  15  16
ATOM     16  C   UNL     1       9.058   3.590  24.323  0.00  0.00    +0.041 C 
BRANCH  16  17
ATOM     17  C   UNL     1       7.893   3.896  23.385  0.00  0.00    -0.000 C 
ATOM     18  C   UNL     1       6.915   2.736  23.306  0.00  0.00    +0.004 C 
ENDBRANCH  16  17
ENDBRANCH  15  16
ENDBRANCH  14  15
ENDBRANCH   9  14
ENDBRANCH   1   4
BRANCH   1  19
ATOM     19  N   UNL     1       6.430  -5.460  23.903  0.00  0.00    -0.176 NA
ATOM     20  H   UNL     1       7.039  -6.267  24.046  0.00  0.00    +0.149 HD
BRANCH  19  21
ATOM     21  C   UNL     1       5.045  -5.467  24.423  0.00  0.00    +0.185 C 
BRANCH  21  22
ATOM     22  C   UNL     1       4.148  -6.554  23.830  0.00  0.00    +0.324 C 
ATOM     23  O   UNL     1       3.973  -7.639  24.367  0.00  0.00    -0.249 OA
BRANCH  22  24
ATOM     24  O   UNL     1       3.635  -6.261  22.613  0.00  0.00    -0.479 OA
ATOM     25  H   UNL     1       3.745  -6.982  21.967  0.00  0.00    +0.295 HD
ENDBRANCH  22  24
ENDBRANCH  21  22
BRANCH  21  26
ATOM     26  C   UNL     1       5.058  -5.640  25.947  0.00  0.00    +0.043 C 
BRANCH  26  27
ATOM     27  C   UNL     1       6.114  -4.785  26.656  0.00  0.00    +0.122 C 
BRANCH  27  28
ATOM     28  C   UNL     1       7.132  -5.653  27.358  0.00  0.00    +0.305 C 
ATOM     29  O   UNL     1       6.995  -6.139  28.469  0.00  0.00    -0.251 OA
BRANCH  28  30
ATOM     30  O   UNL     1       8.244  -5.857  26.615  0.00  0.00    -0.481 OA
ATOM     31  H   UNL     1       9.071  -5.528  27.021  0.00  0.00    +0.295 HD
ENDBRANCH  28  30
ENDBRANCH  27  28
ENDBRANCH  26  27
ENDBRANCH  21  26
ENDBRANCH  19  21
ENDBRANCH   1  19
TORSDOF 13
ENDMDL
MODEL 3
REMARK VINA RESULT:      -6.9      1.903      3.178
REMARK  Name = 
REMARK  14 active torsions:
REMARK  status: ('A' for Active; 'I' for Inactive)
REMARK    1  A    between atoms: C_2  and  C_3
REMARK    2  A    between atoms: C_2  and  N_8
REMARK    3  A    between atoms: C_2  and  C_27
REMARK    4  A    between atoms: C_3  and  C_4
REMARK    5  A    between atoms: C_4  and  C_5
REMARK    6  A    between atoms: C_5  and  O_6
REMARK    7  A    between atoms: N_8  and  S_9
REMARK    8  A    between atoms: S_9  and  C_12
REMARK    9  A    between atoms: C_19  and  O_20
REMARK   10  A    between atoms: O_20  and  C_21
REMARK   11  A    between atoms: C_21  and  C_22
REMARK   12  A    between atoms: C_22  and  C_23
REMARK   13  A    between atoms: C_23  and  C_24
REMARK   14  A    between atoms: C_27  and  O_28
REMARK                            x       y       z     vdW  Elec       q    Type
REMARK                         _______ _______ _______ _____ _____    ______ ____
ROOT
ATOM      1  S   UNL     1       8.220  -4.771  24.862  0.00  0.00    +0.059 S 
ATOM      2  O   UNL     1       9.307  -5.609  24.422  0.00  0.00    -0.153 OA
ATOM      3  O   UNL     1       7.492  -5.046  26.080  0.00  0.00    -0.153 OA
ENDROOT
BRANCH   1   4
ATOM      4  C   UNL     1       8.803  -3.101  24.916  0.00  0.00    +0.106 A 
ATOM      5  C   UNL     1       8.558  -2.307  26.038  0.00  0.00    +0.029 A 
ATOM      6  C   UNL     1       8.872  -0.946  26.007  0.00  0.00    +0.010 A 
ATOM      7  C   UNL     1       9.371  -0.355  24.835  0.00  0.00    -0.014 A 
ATOM      8  C   UNL     1       9.594   1.028  24.753  0.00  0.00    +0.054 A 
ATOM      9  C   UNL     1       9.985   1.618  23.548  0.00  0.00    +0.121 A 
ATOM     10  C   UNL     1      10.216   0.817  22.433  0.00  0.00    +0.046 A 
ATOM     11  C   UNL     1      10.039  -0.566  22.510  0.00  0.00    +0.012 A 
ATOM     12  C   UNL     1       9.603  -1.164  23.698  0.00  0.00    -0.016 A 
ATOM     13  C   UNL     1       9.348  -2.541  23.758  0.00  0.00    +0.037 A 
BRANCH   9  14
ATOM     14  O   UNL     1      10.137   2.979  23.581  0.00  0.00    -0.492 OA
BRANCH  14  15
ATOM     15  C   UNL     1       9.014   3.702  24.091  0.00  0.00    +0.229 C 
BRANCH  15  16
ATOM     16  C   UNL     1       7.999   3.874  22.963  0.00  0.00    +0.041 C 
BRANCH  16  17
ATOM     17  C   UNL     1       6.694   3.156  23.291  0.00  0.00    -0.000 C 
ATOM     18  C   UNL     1       6.521   1.893  22.464  0.00  0.00    +0.004 C 
ENDBRANCH  16  17
ENDBRANCH  15  16
ENDBRANCH  14  15
ENDBRANCH   9  14
ENDBRANCH   1   4
BRANCH   1  19
ATOM     19  N   UNL     1       7.025  -4.798  23.676  0.00  0.00    -0.176 NA
ATOM     20  H   UNL     1       7.352  -5.129  22.768  0.00  0.00    +0.149 HD
BRANCH  19  21
ATOM     21  C   UNL     1       5.908  -3.831  23.762  0.00  0.00    +0.185 C 
BRANCH  21  22
ATOM     22  C   UNL     1       5.771  -2.907  22.552  0.00  0.00    +0.324 C 
ATOM     23  O   UNL     1       5.473  -3.310  21.436  0.00  0.00    -0.249 OA
BRANCH  22  24
ATOM     24  O   UNL     1       6.102  -1.616  22.787  0.00  0.00    -0.479 OA
ATOM     25  H   UNL     1       5.792  -1.008  22.091  0.00  0.00    +0.295 HD
ENDBRANCH  22  24
ENDBRANCH  21  22
BRANCH  21  26
ATOM     26  C   UNL     1       4.580  -4.579  23.941  0.00  0.00    +0.043 C 
BRANCH  26  27
ATOM     27  C   UNL     1       4.629  -6.041  23.483  0.00  0.00    +0.122 C 
BRANCH  27  28
ATOM     28  C   UNL     1       4.408  -6.981  24.645  0.00  0.00    +0.305 C 
ATOM     29  O   UNL     1       3.638  -7.928  24.645  0.00  0.00    -0.251 OA
BRANCH  28  30
ATOM     30  O   UNL     1       5.174  -6.675  25.717  0.00  0.00    -0.481 OA
ATOM     31  H   UNL     1       5.056  -7.270  26.484  0.00  0.00    +0.295 HD
ENDBRANCH  28  30
ENDBRANCH  27  28
ENDBRANCH  26  27
ENDBRANCH  21  26
ENDBRANCH  19  21
ENDBRANCH   1  19
TORSDOF 13
ENDMDL
MODEL 4
REMARK VINA RESULT:      -6.9      1.427      2.878
REMARK  Name = 
REMARK  14 active torsions:
REMARK  status: ('A' for Active; 'I' for Inactive)
REMARK    1  A    between atoms: C_2  and  C_3
REMARK    2  A    between atoms: C_2  and  N_8
REMARK    3  A    between atoms: C_2  and  C_27
REMARK    4  A    between atoms: C_3  and  C_4
REMARK    5  A    between atoms: C_4  and  C_5
REMARK    6  A    between atoms: C_5  and  O_6
REMARK    7  A    between atoms: N_8  and  S_9
REMARK    8  A    between atoms: S_9  and  C_12
REMARK    9  A    between atoms: C_19  and  O_20
REMARK   10  A    between atoms: O_20  and  C_21
REMARK   11  A    between atoms: C_21  and  C_22
REMARK   12  A    between atoms: C_22  and  C_23
REMARK   13  A    between atoms: C_23  and  C_24
REMARK   14  A    between atoms: C_27  and  O_28
REMARK                            x       y       z     vdW  Elec       q    Type
REMARK                         _______ _______ _______ _____ _____    ______ ____
ROOT
ATOM      1  S   UNL     1       8.906  -4.137  25.002  0.00  0.00    +0.059 S 
ATOM      2  O   UNL     1      10.159  -4.850  24.966  0.00  0.00    -0.153 OA
ATOM      3  O   UNL     1       8.171  -3.954  26.232  0.00  0.00    -0.153 OA
ENDROOT
BRANCH   1   4
ATOM      4  C   UNL     1       9.157  -2.554  24.252  0.00  0.00    +0.106 A 
ATOM      5  C   UNL     1      10.017  -2.421  23.159  0.00  0.00    +0.029 A 
ATOM      6  C   UNL     1      10.339  -1.150  22.679  0.00  0.00    +0.010 A 
ATOM      7  C   UNL     1       9.860  -0.000  23.327  0.00  0.00    -0.014 A 
ATOM      8  C   UNL     1      10.256   1.284  22.923  0.00  0.00    +0.054 A 
ATOM      9  C   UNL     1       9.860   2.414  23.644  0.00  0.00    +0.121 A 
ATOM     10  C   UNL     1       9.011   2.269  24.738  0.00  0.00    +0.046 A 
ATOM     11  C   UNL     1       8.574   1.001  25.127  0.00  0.00    +0.012 A 
ATOM     12  C   UNL     1       9.001  -0.142  24.442  0.00  0.00    -0.016 A 
ATOM     13  C   UNL     1       8.629  -1.422  24.876  0.00  0.00    +0.037 A 
BRANCH   9  14
ATOM     14  O   UNL     1      10.338   3.609  23.176  0.00  0.00    -0.492 OA
BRANCH  14  15
ATOM     15  C   UNL     1       9.965   4.754  23.946  0.00  0.00    +0.229 C 
BRANCH  15  16
ATOM     16  C   UNL     1      10.971   5.869  23.670  0.00  0.00    +0.041 C 
BRANCH  16  17
ATOM     17  C   UNL     1      12.394   5.321  23.631  0.00  0.00    -0.000 C 
ATOM     18  C   UNL     1      13.079   5.626  22.310  0.00  0.00    +0.004 C 
ENDBRANCH  16  17
ENDBRANCH  15  16
ENDBRANCH  14  15
ENDBRANCH   9  14
ENDBRANCH   1   4
BRANCH   1  19
ATOM     19  N   UNL     1       7.814  -4.944  24.007  0.00  0.00    -0.176 NA
ATOM     20  H   UNL     1       8.178  -5.814  23.615  0.00  0.00    +0.149 HD
BRANCH  19  21
ATOM     21  C   UNL     1       6.799  -4.159  23.271  0.00  0.00    +0.185 C 
BRANCH  21  22
ATOM     22  C   UNL     1       6.586  -4.593  21.821  0.00  0.00    +0.324 C 
ATOM     23  O   UNL     1       5.804  -4.032  21.065  0.00  0.00    -0.249 OA
BRANCH  22  24
ATOM     24  O   UNL     1       7.260  -5.710  21.461  0.00  0.00    -0.479 OA
ATOM     25  H   UNL     1       7.160  -5.931  20.517  0.00  0.00    +0.295 HD
ENDBRANCH  22  24
ENDBRANCH  21  22
BRANCH  21  26
ATOM     26  C   UNL     1       5.448  -4.241  23.995  0.00  0.00    +0.043 C 
BRANCH  26  27
ATOM     27  C   UNL     1       5.115  -5.640  24.524  0.00  0.00    +0.122 C 
BRANCH  27  28
ATOM     28  C   UNL     1       4.044  -6.297  23.684  0.00  0.00    +0.305 C 
ATOM     29  O   UNL     1       3.380  -5.735  22.828  0.00  0.00    -0.251 OA
BRANCH  28  30
ATOM     30  O   UNL     1       3.890  -7.610  23.970  0.00  0.00    -0.481 OA
ATOM     31  H   UNL     1       3.246  -7.798  24.683  0.00  0.00    +0.295 HD
ENDBRANCH  28  30
ENDBRANCH  27  28
ENDBRANCH  26  27
ENDBRANCH  21  26
ENDBRANCH  19  21
ENDBRANCH   1  19
TORSDOF 13
ENDMDL
MODEL 5
REMARK VINA RESULT:      -6.9      1.461      1.950
REMARK  Name = 
REMARK  14 active torsions:
REMARK  status: ('A' for Active; 'I' for Inactive)
REMARK    1  A    between atoms: C_2  and  C_3
REMARK    2  A    between atoms: C_2  and  N_8
REMARK    3  A    between atoms: C_2  and  C_27
REMARK    4  A    between atoms: C_3  and  C_4
REMARK    5  A    between atoms: C_4  and  C_5
REMARK    6  A    between atoms: C_5  and  O_6
REMARK    7  A    between atoms: N_8  and  S_9
REMARK    8  A    between atoms: S_9  and  C_12
REMARK    9  A    between atoms: C_19  and  O_20
REMARK   10  A    between atoms: O_20  and  C_21
REMARK   11  A    between atoms: C_21  and  C_22
REMARK   12  A    between atoms: C_22  and  C_23
REMARK   13  A    between atoms: C_23  and  C_24
REMARK   14  A    between atoms: C_27  and  O_28
REMARK                            x       y       z     vdW  Elec       q    Type
REMARK                         _______ _______ _______ _____ _____    ______ ____
ROOT
ATOM      1  S   UNL     1       8.822  -2.979  23.741  0.00  0.00    +0.059 S 
ATOM      2  O   UNL     1       8.210  -3.279  22.471  0.00  0.00    -0.153 OA
ATOM      3  O   UNL     1      10.011  -3.663  24.193  0.00  0.00    -0.153 OA
ENDROOT
BRANCH   1   4
ATOM      4  C   UNL     1       9.112  -1.234  23.809  0.00  0.00    +0.106 A 
ATOM      5  C   UNL     1       9.747  -0.670  24.918  0.00  0.00    +0.029 A 
ATOM      6  C   UNL     1       9.823   0.719  25.042  0.00  0.00    +0.010 A 
ATOM      7  C   UNL     1       9.207   1.555  24.096  0.00  0.00    -0.014 A 
ATOM      8  C   UNL     1       9.183   2.949  24.259  0.00  0.00    +0.054 A 
ATOM      9  C   UNL     1       8.474   3.760  23.370  0.00  0.00    +0.121 A 
ATOM     10  C   UNL     1       7.837   3.185  22.273  0.00  0.00    +0.046 A 
ATOM     11  C   UNL     1       7.886   1.804  22.074  0.00  0.00    +0.012 A 
ATOM     12  C   UNL     1       8.554   0.976  22.984  0.00  0.00    -0.016 A 
ATOM     13  C   UNL     1       8.540  -0.418  22.831  0.00  0.00    +0.037 A 
BRANCH   9  14
ATOM     14  O   UNL     1       8.494   5.100  23.651  0.00  0.00    -0.492 OA
BRANCH  14  15
ATOM     15  C   UNL     1       9.589   5.532  24.464  0.00  0.00    +0.229 C 
BRANCH  15  16
ATOM     16  C   UNL     1      10.641   6.166  23.558  0.00  0.00    +0.041 C 
BRANCH  16  17
ATOM     17  C   UNL     1      12.032   5.625  23.878  0.00  0.00    -0.000 C 
ATOM     18  C   UNL     1      12.858   5.417  22.621  0.00  0.00    +0.004 C 
ENDBRANCH  16  17
ENDBRANCH  15  16
ENDBRANCH  14  15
ENDBRANCH   9  14
ENDBRANCH   1   4
BRANCH   1  19
ATOM     19  N   UNL     1       7.699  -3.301  24.953  0.00  0.00    -0.176 NA
ATOM     20  H   UNL     1       7.704  -2.619  25.712  0.00  0.00    +0.149 HD
BRANCH  19  21
ATOM     21  C   UNL     1       7.304  -4.704  25.210  0.00  0.00    +0.185 C 
BRANCH  21  22
ATOM     22  C   UNL     1       7.791  -5.268  26.544  0.00  0.00    +0.324 C 
ATOM     23  O   UNL     1       7.080  -5.931  27.287  0.00  0.00    -0.249 OA
BRANCH  22  24
ATOM     24  O   UNL     1       9.045  -4.896  26.891  0.00  0.00    -0.479 OA
ATOM     25  H   UNL     1       9.660  -4.869  26.135  0.00  0.00    +0.295 HD
ENDBRANCH  22  24
ENDBRANCH  21  22
BRANCH  21  26
ATOM     26  C   UNL     1       5.776  -4.834  25.168  0.00  0.00    +0.043 C 
BRANCH  26  27
ATOM     27  C   UNL     1       5.085  -3.732  24.356  0.00  0.00    +0.122 C 
BRANCH  27  28
ATOM     28  C   UNL     1       4.837  -4.181  22.935  0.00  0.00    +0.305 C 
ATOM     29  O   UNL     1       4.328  -5.242  22.612  0.00  0.00    -0.251 OA
BRANCH  28  30
ATOM     30  O   UNL     1       5.234  -3.265  22.022  0.00  0.00    -0.481 OA
ATOM     31  H   UNL     1       5.534  -3.642  21.171  0.00  0.00    +0.295 HD
ENDBRANCH  28  30
ENDBRANCH  27  28
ENDBRANCH  26  27
ENDBRANCH  21  26
ENDBRANCH  19  21
ENDBRANCH   1  19
TORSDOF 13
ENDMDL
MODEL 6
REMARK VINA RESULT:      -6.7      2.222      3.709
REMARK  Name = 
REMARK  14 active torsions:
REMARK  status: ('A' for Active; 'I' for Inactive)
REMARK    1  A    between atoms: C_2  and  C_3
REMARK    2  A    between atoms: C_2  and  N_8
REMARK    3  A    between atoms: C_2  and  C_27
REMARK    4  A    between atoms: C_3  and  C_4
REMARK    5  A    between atoms: C_4  and  C_5
REMARK    6  A    between atoms: C_5  and  O_6
REMARK    7  A    between atoms: N_8  and  S_9
REMARK    8  A    between atoms: S_9  and  C_12
REMARK    9  A    between atoms: C_19  and  O_20
REMARK   10  A    between atoms: O_20  and  C_21
REMARK   11  A    between atoms: C_21  and  C_22
REMARK   12  A    between atoms: C_22  and  C_23
REMARK   13  A    between atoms: C_23  and  C_24
REMARK   14  A    between atoms: C_27  and  O_28
REMARK                            x       y       z     vdW  Elec       q    Type
REMARK                         _______ _______ _______ _____ _____    ______ ____
ROOT
ATOM      1  S   UNL     1       8.508  -4.837  25.293  0.00  0.00    +0.059 S 
ATOM      2  O   UNL     1       9.417  -5.585  24.462  0.00  0.00    -0.153 OA
ATOM      3  O   UNL     1       8.307  -5.164  26.686  0.00  0.00    -0.153 OA
ENDROOT
BRANCH   1   4
ATOM      4  C   UNL     1       8.936  -3.124  25.170  0.00  0.00    +0.106 A 
ATOM      5  C   UNL     1       8.595  -2.238  26.194  0.00  0.00    +0.029 A 
ATOM      6  C   UNL     1       8.785  -0.866  26.017  0.00  0.00    +0.010 A 
ATOM      7  C   UNL     1       9.254  -0.362  24.793  0.00  0.00    -0.014 A 
ATOM      8  C   UNL     1       9.353   1.018  24.561  0.00  0.00    +0.054 A 
ATOM      9  C   UNL     1       9.715   1.507  23.304  0.00  0.00    +0.121 A 
ATOM     10  C   UNL     1      10.043   0.615  22.287  0.00  0.00    +0.046 A 
ATOM     11  C   UNL     1       9.990  -0.762  22.514  0.00  0.00    +0.012 A 
ATOM     12  C   UNL     1       9.584  -1.265  23.755  0.00  0.00    -0.016 A 
ATOM     13  C   UNL     1       9.453  -2.645  23.964  0.00  0.00    +0.037 A 
BRANCH   9  14
ATOM     14  O   UNL     1       9.743   2.872  23.188  0.00  0.00    -0.492 OA
BRANCH  14  15
ATOM     15  C   UNL     1       8.512   3.531  23.498  0.00  0.00    +0.229 C 
BRANCH  15  16
ATOM     16  C   UNL     1       7.622   3.497  22.258  0.00  0.00    +0.041 C 
BRANCH  16  17
ATOM     17  C   UNL     1       6.396   2.619  22.492  0.00  0.00    -0.000 C 
ATOM     18  C   UNL     1       6.021   2.556  23.962  0.00  0.00    +0.004 C 
ENDBRANCH  16  17
ENDBRANCH  15  16
ENDBRANCH  14  15
ENDBRANCH   9  14
ENDBRANCH   1   4
BRANCH   1  19
ATOM     19  N   UNL     1       6.965  -4.969  24.633  0.00  0.00    -0.176 NA
ATOM     20  H   UNL     1       6.361  -5.629  25.124  0.00  0.00    +0.149 HD
BRANCH  19  21
ATOM     21  C   UNL     1       6.780  -4.720  23.186  0.00  0.00    +0.185 C 
BRANCH  21  22
ATOM     22  C   UNL     1       6.152  -5.882  22.415  0.00  0.00    +0.324 C 
ATOM     23  O   UNL     1       6.813  -6.767  21.890  0.00  0.00    -0.249 OA
BRANCH  22  24
ATOM     24  O   UNL     1       4.809  -5.804  22.273  0.00  0.00    -0.479 OA
ATOM     25  H   UNL     1       4.321  -6.264  22.980  0.00  0.00    +0.295 HD
ENDBRANCH  22  24
ENDBRANCH  21  22
BRANCH  21  26
ATOM     26  C   UNL     1       5.902  -3.480  22.976  0.00  0.00    +0.043 C 
BRANCH  26  27
ATOM     27  C   UNL     1       5.340  -2.894  24.276  0.00  0.00    +0.122 C 
BRANCH  27  28
ATOM     28  C   UNL     1       5.583  -1.404  24.349  0.00  0.00    +0.305 C 
ATOM     29  O   UNL     1       5.281  -0.689  25.290  0.00  0.00    -0.251 OA
BRANCH  28  30
ATOM     30  O   UNL     1       6.196  -0.921  23.244  0.00  0.00    -0.481 OA
ATOM     31  H   UNL     1       6.704  -0.098  23.388  0.00  0.00    +0.295 HD
ENDBRANCH  28  30
ENDBRANCH  27  28
ENDBRANCH  26  27
ENDBRANCH  21  26
ENDBRANCH  19  21
ENDBRANCH   1  19
TORSDOF 13
ENDMDL
MODEL 7
REMARK VINA RESULT:      -6.7      2.027      3.187
REMARK  Name = 
REMARK  14 active torsions:
REMARK  status: ('A' for Active; 'I' for Inactive)
REMARK    1  A    between atoms: C_2  and  C_3
REMARK    2  A    between atoms: C_2  and  N_8
REMARK    3  A    between atoms: C_2  and  C_27
REMARK    4  A    between atoms: C_3  and  C_4
REMARK    5  A    between atoms: C_4  and  C_5
REMARK    6  A    between atoms: C_5  and  O_6
REMARK    7  A    between atoms: N_8  and  S_9
REMARK    8  A    between atoms: S_9  and  C_12
REMARK    9  A    between atoms: C_19  and  O_20
REMARK   10  A    between atoms: O_20  and  C_21
REMARK   11  A    between atoms: C_21  and  C_22
REMARK   12  A    between atoms: C_22  and  C_23
REMARK   13  A    between atoms: C_23  and  C_24
REMARK   14  A    between atoms: C_27  and  O_28
REMARK                            x       y       z     vdW  Elec       q    Type
REMARK                         _______ _______ _______ _____ _____    ______ ____
ROOT
ATOM      1  S   UNL     1       8.755  -4.433  25.479  0.00  0.00    +0.059 S 
ATOM      2  O   UNL     1       9.731  -5.158  24.705  0.00  0.00    -0.153 OA
ATOM      3  O   UNL     1       8.568  -4.681  26.890  0.00  0.00    -0.153 OA
ENDROOT
BRANCH   1   4
ATOM      4  C   UNL     1       9.043  -2.703  25.241  0.00  0.00    +0.106 A 
ATOM      5  C   UNL     1       8.591  -1.779  26.185  0.00  0.00    +0.029 A 
ATOM      6  C   UNL     1       8.672  -0.411  25.912  0.00  0.00    +0.010 A 
ATOM      7  C   UNL     1       9.142   0.041  24.669  0.00  0.00    -0.014 A 
ATOM      8  C   UNL     1       9.134   1.405  24.337  0.00  0.00    +0.054 A 
ATOM      9  C   UNL     1       9.501   1.832  23.059  0.00  0.00    +0.121 A 
ATOM     10  C   UNL     1       9.941   0.900  22.122  0.00  0.00    +0.046 A 
ATOM     11  C   UNL     1       9.995  -0.456  22.450  0.00  0.00    +0.012 A 
ATOM     12  C   UNL     1       9.585  -0.902  23.713  0.00  0.00    -0.016 A 
ATOM     13  C   UNL     1       9.563  -2.269  24.019  0.00  0.00    +0.037 A 
BRANCH   9  14
ATOM     14  O   UNL     1       9.419   3.182  22.842  0.00  0.00    -0.492 OA
BRANCH  14  15
ATOM     15  C   UNL     1      10.171   3.988  23.754  0.00  0.00    +0.229 C 
BRANCH  15  16
ATOM     16  C   UNL     1      11.641   3.932  23.347  0.00  0.00    +0.041 C 
BRANCH  16  17
ATOM     17  C   UNL     1      12.288   5.310  23.450  0.00  0.00    -0.000 C 
ATOM     18  C   UNL     1      13.207   5.590  22.274  0.00  0.00    +0.004 C 
ENDBRANCH  16  17
ENDBRANCH  15  16
ENDBRANCH  14  15
ENDBRANCH   9  14
ENDBRANCH   1   4
BRANCH   1  19
ATOM     19  N   UNL     1       7.235  -4.736  24.822  0.00  0.00    -0.176 NA
ATOM     20  H   UNL     1       6.823  -5.620  25.126  0.00  0.00    +0.149 HD
BRANCH  19  21
ATOM     21  C   UNL     1       6.901  -4.172  23.496  0.00  0.00    +0.185 C 
BRANCH  21  22
ATOM     22  C   UNL     1       6.791  -5.204  22.374  0.00  0.00    +0.324 C 
ATOM     23  O   UNL     1       7.559  -6.150  22.261  0.00  0.00    -0.249 OA
BRANCH  22  24
ATOM     24  O   UNL     1       5.836  -4.938  21.453  0.00  0.00    -0.479 OA
ATOM     25  H   UNL     1       4.965  -5.305  21.687  0.00  0.00    +0.295 HD
ENDBRANCH  22  24
ENDBRANCH  21  22
BRANCH  21  26
ATOM     26  C   UNL     1       5.573  -3.408  23.571  0.00  0.00    +0.043 C 
BRANCH  26  27
ATOM     27  C   UNL     1       5.732  -1.928  23.938  0.00  0.00    +0.122 C 
BRANCH  27  28
ATOM     28  C   UNL     1       5.169  -1.646  25.311  0.00  0.00    +0.305 C 
ATOM     29  O   UNL     1       4.750  -0.564  25.690  0.00  0.00    -0.251 OA
BRANCH  28  30
ATOM     30  O   UNL     1       5.162  -2.740  26.107  0.00  0.00    -0.481 OA
ATOM     31  H   UNL     1       5.255  -2.549  27.062  0.00  0.00    +0.295 HD
ENDBRANCH  28  30
ENDBRANCH  27  28
ENDBRANCH  26  27
ENDBRANCH  21  26
ENDBRANCH  19  21
ENDBRANCH   1  19
TORSDOF 13
ENDMDL
MODEL 8
REMARK VINA RESULT:      -6.7      2.204      3.153
REMARK  Name = 
REMARK  14 active torsions:
REMARK  status: ('A' for Active; 'I' for Inactive)
REMARK    1  A    between atoms: C_2  and  C_3
REMARK    2  A    between atoms: C_2  and  N_8
REMARK    3  A    between atoms: C_2  and  C_27
REMARK    4  A    between atoms: C_3  and  C_4
REMARK    5  A    between atoms: C_4  and  C_5
REMARK    6  A    between atoms: C_5  and  O_6
REMARK    7  A    between atoms: N_8  and  S_9
REMARK    8  A    between atoms: S_9  and  C_12
REMARK    9  A    between atoms: C_19  and  O_20
REMARK   10  A    between atoms: O_20  and  C_21
REMARK   11  A    between atoms: C_21  and  C_22
REMARK   12  A    between atoms: C_22  and  C_23
REMARK   13  A    between atoms: C_23  and  C_24
REMARK   14  A    between atoms: C_27  and  O_28
REMARK                            x       y       z     vdW  Elec       q    Type
REMARK                         _______ _______ _______ _____ _____    ______ ____
ROOT
ATOM      1  S   UNL     1       9.164  -2.145  22.936  0.00  0.00    +0.059 S 
ATOM      2  O   UNL     1       8.383  -2.550  21.795  0.00  0.00    -0.153 OA
ATOM      3  O   UNL     1      10.524  -2.596  23.126  0.00  0.00    -0.153 OA
ENDROOT
BRANCH   1   4
ATOM      4  C   UNL     1       9.137  -0.377  23.017  0.00  0.00    +0.106 A 
ATOM      5  C   UNL     1       9.989   0.377  22.207  0.00  0.00    +0.029 A 
ATOM      6  C   UNL     1      10.083   1.758  22.394  0.00  0.00    +0.010 A 
ATOM      7  C   UNL     1       9.379   2.387  23.433  0.00  0.00    -0.014 A 
ATOM      8  C   UNL     1       9.540   3.755  23.702  0.00  0.00    +0.054 A 
ATOM      9  C   UNL     1       8.919   4.345  24.805  0.00  0.00    +0.121 A 
ATOM     10  C   UNL     1       8.079   3.581  25.611  0.00  0.00    +0.046 A 
ATOM     11  C   UNL     1       7.875   2.228  25.333  0.00  0.00    +0.012 A 
ATOM     12  C   UNL     1       8.528   1.614  24.258  0.00  0.00    -0.016 A 
ATOM     13  C   UNL     1       8.388   0.240  24.022  0.00  0.00    +0.037 A 
BRANCH   9  14
ATOM     14  O   UNL     1       9.179   5.677  24.985  0.00  0.00    -0.492 OA
BRANCH  14  15
ATOM     15  C   UNL     1       9.325   6.434  23.780  0.00  0.00    +0.229 C 
BRANCH  15  16
ATOM     16  C   UNL     1       7.965   7.024  23.414  0.00  0.00    +0.041 C 
BRANCH  16  17
ATOM     17  C   UNL     1       7.418   6.382  22.143  0.00  0.00    -0.000 C 
ATOM     18  C   UNL     1       6.386   5.311  22.452  0.00  0.00    +0.004 C 
ENDBRANCH  16  17
ENDBRANCH  15  16
ENDBRANCH  14  15
ENDBRANCH   9  14
ENDBRANCH   1   4
BRANCH   1  19
ATOM     19  N   UNL     1       8.377  -2.676  24.326  0.00  0.00    -0.176 NA
ATOM     20  H   UNL     1       8.433  -2.021  25.108  0.00  0.00    +0.149 HD
BRANCH  19  21
ATOM     21  C   UNL     1       8.263  -4.130  24.575  0.00  0.00    +0.185 C 
BRANCH  21  22
ATOM     22  C   UNL     1       9.032  -4.629  25.799  0.00  0.00    +0.324 C 
ATOM     23  O   UNL     1       8.801  -4.238  26.936  0.00  0.00    -0.249 OA
BRANCH  22  24
ATOM     24  O   UNL     1      10.058  -5.465  25.519  0.00  0.00    -0.479 OA
ATOM     25  H   UNL     1      10.534  -5.228  24.703  0.00  0.00    +0.295 HD
ENDBRANCH  22  24
ENDBRANCH  21  22
BRANCH  21  26
ATOM     26  C   UNL     1       6.789  -4.518  24.749  0.00  0.00    +0.043 C 
BRANCH  26  27
ATOM     27  C   UNL     1       5.814  -3.362  24.504  0.00  0.00    +0.122 C 
BRANCH  27  28
ATOM     28  C   UNL     1       5.239  -3.423  23.108  0.00  0.00    +0.305 C 
ATOM     29  O   UNL     1       4.471  -4.279  22.701  0.00  0.00    -0.251 OA
BRANCH  28  30
ATOM     30  O   UNL     1       5.659  -2.402  22.326  0.00  0.00    -0.481 OA
ATOM     31  H   UNL     1       6.452  -2.601  21.789  0.00  0.00    +0.295 HD
ENDBRANCH  28  30
ENDBRANCH  27  28
ENDBRANCH  26  27
ENDBRANCH  21  26
ENDBRANCH  19  21
ENDBRANCH   1  19
TORSDOF 13
ENDMDL
MODEL 9
REMARK VINA RESULT:      -6.7      3.663      8.617
REMARK  Name = 
REMARK  14 active torsions:
REMARK  status: ('A' for Active; 'I' for Inactive)
REMARK    1  A    between atoms: C_2  and  C_3
REMARK    2  A    between atoms: C_2  and  N_8
REMARK    3  A    between atoms: C_2  and  C_27
REMARK    4  A    between atoms: C_3  and  C_4
REMARK    5  A    between atoms: C_4  and  C_5
REMARK    6  A    between atoms: C_5  and  O_6
REMARK    7  A    between atoms: N_8  and  S_9
REMARK    8  A    between atoms: S_9  and  C_12
REMARK    9  A    between atoms: C_19  and  O_20
REMARK   10  A    between atoms: O_20  and  C_21
REMARK   11  A    between atoms: C_21  and  C_22
REMARK   12  A    between atoms: C_22  and  C_23
REMARK   13  A    between atoms: C_23  and  C_24
REMARK   14  A    between atoms: C_27  and  O_28
REMARK                            x       y       z     vdW  Elec       q    Type
REMARK                         _______ _______ _______ _____ _____    ______ ____
ROOT
ATOM      1  S   UNL     1       9.481   3.769  23.864  0.00  0.00    +0.059 S 
ATOM      2  O   UNL     1       8.738   4.021  25.073  0.00  0.00    -0.153 OA
ATOM      3  O   UNL     1      10.738   4.427  23.593  0.00  0.00    -0.153 OA
ENDROOT
BRANCH   1   4
ATOM      4  C   UNL     1       9.715   2.020  23.721  0.00  0.00    +0.106 A 
ATOM      5  C   UNL     1      10.005   1.448  22.480  0.00  0.00    +0.029 A 
ATOM      6  C   UNL     1      10.023   0.059  22.343  0.00  0.00    +0.010 A 
ATOM      7  C   UNL     1       9.687  -0.770  23.426  0.00  0.00    -0.014 A 
ATOM      8  C   UNL     1       9.598  -2.162  23.280  0.00  0.00    +0.054 A 
ATOM      9  C   UNL     1       9.156  -2.965  24.335  0.00  0.00    +0.121 A 
ATOM     10  C   UNL     1       8.860  -2.383  25.565  0.00  0.00    +0.046 A 
ATOM     11  C   UNL     1       8.983  -1.003  25.739  0.00  0.00    +0.012 A 
ATOM     12  C   UNL     1       9.381  -0.183  24.676  0.00  0.00    -0.016 A 
ATOM     13  C   UNL     1       9.430   1.210  24.823  0.00  0.00    +0.037 A 
BRANCH   9  14
ATOM     14  O   UNL     1       9.077  -4.305  24.062  0.00  0.00    -0.492 OA
BRANCH  14  15
ATOM     15  C   UNL     1       7.810  -4.906  24.344  0.00  0.00    +0.229 C 
BRANCH  15  16
ATOM     16  C   UNL     1       6.904  -4.713  23.131  0.00  0.00    +0.041 C 
BRANCH  16  17
ATOM     17  C   UNL     1       7.280  -5.680  22.011  0.00  0.00    -0.000 C 
ATOM     18  C   UNL     1       6.147  -5.856  21.015  0.00  0.00    +0.004 C 
ENDBRANCH  16  17
ENDBRANCH  15  16
ENDBRANCH  14  15
ENDBRANCH   9  14
ENDBRANCH   1   4
BRANCH   1  19
ATOM     19  N   UNL     1       8.518   4.207  22.555  0.00  0.00    -0.176 NA
ATOM     20  H   UNL     1       9.032   4.659  21.798  0.00  0.00    +0.149 HD
BRANCH  19  21
ATOM     21  C   UNL     1       7.093   4.531  22.790  0.00  0.00    +0.185 C 
BRANCH  21  22
ATOM     22  C   UNL     1       6.628   5.848  22.167  0.00  0.00    +0.324 C 
ATOM     23  O   UNL     1       5.549   6.362  22.426  0.00  0.00    -0.249 OA
BRANCH  22  24
ATOM     24  O   UNL     1       7.462   6.355  21.230  0.00  0.00    -0.479 OA
ATOM     25  H   UNL     1       7.016   6.551  20.386  0.00  0.00    +0.295 HD
ENDBRANCH  22  24
ENDBRANCH  21  22
BRANCH  21  26
ATOM     26  C   UNL     1       6.204   3.406  22.243  0.00  0.00    +0.043 C 
BRANCH  26  27
ATOM     27  C   UNL     1       5.288   2.777  23.298  0.00  0.00    +0.122 C 
BRANCH  27  28
ATOM     28  C   UNL     1       5.928   1.553  23.912  0.00  0.00    +0.305 C 
ATOM     29  O   UNL     1       6.001   1.324  25.108  0.00  0.00    -0.251 OA
BRANCH  28  30
ATOM     30  O   UNL     1       6.421   0.701  22.983  0.00  0.00    -0.481 OA
ATOM     31  H   UNL     1       6.205  -0.240  23.141  0.00  0.00    +0.295 HD
ENDBRANCH  28  30
ENDBRANCH  27  28
ENDBRANCH  26  27
ENDBRANCH  21  26
ENDBRANCH  19  21
ENDBRANCH   1  19
TORSDOF 13
ENDMDL
