MODEL 1
REMARK VINA RESULT:      -6.6      0.000      0.000
REMARK  Name = 
REMARK  10 active torsions:
REMARK  status: ('A' for Active; 'I' for Inactive)
REMARK    1  A    between atoms: C_1  and  C_2
REMARK    2  A    between atoms: C_2  and  C_3
REMARK    3  A    between atoms: C_3  and  N_4
REMARK    4  A    between atoms: N_4  and  C_5
REMARK    5  A    between atoms: C_6  and  C_8
REMARK    6  A    between atoms: C_11  and  C_25
REMARK    7  A    between atoms: C_13  and  N_15
REMARK    8  A    between atoms: C_19  and  N_21
REMARK    9  A    between atoms: C_22  and  C_23
REMARK   10  A    between atoms: C_25  and  O_26
REMARK                            x       y       z     vdW  Elec       q    Type
REMARK                         _______ _______ _______ _____ _____    ______ ____
ROOT
ATOM      1  C   UNL     1       7.332  -1.689  22.737  0.00  0.00    +0.283 C 
ATOM      2  C   UNL     1       7.597  -3.216  22.915  0.00  0.00    +0.163 C 
ATOM      3  C   UNL     1       7.507  -3.716  24.381  0.00  0.00    +0.196 C 
ATOM      4  C   UNL     1       6.991  -2.730  25.358  0.00  0.00    +0.068 C 
ATOM      5  C   UNL     1       6.558  -1.513  25.022  0.00  0.00    +0.205 C 
ATOM      6  O   UNL     1       6.579  -1.006  23.748  0.00  0.00    -0.471 OA
ENDROOT
BRANCH   3   7
ATOM      7  N   UNL     1       8.804  -4.140  24.888  0.00  0.00    -0.268 N 
ATOM      8  H   UNL     1       9.565  -4.032  24.224  0.00  0.00    +0.259 HD
ATOM      9  C   UNL     1       9.001  -5.144  25.768  0.00  0.00    +0.377 C 
ATOM     10  N   UNL     1       8.129  -5.840  26.393  0.00  0.00    -0.130 NA
ATOM     11  H   UNL     1       7.190  -5.538  26.149  0.00  0.00    +0.306 HD
ATOM     12  N   UNL     1      10.310  -5.363  25.989  0.00  0.00    -0.289 N 
ATOM     13  H   UNL     1      10.422  -5.948  26.812  0.00  0.00    +0.255 HD
ATOM     14  H   UNL     1      10.854  -4.514  26.075  0.00  0.00    +0.255 HD
ENDBRANCH   3   7
BRANCH   2  15
ATOM     15  N   UNL     1       6.767  -4.041  21.999  0.00  0.00    -0.305 N 
ATOM     16  H   UNL     1       6.058  -3.560  21.455  0.00  0.00    +0.149 HD
ATOM     17  C   UNL     1       7.002  -5.371  21.760  0.00  0.00    +0.210 C 
ATOM     18  O   UNL     1       7.913  -5.989  22.298  0.00  0.00    -0.276 OA
ATOM     19  C   UNL     1       6.061  -6.003  20.770  0.00  0.00    +0.109 C 
ENDBRANCH   2  15
BRANCH   1  21
ATOM     20  N   UNL     1       8.572   0.460  22.230  0.00  0.00    -0.301 N 
ATOM     21  C   UNL     1       8.653  -0.915  22.489  0.00  0.00    +0.258 C 
ATOM     22  O   UNL     1       9.741  -1.497  22.508  0.00  0.00    -0.271 OA
ATOM     23  C   UNL     1       7.319   1.196  22.122  0.00  0.00    +0.132 C 
BRANCH  20  24
ATOM     24  C   UNL     1       9.799   1.179  21.867  0.00  0.00    +0.107 C 
BRANCH  24  26
ATOM     25  C   UNL     1      10.745   1.585  24.168  0.00  0.00    +0.005 C 
ATOM     26  C   UNL     1      10.197   2.232  22.904  0.00  0.00    +0.016 C 
ENDBRANCH  24  26
ENDBRANCH  20  24
ENDBRANCH   1  21
BRANCH   5  27
ATOM     27  C   UNL     1       5.977  -0.659  26.105  0.00  0.00    +0.372 C 
ATOM     28  O   UNL     1       6.509  -0.402  27.173  0.00  0.00    -0.242 OA
BRANCH  27  29
ATOM     29  O   UNL     1       4.769  -0.170  25.732  0.00  0.00    -0.475 OA
ATOM     30  H   UNL     1       4.068  -0.567  26.285  0.00  0.00    +0.296 HD
ENDBRANCH  27  29
ENDBRANCH   5  27
TORSDOF 7
ENDMDL
MODEL 2
REMARK VINA RESULT:      -6.5      4.091      6.815
REMARK  Name = 
REMARK  10 active torsions:
REMARK  status: ('A' for Active; 'I' for Inactive)
REMARK    1  A    between atoms: C_1  and  C_2
REMARK    2  A    between atoms: C_2  and  C_3
REMARK    3  A    between atoms: C_3  and  N_4
REMARK    4  A    between atoms: N_4  and  C_5
REMARK    5  A    between atoms: C_6  and  C_8
REMARK    6  A    between atoms: C_11  and  C_25
REMARK    7  A    between atoms: C_13  and  N_15
REMARK    8  A    between atoms: C_19  and  N_21
REMARK    9  A    between atoms: C_22  and  C_23
REMARK   10  A    between atoms: C_25  and  O_26
REMARK                            x       y       z     vdW  Elec       q    Type
REMARK                         _______ _______ _______ _____ _____    ______ ____
ROOT
ATOM      1  C   UNL     1       8.545   3.635  24.397  0.00  0.00    +0.283 C 
ATOM      2  C   UNL     1       8.802   2.098  24.320  0.00  0.00    +0.163 C 
ATOM      3  C   UNL     1      10.139   1.705  23.637  0.00  0.00    +0.196 C 
ATOM      4  C   UNL     1      11.057   2.830  23.343  0.00  0.00    +0.068 C 
ATOM      5  C   UNL     1      10.813   4.094  23.693  0.00  0.00    +0.205 C 
ATOM      6  O   UNL     1       9.671   4.519  24.322  0.00  0.00    -0.471 OA
ENDROOT
BRANCH   3   7
ATOM      7  N   UNL     1       9.917   1.027  22.367  0.00  0.00    -0.268 N 
ATOM      8  H   UNL     1       9.328   1.542  21.718  0.00  0.00    +0.259 HD
ATOM      9  C   UNL     1       9.849  -0.311  22.206  0.00  0.00    +0.377 C 
ATOM     10  N   UNL     1      10.052  -1.230  23.071  0.00  0.00    -0.130 NA
ATOM     11  H   UNL     1      10.299  -0.826  23.970  0.00  0.00    +0.306 HD
ATOM     12  N   UNL     1       9.553  -0.645  20.936  0.00  0.00    -0.289 N 
ATOM     13  H   UNL     1       9.737  -1.634  20.794  0.00  0.00    +0.255 HD
ATOM     14  H   UNL     1      10.038  -0.086  20.247  0.00  0.00    +0.255 HD
ENDBRANCH   3   7
BRANCH   2  15
ATOM     15  N   UNL     1       8.643   1.435  25.641  0.00  0.00    -0.305 N 
ATOM     16  H   UNL     1       8.904   1.970  26.463  0.00  0.00    +0.149 HD
ATOM     17  C   UNL     1       8.043   0.213  25.803  0.00  0.00    +0.210 C 
ATOM     18  O   UNL     1       7.602  -0.438  24.863  0.00  0.00    -0.276 OA
ATOM     19  C   UNL     1       7.954  -0.255  27.231  0.00  0.00    +0.109 C 
ENDBRANCH   2  15
BRANCH   1  21
ATOM     20  N   UNL     1       6.437   4.898  23.783  0.00  0.00    -0.301 N 
ATOM     21  C   UNL     1       7.490   4.081  23.350  0.00  0.00    +0.258 C 
ATOM     22  O   UNL     1       7.571   3.715  22.175  0.00  0.00    -0.271 OA
ATOM     23  C   UNL     1       6.241   5.309  25.167  0.00  0.00    +0.132 C 
BRANCH  20  24
ATOM     24  C   UNL     1       5.364   5.221  22.835  0.00  0.00    +0.107 C 
BRANCH  24  26
ATOM     25  C   UNL     1       6.483   7.107  21.593  0.00  0.00    +0.005 C 
ATOM     26  C   UNL     1       5.313   6.709  22.481  0.00  0.00    +0.016 C 
ENDBRANCH  24  26
ENDBRANCH  20  24
ENDBRANCH   1  21
BRANCH   5  27
ATOM     27  C   UNL     1      11.876   5.110  23.412  0.00  0.00    +0.372 C 
ATOM     28  O   UNL     1      12.358   5.881  24.226  0.00  0.00    -0.242 OA
BRANCH  27  29
ATOM     29  O   UNL     1      12.268   5.046  22.117  0.00  0.00    -0.475 OA
ATOM     30  H   UNL     1      11.498   5.183  21.532  0.00  0.00    +0.296 HD
ENDBRANCH  27  29
ENDBRANCH   5  27
TORSDOF 7
ENDMDL
MODEL 3
REMARK VINA RESULT:      -6.5      2.307      4.430
REMARK  Name = 
REMARK  10 active torsions:
REMARK  status: ('A' for Active; 'I' for Inactive)
REMARK    1  A    between atoms: C_1  and  C_2
REMARK    2  A    between atoms: C_2  and  C_3
REMARK    3  A    between atoms: C_3  and  N_4
REMARK    4  A    between atoms: N_4  and  C_5
REMARK    5  A    between atoms: C_6  and  C_8
REMARK    6  A    between atoms: C_11  and  C_25
REMARK    7  A    between atoms: C_13  and  N_15
REMARK    8  A    between atoms: C_19  and  N_21
REMARK    9  A    between atoms: C_22  and  C_23
REMARK   10  A    between atoms: C_25  and  O_26
REMARK                            x       y       z     vdW  Elec       q    Type
REMARK                         _______ _______ _______ _____ _____    ______ ____
ROOT
ATOM      1  C   UNL     1       6.221  -2.028  24.421  0.00  0.00    +0.283 C 
ATOM      2  C   UNL     1       6.650  -3.059  25.510  0.00  0.00    +0.163 C 
ATOM      3  C   UNL     1       7.959  -2.694  26.259  0.00  0.00    +0.196 C 
ATOM      4  C   UNL     1       8.495  -1.342  25.979  0.00  0.00    +0.068 C 
ATOM      5  C   UNL     1       7.881  -0.450  25.199  0.00  0.00    +0.205 C 
ATOM      6  O   UNL     1       6.710  -0.684  24.525  0.00  0.00    -0.471 OA
ENDROOT
BRANCH   3   7
ATOM      7  N   UNL     1       9.036  -3.623  25.948  0.00  0.00    -0.268 N 
ATOM      8  H   UNL     1       9.471  -3.468  25.043  0.00  0.00    +0.259 HD
ATOM      9  C   UNL     1       9.090  -4.910  26.354  0.00  0.00    +0.377 C 
ATOM     10  N   UNL     1       8.297  -5.531  27.141  0.00  0.00    -0.130 NA
ATOM     11  H   UNL     1       7.561  -4.912  27.468  0.00  0.00    +0.306 HD
ATOM     12  N   UNL     1      10.161  -5.547  25.846  0.00  0.00    -0.289 N 
ATOM     13  H   UNL     1      10.302  -6.422  26.344  0.00  0.00    +0.255 HD
ATOM     14  H   UNL     1      11.004  -4.990  25.851  0.00  0.00    +0.255 HD
ENDBRANCH   3   7
BRANCH   2  15
ATOM     15  N   UNL     1       5.545  -3.373  26.453  0.00  0.00    -0.305 N 
ATOM     16  H   UNL     1       5.074  -2.589  26.893  0.00  0.00    +0.149 HD
ATOM     17  C   UNL     1       5.054  -4.639  26.645  0.00  0.00    +0.210 C 
ATOM     18  O   UNL     1       5.501  -5.618  26.059  0.00  0.00    -0.276 OA
ATOM     19  C   UNL     1       3.910  -4.724  27.618  0.00  0.00    +0.109 C 
ENDBRANCH   2  15
BRANCH   1  21
ATOM     20  N   UNL     1       5.615  -3.465  22.425  0.00  0.00    -0.301 N 
ATOM     21  C   UNL     1       6.521  -2.560  22.995  0.00  0.00    +0.258 C 
ATOM     22  O   UNL     1       7.534  -2.205  22.387  0.00  0.00    -0.271 OA
ATOM     23  C   UNL     1       4.438  -3.981  23.113  0.00  0.00    +0.132 C 
BRANCH  20  24
ATOM     24  C   UNL     1       5.950  -4.075  21.133  0.00  0.00    +0.107 C 
BRANCH  24  26
ATOM     25  C   UNL     1       7.323  -5.990  22.028  0.00  0.00    +0.005 C 
ATOM     26  C   UNL     1       6.098  -5.596  21.216  0.00  0.00    +0.016 C 
ENDBRANCH  24  26
ENDBRANCH  20  24
ENDBRANCH   1  21
BRANCH   5  27
ATOM     27  C   UNL     1       8.495   0.910  25.083  0.00  0.00    +0.372 C 
ATOM     28  O   UNL     1       7.904   1.935  24.783  0.00  0.00    -0.242 OA
BRANCH  27  29
ATOM     29  O   UNL     1       9.814   0.868  25.387  0.00  0.00    -0.475 OA
ATOM     30  H   UNL     1      10.303   1.502  24.827  0.00  0.00    +0.296 HD
ENDBRANCH  27  29
ENDBRANCH   5  27
TORSDOF 7
ENDMDL
MODEL 4
REMARK VINA RESULT:      -6.3      1.454      1.702
REMARK  Name = 
REMARK  10 active torsions:
REMARK  status: ('A' for Active; 'I' for Inactive)
REMARK    1  A    between atoms: C_1  and  C_2
REMARK    2  A    between atoms: C_2  and  C_3
REMARK    3  A    between atoms: C_3  and  N_4
REMARK    4  A    between atoms: N_4  and  C_5
REMARK    5  A    between atoms: C_6  and  C_8
REMARK    6  A    between atoms: C_11  and  C_25
REMARK    7  A    between atoms: C_13  and  N_15
REMARK    8  A    between atoms: C_19  and  N_21
REMARK    9  A    between atoms: C_22  and  C_23
REMARK   10  A    between atoms: C_25  and  O_26
REMARK                            x       y       z     vdW  Elec       q    Type
REMARK                         _______ _______ _______ _____ _____    ______ ____
ROOT
ATOM      1  C   UNL     1       7.091  -1.665  23.635  0.00  0.00    +0.283 C 
ATOM      2  C   UNL     1       6.940  -3.206  23.830  0.00  0.00    +0.163 C 
ATOM      3  C   UNL     1       6.146  -3.617  25.098  0.00  0.00    +0.196 C 
ATOM      4  C   UNL     1       5.483  -2.507  25.820  0.00  0.00    +0.068 C 
ATOM      5  C   UNL     1       5.488  -1.242  25.396  0.00  0.00    +0.205 C 
ATOM      6  O   UNL     1       6.142  -0.802  24.274  0.00  0.00    -0.471 OA
ENDROOT
BRANCH   3   7
ATOM      7  N   UNL     1       6.997  -4.279  26.076  0.00  0.00    -0.268 N 
ATOM      8  H   UNL     1       7.975  -4.006  26.030  0.00  0.00    +0.259 HD
ATOM      9  C   UNL     1       6.814  -5.534  26.539  0.00  0.00    +0.377 C 
ATOM     10  N   UNL     1       5.846  -6.337  26.305  0.00  0.00    -0.130 NA
ATOM     11  H   UNL     1       5.163  -5.904  25.690  0.00  0.00    +0.306 HD
ATOM     12  N   UNL     1       7.802  -5.907  27.371  0.00  0.00    -0.289 N 
ATOM     13  H   UNL     1       7.523  -6.744  27.876  0.00  0.00    +0.255 HD
ATOM     14  H   UNL     1       8.089  -5.179  28.012  0.00  0.00    +0.255 HD
ENDBRANCH   3   7
BRANCH   2  15
ATOM     15  N   UNL     1       6.419  -3.877  22.611  0.00  0.00    -0.305 N 
ATOM     16  H   UNL     1       5.787  -3.344  22.022  0.00  0.00    +0.149 HD
ATOM     17  C   UNL     1       6.851  -5.107  22.184  0.00  0.00    +0.210 C 
ATOM     18  O   UNL     1       7.696  -5.757  22.788  0.00  0.00    -0.276 OA
ATOM     19  C   UNL     1       6.216  -5.583  20.906  0.00  0.00    +0.109 C 
ENDBRANCH   2  15
BRANCH   1  21
ATOM     20  N   UNL     1       9.147  -0.268  23.150  0.00  0.00    -0.301 N 
ATOM     21  C   UNL     1       8.523  -1.191  24.000  0.00  0.00    +0.258 C 
ATOM     22  O   UNL     1       9.097  -1.624  25.002  0.00  0.00    -0.271 OA
ATOM     23  C   UNL     1       8.557   0.230  21.914  0.00  0.00    +0.132 C 
BRANCH  20  24
ATOM     24  C   UNL     1      10.546   0.090  23.410  0.00  0.00    +0.107 C 
BRANCH  24  26
ATOM     25  C   UNL     1      10.744   2.600  23.551  0.00  0.00    +0.005 C 
ATOM     26  C   UNL     1      10.685   1.299  24.339  0.00  0.00    +0.016 C 
ENDBRANCH  24  26
ENDBRANCH  20  24
ENDBRANCH   1  21
BRANCH   5  27
ATOM     27  C   UNL     1       4.696  -0.244  26.181  0.00  0.00    +0.372 C 
ATOM     28  O   UNL     1       4.385   0.875  25.804  0.00  0.00    -0.242 OA
BRANCH  27  29
ATOM     29  O   UNL     1       4.331  -0.758  27.380  0.00  0.00    -0.475 OA
ATOM     30  H   UNL     1       5.118  -0.849  27.953  0.00  0.00    +0.296 HD
ENDBRANCH  27  29
ENDBRANCH   5  27
TORSDOF 7
ENDMDL
MODEL 5
REMARK VINA RESULT:      -6.1      2.854      4.677
REMARK  Name = 
REMARK  10 active torsions:
REMARK  status: ('A' for Active; 'I' for Inactive)
REMARK    1  A    between atoms: C_1  and  C_2
REMARK    2  A    between atoms: C_2  and  C_3
REMARK    3  A    between atoms: C_3  and  N_4
REMARK    4  A    between atoms: N_4  and  C_5
REMARK    5  A    between atoms: C_6  and  C_8
REMARK    6  A    between atoms: C_11  and  C_25
REMARK    7  A    between atoms: C_13  and  N_15
REMARK    8  A    between atoms: C_19  and  N_21
REMARK    9  A    between atoms: C_22  and  C_23
REMARK   10  A    between atoms: C_25  and  O_26
REMARK                            x       y       z     vdW  Elec       q    Type
REMARK                         _______ _______ _______ _____ _____    ______ ____
ROOT
ATOM      1  C   UNL     1       6.571  -2.096  25.321  0.00  0.00    +0.283 C 
ATOM      2  C   UNL     1       5.274  -2.963  25.349  0.00  0.00    +0.163 C 
ATOM      3  C   UNL     1       5.521  -4.490  25.237  0.00  0.00    +0.196 C 
ATOM      4  C   UNL     1       6.937  -4.912  25.323  0.00  0.00    +0.068 C 
ATOM      5  C   UNL     1       7.947  -4.072  25.553  0.00  0.00    +0.205 C 
ATOM      6  O   UNL     1       7.811  -2.714  25.690  0.00  0.00    -0.471 OA
ENDROOT
BRANCH   3   7
ATOM      7  N   UNL     1       5.018  -5.027  23.980  0.00  0.00    -0.268 N 
ATOM      8  H   UNL     1       4.607  -4.330  23.365  0.00  0.00    +0.259 HD
ATOM      9  C   UNL     1       4.491  -6.259  23.820  0.00  0.00    +0.377 C 
ATOM     10  N   UNL     1       4.413  -7.210  24.671  0.00  0.00    -0.130 NA
ATOM     11  H   UNL     1       4.827  -6.932  25.556  0.00  0.00    +0.306 HD
ATOM     12  N   UNL     1       4.036  -6.447  22.568  0.00  0.00    -0.289 N 
ATOM     13  H   UNL     1       3.866  -7.437  22.414  0.00  0.00    +0.255 HD
ATOM     14  H   UNL     1       4.647  -6.073  21.854  0.00  0.00    +0.255 HD
ENDBRANCH   3   7
BRANCH   2  15
ATOM     15  N   UNL     1       4.400  -2.629  26.504  0.00  0.00    -0.305 N 
ATOM     16  H   UNL     1       4.856  -2.333  27.361  0.00  0.00    +0.149 HD
ATOM     17  C   UNL     1       3.032  -2.571  26.423  0.00  0.00    +0.210 C 
ATOM     18  O   UNL     1       2.420  -2.806  25.388  0.00  0.00    -0.276 OA
ATOM     19  C   UNL     1       2.346  -2.179  27.704  0.00  0.00    +0.109 C 
ENDBRANCH   2  15
BRANCH   1  21
ATOM     20  N   UNL     1       7.147  -0.053  23.940  0.00  0.00    -0.301 N 
ATOM     21  C   UNL     1       6.750  -1.396  23.948  0.00  0.00    +0.258 C 
ATOM     22  O   UNL     1       6.535  -2.004  22.896  0.00  0.00    -0.271 OA
ATOM     23  C   UNL     1       7.348   0.744  25.143  0.00  0.00    +0.132 C 
BRANCH  20  24
ATOM     24  C   UNL     1       7.196   0.657  22.657  0.00  0.00    +0.107 C 
BRANCH  24  26
ATOM     25  C   UNL     1       9.344   0.167  21.431  0.00  0.00    +0.005 C 
ATOM     26  C   UNL     1       8.599   1.161  22.311  0.00  0.00    +0.016 C 
ENDBRANCH  24  26
ENDBRANCH  20  24
ENDBRANCH   1  21
BRANCH   5  27
ATOM     27  C   UNL     1       9.317  -4.655  25.706  0.00  0.00    +0.372 C 
ATOM     28  O   UNL     1      10.104  -4.874  24.800  0.00  0.00    -0.242 OA
BRANCH  27  29
ATOM     29  O   UNL     1       9.593  -4.890  27.012  0.00  0.00    -0.475 OA
ATOM     30  H   UNL     1       9.606  -4.045  27.503  0.00  0.00    +0.296 HD
ENDBRANCH  27  29
ENDBRANCH   5  27
TORSDOF 7
ENDMDL
MODEL 6
REMARK VINA RESULT:      -5.9      3.044      6.262
REMARK  Name = 
REMARK  10 active torsions:
REMARK  status: ('A' for Active; 'I' for Inactive)
REMARK    1  A    between atoms: C_1  and  C_2
REMARK    2  A    between atoms: C_2  and  C_3
REMARK    3  A    between atoms: C_3  and  N_4
REMARK    4  A    between atoms: N_4  and  C_5
REMARK    5  A    between atoms: C_6  and  C_8
REMARK    6  A    between atoms: C_11  and  C_25
REMARK    7  A    between atoms: C_13  and  N_15
REMARK    8  A    between atoms: C_19  and  N_21
REMARK    9  A    between atoms: C_22  and  C_23
REMARK   10  A    between atoms: C_25  and  O_26
REMARK                            x       y       z     vdW  Elec       q    Type
REMARK                         _______ _______ _______ _____ _____    ______ ____
ROOT
ATOM      1  C   UNL     1       6.888  -3.099  23.806  0.00  0.00    +0.283 C 
ATOM      2  C   UNL     1       7.366  -1.650  24.131  0.00  0.00    +0.163 C 
ATOM      3  C   UNL     1       8.097  -1.505  25.492  0.00  0.00    +0.196 C 
ATOM      4  C   UNL     1       8.411  -2.777  26.182  0.00  0.00    +0.068 C 
ATOM      5  C   UNL     1       8.161  -3.981  25.664  0.00  0.00    +0.205 C 
ATOM      6  O   UNL     1       7.544  -4.194  24.458  0.00  0.00    -0.471 OA
ENDROOT
BRANCH   3   7
ATOM      7  N   UNL     1       7.322  -0.716  26.439  0.00  0.00    -0.268 N 
ATOM      8  H   UNL     1       6.399  -1.092  26.637  0.00  0.00    +0.259 HD
ATOM      9  C   UNL     1       7.392   0.626  26.568  0.00  0.00    +0.377 C 
ATOM     10  N   UNL     1       8.185   1.443  25.985  0.00  0.00    -0.130 NA
ATOM     11  H   UNL     1       8.818   0.946  25.366  0.00  0.00    +0.306 HD
ATOM     12  N   UNL     1       6.502   1.087  27.466  0.00  0.00    -0.289 N 
ATOM     13  H   UNL     1       6.733   2.046  27.711  0.00  0.00    +0.255 HD
ATOM     14  H   UNL     1       6.428   0.512  28.294  0.00  0.00    +0.255 HD
ENDBRANCH   3   7
BRANCH   2  15
ATOM     15  N   UNL     1       8.150  -1.054  23.018  0.00  0.00    -0.305 N 
ATOM     16  H   UNL     1       8.746  -1.679  22.484  0.00  0.00    +0.149 HD
ATOM     17  C   UNL     1       8.002   0.244  22.601  0.00  0.00    +0.210 C 
ATOM     18  O   UNL     1       7.216   1.023  23.128  0.00  0.00    -0.276 OA
ATOM     19  C   UNL     1       8.870   0.628  21.434  0.00  0.00    +0.109 C 
ENDBRANCH   2  15
BRANCH   1  21
ATOM     20  N   UNL     1       4.712  -4.327  23.392  0.00  0.00    -0.301 N 
ATOM     21  C   UNL     1       5.357  -3.244  24.005  0.00  0.00    +0.258 C 
ATOM     22  O   UNL     1       4.725  -2.421  24.673  0.00  0.00    -0.271 OA
ATOM     23  C   UNL     1       5.383  -5.294  22.533  0.00  0.00    +0.132 C 
BRANCH  20  24
ATOM     24  C   UNL     1       3.248  -4.404  23.464  0.00  0.00    +0.107 C 
BRANCH  24  26
ATOM     25  C   UNL     1       1.317  -5.875  22.785  0.00  0.00    +0.005 C 
ATOM     26  C   UNL     1       2.725  -5.839  23.361  0.00  0.00    +0.016 C 
ENDBRANCH  24  26
ENDBRANCH  20  24
ENDBRANCH   1  21
BRANCH   5  27
ATOM     27  C   UNL     1       8.619  -5.178  26.437  0.00  0.00    +0.372 C 
ATOM     28  O   UNL     1       8.018  -5.703  27.361  0.00  0.00    -0.242 OA
BRANCH  27  29
ATOM     29  O   UNL     1       9.798  -5.638  25.953  0.00  0.00    -0.475 OA
ATOM     30  H   UNL     1      10.538  -5.212  26.429  0.00  0.00    +0.296 HD
ENDBRANCH  27  29
ENDBRANCH   5  27
TORSDOF 7
ENDMDL
MODEL 7
REMARK VINA RESULT:      -5.9      2.213      4.863
REMARK  Name = 
REMARK  10 active torsions:
REMARK  status: ('A' for Active; 'I' for Inactive)
REMARK    1  A    between atoms: C_1  and  C_2
REMARK    2  A    between atoms: C_2  and  C_3
REMARK    3  A    between atoms: C_3  and  N_4
REMARK    4  A    between atoms: N_4  and  C_5
REMARK    5  A    between atoms: C_6  and  C_8
REMARK    6  A    between atoms: C_11  and  C_25
REMARK    7  A    between atoms: C_13  and  N_15
REMARK    8  A    between atoms: C_19  and  N_21
REMARK    9  A    between atoms: C_22  and  C_23
REMARK   10  A    between atoms: C_25  and  O_26
REMARK                            x       y       z     vdW  Elec       q    Type
REMARK                         _______ _______ _______ _____ _____    ______ ____
ROOT
ATOM      1  C   UNL     1       6.619  -1.175  23.752  0.00  0.00    +0.283 C 
ATOM      2  C   UNL     1       8.063  -1.555  24.205  0.00  0.00    +0.163 C 
ATOM      3  C   UNL     1       8.392  -3.067  24.093  0.00  0.00    +0.196 C 
ATOM      4  C   UNL     1       7.377  -3.889  23.396  0.00  0.00    +0.068 C 
ATOM      5  C   UNL     1       6.280  -3.385  22.828  0.00  0.00    +0.205 C 
ATOM      6  O   UNL     1       5.930  -2.059  22.858  0.00  0.00    -0.471 OA
ENDROOT
BRANCH   3   7
ATOM      7  N   UNL     1       8.571  -3.678  25.403  0.00  0.00    -0.268 N 
ATOM      8  H   UNL     1       8.416  -3.044  26.182  0.00  0.00    +0.259 HD
ATOM      9  C   UNL     1       9.446  -4.667  25.684  0.00  0.00    +0.377 C 
ATOM     10  N   UNL     1      10.200  -5.316  24.880  0.00  0.00    -0.130 NA
ATOM     11  H   UNL     1      10.063  -4.997  23.926  0.00  0.00    +0.306 HD
ATOM     12  N   UNL     1       9.448  -4.973  26.994  0.00  0.00    -0.289 N 
ATOM     13  H   UNL     1       9.929  -5.857  27.135  0.00  0.00    +0.255 HD
ATOM     14  H   UNL     1       8.524  -4.997  27.406  0.00  0.00    +0.255 HD
ENDBRANCH   3   7
BRANCH   2  15
ATOM     15  N   UNL     1       9.097  -0.716  23.545  0.00  0.00    -0.305 N 
ATOM     16  H   UNL     1       9.395  -0.992  22.615  0.00  0.00    +0.149 HD
ATOM     17  C   UNL     1       9.555   0.466  24.069  0.00  0.00    +0.210 C 
ATOM     18  O   UNL     1       9.153   0.917  25.135  0.00  0.00    -0.276 OA
ATOM     19  C   UNL     1      10.576   1.172  23.218  0.00  0.00    +0.109 C 
ENDBRANCH   2  15
BRANCH   1  21
ATOM     20  N   UNL     1       5.347   0.442  25.230  0.00  0.00    -0.301 N 
ATOM     21  C   UNL     1       5.705  -0.888  24.973  0.00  0.00    +0.258 C 
ATOM     22  O   UNL     1       5.317  -1.805  25.702  0.00  0.00    -0.271 OA
ATOM     23  C   UNL     1       5.826   1.579  24.454  0.00  0.00    +0.132 C 
BRANCH  20  24
ATOM     24  C   UNL     1       4.592   0.742  26.452  0.00  0.00    +0.107 C 
BRANCH  24  26
ATOM     25  C   UNL     1       5.026   2.660  28.029  0.00  0.00    +0.005 C 
ATOM     26  C   UNL     1       5.477   1.277  27.579  0.00  0.00    +0.016 C 
ENDBRANCH  24  26
ENDBRANCH  20  24
ENDBRANCH   1  21
BRANCH   5  27
ATOM     27  C   UNL     1       5.391  -4.325  22.077  0.00  0.00    +0.372 C 
ATOM     28  O   UNL     1       4.404  -4.885  22.526  0.00  0.00    -0.242 OA
BRANCH  27  29
ATOM     29  O   UNL     1       5.810  -4.460  20.796  0.00  0.00    -0.475 OA
ATOM     30  H   UNL     1       6.699  -4.065  20.696  0.00  0.00    +0.296 HD
ENDBRANCH  27  29
ENDBRANCH   5  27
TORSDOF 7
ENDMDL
MODEL 8
REMARK VINA RESULT:      -5.8      4.214      7.496
REMARK  Name = 
REMARK  10 active torsions:
REMARK  status: ('A' for Active; 'I' for Inactive)
REMARK    1  A    between atoms: C_1  and  C_2
REMARK    2  A    between atoms: C_2  and  C_3
REMARK    3  A    between atoms: C_3  and  N_4
REMARK    4  A    between atoms: N_4  and  C_5
REMARK    5  A    between atoms: C_6  and  C_8
REMARK    6  A    between atoms: C_11  and  C_25
REMARK    7  A    between atoms: C_13  and  N_15
REMARK    8  A    between atoms: C_19  and  N_21
REMARK    9  A    between atoms: C_22  and  C_23
REMARK   10  A    between atoms: C_25  and  O_26
REMARK                            x       y       z     vdW  Elec       q    Type
REMARK                         _______ _______ _______ _____ _____    ______ ____
ROOT
ATOM      1  C   UNL     1       6.725   1.177  23.943  0.00  0.00    +0.283 C 
ATOM      2  C   UNL     1       6.444   2.494  23.156  0.00  0.00    +0.163 C 
ATOM      3  C   UNL     1       7.545   2.876  22.132  0.00  0.00    +0.196 C 
ATOM      4  C   UNL     1       8.587   1.849  21.906  0.00  0.00    +0.068 C 
ATOM      5  C   UNL     1       8.570   0.641  22.472  0.00  0.00    +0.205 C 
ATOM      6  O   UNL     1       7.620   0.216  23.366  0.00  0.00    -0.471 OA
ENDROOT
BRANCH   3   7
ATOM      7  N   UNL     1       8.254   4.085  22.527  0.00  0.00    -0.268 N 
ATOM      8  H   UNL     1       8.793   3.990  23.384  0.00  0.00    +0.259 HD
ATOM      9  C   UNL     1       7.822   5.345  22.304  0.00  0.00    +0.377 C 
ATOM     10  N   UNL     1       6.798   5.731  21.644  0.00  0.00    -0.130 NA
ATOM     11  H   UNL     1       6.297   4.933  21.262  0.00  0.00    +0.306 HD
ATOM     12  N   UNL     1       8.644   6.257  22.854  0.00  0.00    -0.289 N 
ATOM     13  H   UNL     1       8.429   7.177  22.479  0.00  0.00    +0.255 HD
ATOM     14  H   UNL     1       9.625   6.042  22.738  0.00  0.00    +0.255 HD
ENDBRANCH   3   7
BRANCH   2  15
ATOM     15  N   UNL     1       5.092   2.503  22.541  0.00  0.00    -0.305 N 
ATOM     16  H   UNL     1       4.777   1.645  22.098  0.00  0.00    +0.149 HD
ATOM     17  C   UNL     1       4.215   3.551  22.662  0.00  0.00    +0.210 C 
ATOM     18  O   UNL     1       4.487   4.573  23.280  0.00  0.00    -0.276 OA
ATOM     19  C   UNL     1       2.886   3.334  21.990  0.00  0.00    +0.109 C 
ENDBRANCH   2  15
BRANCH   1  21
ATOM     20  N   UNL     1       6.640   0.701  26.429  0.00  0.00    -0.301 N 
ATOM     21  C   UNL     1       7.182   1.476  25.395  0.00  0.00    +0.258 C 
ATOM     22  O   UNL     1       7.989   2.378  25.631  0.00  0.00    -0.271 OA
ATOM     23  C   UNL     1       5.630  -0.331  26.230  0.00  0.00    +0.132 C 
BRANCH  20  24
ATOM     24  C   UNL     1       6.963   1.057  27.816  0.00  0.00    +0.107 C 
BRANCH  24  26
ATOM     25  C   UNL     1       6.269   2.951  29.328  0.00  0.00    +0.005 C 
ATOM     26  C   UNL     1       5.799   1.736  28.540  0.00  0.00    +0.016 C 
ENDBRANCH  24  26
ENDBRANCH  20  24
ENDBRANCH   1  21
BRANCH   5  27
ATOM     27  C   UNL     1       9.641  -0.327  22.078  0.00  0.00    +0.372 C 
ATOM     28  O   UNL     1      10.555  -0.709  22.790  0.00  0.00    -0.242 OA
BRANCH  27  29
ATOM     29  O   UNL     1       9.449  -0.761  20.809  0.00  0.00    -0.475 OA
ATOM     30  H   UNL     1       8.665  -0.321  20.424  0.00  0.00    +0.296 HD
ENDBRANCH  27  29
ENDBRANCH   5  27
TORSDOF 7
ENDMDL
MODEL 9
REMARK VINA RESULT:      -5.8      3.638      7.815
REMARK  Name = 
REMARK  10 active torsions:
REMARK  status: ('A' for Active; 'I' for Inactive)
REMARK    1  A    between atoms: C_1  and  C_2
REMARK    2  A    between atoms: C_2  and  C_3
REMARK    3  A    between atoms: C_3  and  N_4
REMARK    4  A    between atoms: N_4  and  C_5
REMARK    5  A    between atoms: C_6  and  C_8
REMARK    6  A    between atoms: C_11  and  C_25
REMARK    7  A    between atoms: C_13  and  N_15
REMARK    8  A    between atoms: C_19  and  N_21
REMARK    9  A    between atoms: C_22  and  C_23
REMARK   10  A    between atoms: C_25  and  O_26
REMARK                            x       y       z     vdW  Elec       q    Type
REMARK                         _______ _______ _______ _____ _____    ______ ____
ROOT
ATOM      1  C   UNL     1       9.660   1.799  23.818  0.00  0.00    +0.283 C 
ATOM      2  C   UNL     1       9.906   3.226  23.239  0.00  0.00    +0.163 C 
ATOM      3  C   UNL     1       8.918   4.306  23.754  0.00  0.00    +0.196 C 
ATOM      4  C   UNL     1       8.027   3.878  24.856  0.00  0.00    +0.068 C 
ATOM      5  C   UNL     1       8.092   2.679  25.437  0.00  0.00    +0.205 C 
ATOM      6  O   UNL     1       8.954   1.680  25.061  0.00  0.00    -0.471 OA
ENDROOT
BRANCH   3   7
ATOM      7  N   UNL     1       8.042   4.785  22.694  0.00  0.00    -0.268 N 
ATOM      8  H   UNL     1       8.067   4.222  21.848  0.00  0.00    +0.259 HD
ATOM      9  C   UNL     1       7.739   6.081  22.466  0.00  0.00    +0.377 C 
ATOM     10  N   UNL     1       8.060   7.108  23.156  0.00  0.00    -0.130 NA
ATOM     11  H   UNL     1       8.607   6.836  23.968  0.00  0.00    +0.306 HD
ATOM     12  N   UNL     1       6.974   6.227  21.369  0.00  0.00    -0.289 N 
ATOM     13  H   UNL     1       6.575   7.162  21.356  0.00  0.00    +0.255 HD
ATOM     14  H   UNL     1       6.250   5.526  21.284  0.00  0.00    +0.255 HD
ENDBRANCH   3   7
BRANCH   2  15
ATOM     15  N   UNL     1      11.321   3.657  23.389  0.00  0.00    -0.305 N 
ATOM     16  H   UNL     1      12.015   2.930  23.531  0.00  0.00    +0.149 HD
ATOM     17  C   UNL     1      11.738   4.951  23.211  0.00  0.00    +0.210 C 
ATOM     18  O   UNL     1      10.968   5.861  22.926  0.00  0.00    -0.276 OA
ATOM     19  C   UNL     1      13.219   5.158  23.376  0.00  0.00    +0.109 C 
ENDBRANCH   2  15
BRANCH   1  21
ATOM     20  N   UNL     1       9.201  -0.505  22.872  0.00  0.00    -0.301 N 
ATOM     21  C   UNL     1       8.986   0.876  22.770  0.00  0.00    +0.258 C 
ATOM     22  O   UNL     1       8.291   1.347  21.866  0.00  0.00    -0.271 OA
ATOM     23  C   UNL     1      10.066  -1.123  23.869  0.00  0.00    +0.132 C 
BRANCH  20  24
ATOM     24  C   UNL     1       8.677  -1.377  21.815  0.00  0.00    +0.107 C 
BRANCH  24  26
ATOM     25  C   UNL     1       6.498  -2.263  22.724  0.00  0.00    +0.005 C 
ATOM     26  C   UNL     1       7.939  -2.600  22.366  0.00  0.00    +0.016 C 
ENDBRANCH  24  26
ENDBRANCH  20  24
ENDBRANCH   1  21
BRANCH   5  27
ATOM     27  C   UNL     1       7.189   2.421  26.602  0.00  0.00    +0.372 C 
ATOM     28  O   UNL     1       6.192   3.063  26.887  0.00  0.00    -0.242 OA
BRANCH  27  29
ATOM     29  O   UNL     1       7.609   1.340  27.303  0.00  0.00    -0.475 OA
ATOM     30  H   UNL     1       8.200   0.795  26.747  0.00  0.00    +0.296 HD
ENDBRANCH  27  29
ENDBRANCH   5  27
TORSDOF 7
ENDMDL
