MODEL 1
REMARK VINA RESULT:      -5.1      0.000      0.000
REMARK  Name = 
REMARK  9 active torsions:
REMARK  status: ('A' for Active; 'I' for Inactive)
REMARK    1  A    between atoms: N_4  and  C_5
REMARK    2  A    between atoms: C_5  and  C_6
REMARK    3  A    between atoms: C_6  and  S_7
REMARK    4  A    between atoms: S_7  and  C_8
REMARK    5  A    between atoms: C_8  and  C_10
REMARK    6  A    between atoms: C_8  and  C_14
REMARK    7  A    between atoms: C_10  and  C_11
REMARK    8  A    between atoms: C_11  and  O_12
REMARK    9  A    between atoms: C_14  and  O_15
REMARK                            x       y       z     vdW  Elec       q    Type
REMARK                         _______ _______ _______ _____ _____    ______ ____
ROOT
ATOM      1  S   UNL     1       7.695  -1.891  24.752  0.00  0.00    -0.142 S 
ENDROOT
BRANCH   1   2
ATOM      2  C   UNL     1       6.631  -3.193  24.016  0.00  0.00    +0.107 C 
BRANCH   2   3
ATOM      3  C   UNL     1       6.873  -4.605  24.560  0.00  0.00    +0.206 C 
BRANCH   3   8
ATOM      4  N   UNL     1      10.233  -5.382  25.592  0.00  0.00    -0.289 N 
ATOM      5  H   UNL     1      10.586  -5.570  24.662  0.00  0.00    +0.255 HD
ATOM      6  H   UNL     1      10.714  -5.946  26.283  0.00  0.00    +0.255 HD
ATOM      7  C   UNL     1       8.891  -5.388  25.688  0.00  0.00    +0.376 C 
ATOM      8  N   UNL     1       8.294  -4.941  24.562  0.00  0.00    -0.275 N 
ATOM      9  H   UNL     1       8.864  -4.317  24.003  0.00  0.00    +0.258 HD
ATOM     10  N   UNL     1       8.260  -5.781  26.733  0.00  0.00    -0.130 NA
ATOM     11  H   UNL     1       8.928  -6.047  27.458  0.00  0.00    +0.306 HD
ENDBRANCH   3   8
ENDBRANCH   2   3
ENDBRANCH   1   2
BRANCH   1  12
ATOM     12  C   UNL     1       8.497  -1.198  23.239  0.00  0.00    +0.165 C 
BRANCH  12  13
ATOM     13  C   UNL     1       9.776  -1.972  22.931  0.00  0.00    +0.318 C 
ATOM     14  O   UNL     1      10.236  -2.818  23.689  0.00  0.00    -0.250 OA
BRANCH  13  15
ATOM     15  O   UNL     1      10.386  -1.625  21.778  0.00  0.00    -0.480 OA
ATOM     16  H   UNL     1      10.167  -0.698  21.532  0.00  0.00    +0.295 HD
ENDBRANCH  13  15
ENDBRANCH  12  13
BRANCH  12  17
ATOM     17  C   UNL     1       8.804   0.297  23.283  0.00  0.00    +0.146 C 
BRANCH  17  18
ATOM     18  C   UNL     1       8.241   1.066  22.116  0.00  0.00    +0.306 C 
ATOM     19  O   UNL     1       7.161   1.638  22.153  0.00  0.00    -0.251 OA
BRANCH  18  20
ATOM     20  O   UNL     1       9.024   1.069  21.019  0.00  0.00    -0.481 OA
ATOM     21  H   UNL     1       9.904   1.504  21.128  0.00  0.00    +0.295 HD
ENDBRANCH  18  20
ENDBRANCH  17  18
ENDBRANCH  12  17
ENDBRANCH   1  12
TORSDOF 9
ENDMDL
MODEL 2
REMARK VINA RESULT:      -5.0      1.406      1.431
REMARK  Name = 
REMARK  9 active torsions:
REMARK  status: ('A' for Active; 'I' for Inactive)
REMARK    1  A    between atoms: N_4  and  C_5
REMARK    2  A    between atoms: C_5  and  C_6
REMARK    3  A    between atoms: C_6  and  S_7
REMARK    4  A    between atoms: S_7  and  C_8
REMARK    5  A    between atoms: C_8  and  C_10
REMARK    6  A    between atoms: C_8  and  C_14
REMARK    7  A    between atoms: C_10  and  C_11
REMARK    8  A    between atoms: C_11  and  O_12
REMARK    9  A    between atoms: C_14  and  O_15
REMARK                            x       y       z     vdW  Elec       q    Type
REMARK                         _______ _______ _______ _____ _____    ______ ____
ROOT
ATOM      1  S   UNL     1       9.193  -1.288  25.160  0.00  0.00    -0.142 S 
ENDROOT
BRANCH   1   2
ATOM      2  C   UNL     1       7.483  -1.909  24.912  0.00  0.00    +0.107 C 
BRANCH   2   3
ATOM      3  C   UNL     1       7.356  -3.435  24.860  0.00  0.00    +0.206 C 
BRANCH   3   8
ATOM      4  N   UNL     1      10.310  -5.343  25.634  0.00  0.00    -0.289 N 
ATOM      5  H   UNL     1      10.745  -5.232  24.727  0.00  0.00    +0.255 HD
ATOM      6  H   UNL     1      10.564  -6.229  26.053  0.00  0.00    +0.255 HD
ATOM      7  C   UNL     1       8.994  -5.060  25.657  0.00  0.00    +0.376 C 
ATOM      8  N   UNL     1       8.665  -4.079  24.789  0.00  0.00    -0.275 N 
ATOM      9  H   UNL     1       9.423  -3.445  24.564  0.00  0.00    +0.258 HD
ATOM     10  N   UNL     1       8.156  -5.665  26.416  0.00  0.00    -0.130 NA
ATOM     11  H   UNL     1       8.647  -6.345  26.998  0.00  0.00    +0.306 HD
ENDBRANCH   3   8
ENDBRANCH   2   3
ENDBRANCH   1   2
BRANCH   1  12
ATOM     12  C   UNL     1       9.487  -0.426  23.553  0.00  0.00    +0.165 C 
BRANCH  12  13
ATOM     13  C   UNL     1       9.994  -1.423  22.516  0.00  0.00    +0.318 C 
ATOM     14  O   UNL     1      10.505  -2.494  22.823  0.00  0.00    -0.250 OA
BRANCH  13  15
ATOM     15  O   UNL     1       9.876  -1.019  21.233  0.00  0.00    -0.480 OA
ATOM     16  H   UNL     1       8.961  -0.713  21.046  0.00  0.00    +0.295 HD
ENDBRANCH  13  15
ENDBRANCH  12  13
BRANCH  12  17
ATOM     17  C   UNL     1      10.431   0.773  23.613  0.00  0.00    +0.146 C 
BRANCH  17  18
ATOM     18  C   UNL     1       9.894   2.004  22.929  0.00  0.00    +0.306 C 
ATOM     19  O   UNL     1       9.336   2.910  23.531  0.00  0.00    -0.251 OA
BRANCH  18  20
ATOM     20  O   UNL     1      10.072   2.023  21.593  0.00  0.00    -0.481 OA
ATOM     21  H   UNL     1      10.835   1.492  21.260  0.00  0.00    +0.295 HD
ENDBRANCH  18  20
ENDBRANCH  17  18
ENDBRANCH  12  17
ENDBRANCH   1  12
TORSDOF 9
ENDMDL
MODEL 3
REMARK VINA RESULT:      -5.0      1.556      2.030
REMARK  Name = 
REMARK  9 active torsions:
REMARK  status: ('A' for Active; 'I' for Inactive)
REMARK    1  A    between atoms: N_4  and  C_5
REMARK    2  A    between atoms: C_5  and  C_6
REMARK    3  A    between atoms: C_6  and  S_7
REMARK    4  A    between atoms: S_7  and  C_8
REMARK    5  A    between atoms: C_8  and  C_10
REMARK    6  A    between atoms: C_8  and  C_14
REMARK    7  A    between atoms: C_10  and  C_11
REMARK    8  A    between atoms: C_11  and  O_12
REMARK    9  A    between atoms: C_14  and  O_15
REMARK                            x       y       z     vdW  Elec       q    Type
REMARK                         _______ _______ _______ _____ _____    ______ ____
ROOT
ATOM      1  S   UNL     1       7.579  -1.998  24.641  0.00  0.00    -0.142 S 
ENDROOT
BRANCH   1   2
ATOM      2  C   UNL     1       6.834  -3.335  23.627  0.00  0.00    +0.107 C 
BRANCH   2   3
ATOM      3  C   UNL     1       7.012  -4.747  24.196  0.00  0.00    +0.206 C 
BRANCH   3   8
ATOM      4  N   UNL     1      10.254  -5.436  25.601  0.00  0.00    -0.289 N 
ATOM      5  H   UNL     1      10.690  -5.704  24.729  0.00  0.00    +0.255 HD
ATOM      6  H   UNL     1      10.662  -5.937  26.381  0.00  0.00    +0.255 HD
ATOM      7  C   UNL     1       8.908  -5.431  25.572  0.00  0.00    +0.376 C 
ATOM      8  N   UNL     1       8.423  -5.084  24.360  0.00  0.00    -0.275 N 
ATOM      9  H   UNL     1       9.049  -4.512  23.805  0.00  0.00    +0.258 HD
ATOM     10  N   UNL     1       8.180  -5.730  26.583  0.00  0.00    -0.130 NA
ATOM     11  H   UNL     1       8.774  -5.932  27.388  0.00  0.00    +0.306 HD
ENDBRANCH   3   8
ENDBRANCH   2   3
ENDBRANCH   1   2
BRANCH   1  12
ATOM     12  C   UNL     1       8.599  -1.125  23.373  0.00  0.00    +0.165 C 
BRANCH  12  13
ATOM     13  C   UNL     1       9.833  -1.957  23.038  0.00  0.00    +0.318 C 
ATOM     14  O   UNL     1      10.277  -2.815  23.793  0.00  0.00    -0.250 OA
BRANCH  13  15
ATOM     15  O   UNL     1      10.425  -1.649  21.864  0.00  0.00    -0.480 OA
ATOM     16  H   UNL     1      10.386  -2.409  21.243  0.00  0.00    +0.295 HD
ENDBRANCH  13  15
ENDBRANCH  12  13
BRANCH  12  17
ATOM     17  C   UNL     1       9.025   0.296  23.735  0.00  0.00    +0.146 C 
BRANCH  17  18
ATOM     18  C   UNL     1      10.127   0.357  24.761  0.00  0.00    +0.306 C 
ATOM     19  O   UNL     1      11.282   0.647  24.481  0.00  0.00    -0.251 OA
BRANCH  18  20
ATOM     20  O   UNL     1       9.740   0.059  26.016  0.00  0.00    -0.481 OA
ATOM     21  H   UNL     1       9.671   0.828  26.632  0.00  0.00    +0.295 HD
ENDBRANCH  18  20
ENDBRANCH  17  18
ENDBRANCH  12  17
ENDBRANCH   1  12
TORSDOF 9
ENDMDL
MODEL 4
REMARK VINA RESULT:      -4.9      3.665      5.528
REMARK  Name = 
REMARK  9 active torsions:
REMARK  status: ('A' for Active; 'I' for Inactive)
REMARK    1  A    between atoms: N_4  and  C_5
REMARK    2  A    between atoms: C_5  and  C_6
REMARK    3  A    between atoms: C_6  and  S_7
REMARK    4  A    between atoms: S_7  and  C_8
REMARK    5  A    between atoms: C_8  and  C_10
REMARK    6  A    between atoms: C_8  and  C_14
REMARK    7  A    between atoms: C_10  and  C_11
REMARK    8  A    between atoms: C_11  and  O_12
REMARK    9  A    between atoms: C_14  and  O_15
REMARK                            x       y       z     vdW  Elec       q    Type
REMARK                         _______ _______ _______ _____ _____    ______ ____
ROOT
ATOM      1  S   UNL     1       6.576  -3.008  23.570  0.00  0.00    -0.142 S 
ENDROOT
BRANCH   1   2
ATOM      2  C   UNL     1       8.371  -3.135  23.210  0.00  0.00    +0.107 C 
BRANCH   2   3
ATOM      3  C   UNL     1       9.275  -3.137  24.448  0.00  0.00    +0.206 C 
BRANCH   3   8
ATOM      4  N   UNL     1       8.176  -5.755  26.661  0.00  0.00    -0.289 N 
ATOM      5  H   UNL     1       7.781  -5.140  27.361  0.00  0.00    +0.255 HD
ATOM      6  H   UNL     1       8.532  -6.604  27.083  0.00  0.00    +0.255 HD
ATOM      7  C   UNL     1       9.018  -5.151  25.802  0.00  0.00    +0.376 C 
ATOM      8  N   UNL     1       8.667  -3.871  25.554  0.00  0.00    -0.275 N 
ATOM      9  H   UNL     1       7.682  -3.672  25.686  0.00  0.00    +0.258 HD
ATOM     10  N   UNL     1      10.039  -5.733  25.289  0.00  0.00    -0.130 NA
ATOM     11  H   UNL     1      10.079  -6.702  25.608  0.00  0.00    +0.306 HD
ENDBRANCH   3   8
ENDBRANCH   2   3
ENDBRANCH   1   2
BRANCH   1  12
ATOM     12  C   UNL     1       6.055  -4.769  23.375  0.00  0.00    +0.165 C 
BRANCH  12  13
ATOM     13  C   UNL     1       5.912  -5.107  21.893  0.00  0.00    +0.318 C 
ATOM     14  O   UNL     1       5.737  -4.250  21.034  0.00  0.00    -0.250 OA
BRANCH  13  15
ATOM     15  O   UNL     1       5.951  -6.425  21.604  0.00  0.00    -0.480 OA
ATOM     16  H   UNL     1       5.601  -6.957  22.353  0.00  0.00    +0.295 HD
ENDBRANCH  13  15
ENDBRANCH  12  13
BRANCH  12  17
ATOM     17  C   UNL     1       4.778  -5.164  24.113  0.00  0.00    +0.146 C 
BRANCH  17  18
ATOM     18  C   UNL     1       4.869  -6.492  24.820  0.00  0.00    +0.306 C 
ATOM     19  O   UNL     1       5.290  -6.610  25.961  0.00  0.00    -0.251 OA
BRANCH  18  20
ATOM     20  O   UNL     1       4.455  -7.544  24.087  0.00  0.00    -0.481 OA
ATOM     21  H   UNL     1       4.197  -7.337  23.157  0.00  0.00    +0.295 HD
ENDBRANCH  18  20
ENDBRANCH  17  18
ENDBRANCH  12  17
ENDBRANCH   1  12
TORSDOF 9
ENDMDL
MODEL 5
REMARK VINA RESULT:      -4.8      1.350      2.974
REMARK  Name = 
REMARK  9 active torsions:
REMARK  status: ('A' for Active; 'I' for Inactive)
REMARK    1  A    between atoms: N_4  and  C_5
REMARK    2  A    between atoms: C_5  and  C_6
REMARK    3  A    between atoms: C_6  and  S_7
REMARK    4  A    between atoms: S_7  and  C_8
REMARK    5  A    between atoms: C_8  and  C_10
REMARK    6  A    between atoms: C_8  and  C_14
REMARK    7  A    between atoms: C_10  and  C_11
REMARK    8  A    between atoms: C_11  and  O_12
REMARK    9  A    between atoms: C_14  and  O_15
REMARK                            x       y       z     vdW  Elec       q    Type
REMARK                         _______ _______ _______ _____ _____    ______ ____
ROOT
ATOM      1  S   UNL     1       7.759  -0.645  24.145  0.00  0.00    -0.142 S 
ENDROOT
BRANCH   1   2
ATOM      2  C   UNL     1       8.425  -1.129  25.786  0.00  0.00    +0.107 C 
BRANCH   2   3
ATOM      3  C   UNL     1       8.074  -2.554  26.227  0.00  0.00    +0.206 C 
BRANCH   3   8
ATOM      4  N   UNL     1      10.171  -5.428  25.672  0.00  0.00    -0.289 N 
ATOM      5  H   UNL     1      10.363  -5.229  24.699  0.00  0.00    +0.255 HD
ATOM      6  H   UNL     1      10.167  -6.426  25.845  0.00  0.00    +0.255 HD
ATOM      7  C   UNL     1       9.116  -4.761  26.177  0.00  0.00    +0.376 C 
ATOM      8  N   UNL     1       8.972  -3.536  25.625  0.00  0.00    -0.275 N 
ATOM      9  H   UNL     1       9.827  -3.139  25.256  0.00  0.00    +0.258 HD
ATOM     10  N   UNL     1       8.340  -5.245  27.075  0.00  0.00    -0.130 NA
ATOM     11  H   UNL     1       8.668  -6.172  27.351  0.00  0.00    +0.306 HD
ENDBRANCH   3   8
ENDBRANCH   2   3
ENDBRANCH   1   2
BRANCH   1  12
ATOM     12  C   UNL     1       9.104   0.464  23.536  0.00  0.00    +0.165 C 
BRANCH  12  13
ATOM     13  C   UNL     1       8.637   1.208  22.287  0.00  0.00    +0.318 C 
ATOM     14  O   UNL     1       7.457   1.459  22.071  0.00  0.00    -0.250 OA
BRANCH  13  15
ATOM     15  O   UNL     1       9.618   1.531  21.418  0.00  0.00    -0.480 OA
ATOM     16  H   UNL     1       9.557   2.478  21.160  0.00  0.00    +0.295 HD
ENDBRANCH  13  15
ENDBRANCH  12  13
BRANCH  12  17
ATOM     17  C   UNL     1      10.441  -0.216  23.253  0.00  0.00    +0.146 C 
BRANCH  17  18
ATOM     18  C   UNL     1      10.309  -1.577  22.619  0.00  0.00    +0.306 C 
ATOM     19  O   UNL     1      10.480  -2.619  23.235  0.00  0.00    -0.251 OA
BRANCH  18  20
ATOM     20  O   UNL     1       9.992  -1.554  21.309  0.00  0.00    -0.481 OA
ATOM     21  H   UNL     1       9.210  -0.999  21.073  0.00  0.00    +0.295 HD
ENDBRANCH  18  20
ENDBRANCH  17  18
ENDBRANCH  12  17
ENDBRANCH   1  12
TORSDOF 9
ENDMDL
MODEL 6
REMARK VINA RESULT:      -4.8      3.676      5.983
REMARK  Name = 
REMARK  9 active torsions:
REMARK  status: ('A' for Active; 'I' for Inactive)
REMARK    1  A    between atoms: N_4  and  C_5
REMARK    2  A    between atoms: C_5  and  C_6
REMARK    3  A    between atoms: C_6  and  S_7
REMARK    4  A    between atoms: S_7  and  C_8
REMARK    5  A    between atoms: C_8  and  C_10
REMARK    6  A    between atoms: C_8  and  C_14
REMARK    7  A    between atoms: C_10  and  C_11
REMARK    8  A    between atoms: C_11  and  O_12
REMARK    9  A    between atoms: C_14  and  O_15
REMARK                            x       y       z     vdW  Elec       q    Type
REMARK                         _______ _______ _______ _____ _____    ______ ____
ROOT
ATOM      1  S   UNL     1       8.929  -1.297  25.349  0.00  0.00    -0.142 S 
ENDROOT
BRANCH   1   2
ATOM      2  C   UNL     1      10.138   0.037  24.992  0.00  0.00    +0.107 C 
BRANCH   2   3
ATOM      3  C   UNL     1       9.535   1.299  24.365  0.00  0.00    +0.206 C 
BRANCH   3   8
ATOM      4  N   UNL     1       8.461   1.475  20.934  0.00  0.00    -0.289 N 
ATOM      5  H   UNL     1       7.995   0.577  20.925  0.00  0.00    +0.255 HD
ATOM      6  H   UNL     1       8.840   1.696  20.021  0.00  0.00    +0.255 HD
ATOM      7  C   UNL     1       9.315   1.648  21.959  0.00  0.00    +0.376 C 
ATOM      8  N   UNL     1       8.908   1.010  23.079  0.00  0.00    -0.275 N 
ATOM      9  H   UNL     1       7.908   0.857  23.134  0.00  0.00    +0.258 HD
ATOM     10  N   UNL     1      10.394   2.336  21.871  0.00  0.00    -0.130 NA
ATOM     11  H   UNL     1      10.470   2.738  20.936  0.00  0.00    +0.306 HD
ENDBRANCH   3   8
ENDBRANCH   2   3
ENDBRANCH   1   2
BRANCH   1  12
ATOM     12  C   UNL     1       9.511  -2.614  24.191  0.00  0.00    +0.165 C 
BRANCH  12  13
ATOM     13  C   UNL     1       9.586  -2.060  22.771  0.00  0.00    +0.318 C 
ATOM     14  O   UNL     1      10.643  -1.734  22.243  0.00  0.00    -0.250 OA
BRANCH  13  15
ATOM     15  O   UNL     1       8.393  -1.915  22.154  0.00  0.00    -0.480 OA
ATOM     16  H   UNL     1       7.716  -1.575  22.780  0.00  0.00    +0.295 HD
ENDBRANCH  13  15
ENDBRANCH  12  13
BRANCH  12  17
ATOM     17  C   UNL     1       8.692  -3.902  24.194  0.00  0.00    +0.146 C 
BRANCH  17  18
ATOM     18  C   UNL     1       9.181  -4.932  25.180  0.00  0.00    +0.306 C 
ATOM     19  O   UNL     1       8.466  -5.419  26.044  0.00  0.00    -0.251 OA
BRANCH  18  20
ATOM     20  O   UNL     1      10.478  -5.269  25.039  0.00  0.00    -0.481 OA
ATOM     21  H   UNL     1      11.118  -4.711  25.544  0.00  0.00    +0.295 HD
ENDBRANCH  18  20
ENDBRANCH  17  18
ENDBRANCH  12  17
ENDBRANCH   1  12
TORSDOF 9
ENDMDL
MODEL 7
REMARK VINA RESULT:      -4.6      1.955      2.875
REMARK  Name = 
REMARK  9 active torsions:
REMARK  status: ('A' for Active; 'I' for Inactive)
REMARK    1  A    between atoms: N_4  and  C_5
REMARK    2  A    between atoms: C_5  and  C_6
REMARK    3  A    between atoms: C_6  and  S_7
REMARK    4  A    between atoms: S_7  and  C_8
REMARK    5  A    between atoms: C_8  and  C_10
REMARK    6  A    between atoms: C_8  and  C_14
REMARK    7  A    between atoms: C_10  and  C_11
REMARK    8  A    between atoms: C_11  and  O_12
REMARK    9  A    between atoms: C_14  and  O_15
REMARK                            x       y       z     vdW  Elec       q    Type
REMARK                         _______ _______ _______ _____ _____    ______ ____
ROOT
ATOM      1  S   UNL     1       7.784  -0.848  23.352  0.00  0.00    -0.142 S 
ENDROOT
BRANCH   1   2
ATOM      2  C   UNL     1       8.857  -1.537  24.673  0.00  0.00    +0.107 C 
BRANCH   2   3
ATOM      3  C   UNL     1       9.222  -3.015  24.498  0.00  0.00    +0.206 C 
BRANCH   3   8
ATOM      4  N   UNL     1       8.379  -5.778  26.647  0.00  0.00    -0.289 N 
ATOM      5  H   UNL     1       7.901  -5.224  27.345  0.00  0.00    +0.255 HD
ATOM      6  H   UNL     1       8.820  -6.588  27.064  0.00  0.00    +0.255 HD
ATOM      7  C   UNL     1       9.166  -5.068  25.817  0.00  0.00    +0.376 C 
ATOM      8  N   UNL     1       8.677  -3.831  25.579  0.00  0.00    -0.275 N 
ATOM      9  H   UNL     1       7.673  -3.748  25.691  0.00  0.00    +0.258 HD
ATOM     10  N   UNL     1      10.257  -5.521  25.320  0.00  0.00    -0.130 NA
ATOM     11  H   UNL     1      10.400  -6.485  25.625  0.00  0.00    +0.306 HD
ENDBRANCH   3   8
ENDBRANCH   2   3
ENDBRANCH   1   2
BRANCH   1  12
ATOM     12  C   UNL     1       8.538   0.824  23.127  0.00  0.00    +0.165 C 
BRANCH  12  13
ATOM     13  C   UNL     1       9.455   0.818  21.907  0.00  0.00    +0.318 C 
ATOM     14  O   UNL     1       9.828  -0.216  21.366  0.00  0.00    -0.250 OA
BRANCH  13  15
ATOM     15  O   UNL     1       9.859   2.038  21.493  0.00  0.00    -0.480 OA
ATOM     16  H   UNL     1       9.152   2.706  21.636  0.00  0.00    +0.295 HD
ENDBRANCH  13  15
ENDBRANCH  12  13
BRANCH  12  17
ATOM     17  C   UNL     1       9.296   1.372  24.333  0.00  0.00    +0.146 C 
BRANCH  17  18
ATOM     18  C   UNL     1       8.896   2.773  24.717  0.00  0.00    +0.306 C 
ATOM     19  O   UNL     1       9.235   3.761  24.082  0.00  0.00    -0.251 OA
BRANCH  18  20
ATOM     20  O   UNL     1       8.136   2.851  25.827  0.00  0.00    -0.481 OA
ATOM     21  H   UNL     1       8.430   3.516  26.496  0.00  0.00    +0.295 HD
ENDBRANCH  18  20
ENDBRANCH  17  18
ENDBRANCH  12  17
ENDBRANCH   1  12
TORSDOF 9
ENDMDL
MODEL 8
REMARK VINA RESULT:      -4.5      1.967      2.494
REMARK  Name = 
REMARK  9 active torsions:
REMARK  status: ('A' for Active; 'I' for Inactive)
REMARK    1  A    between atoms: N_4  and  C_5
REMARK    2  A    between atoms: C_5  and  C_6
REMARK    3  A    between atoms: C_6  and  S_7
REMARK    4  A    between atoms: S_7  and  C_8
REMARK    5  A    between atoms: C_8  and  C_10
REMARK    6  A    between atoms: C_8  and  C_14
REMARK    7  A    between atoms: C_10  and  C_11
REMARK    8  A    between atoms: C_11  and  O_12
REMARK    9  A    between atoms: C_14  and  O_15
REMARK                            x       y       z     vdW  Elec       q    Type
REMARK                         _______ _______ _______ _____ _____    ______ ____
ROOT
ATOM      1  S   UNL     1       9.104  -1.080  24.970  0.00  0.00    -0.142 S 
ENDROOT
BRANCH   1   2
ATOM      2  C   UNL     1       8.215  -2.149  23.771  0.00  0.00    +0.107 C 
BRANCH   2   3
ATOM      3  C   UNL     1       8.570  -3.637  23.852  0.00  0.00    +0.206 C 
BRANCH   3   8
ATOM      4  N   UNL     1       8.356  -5.762  26.750  0.00  0.00    -0.289 N 
ATOM      5  H   UNL     1       7.740  -5.157  27.277  0.00  0.00    +0.255 HD
ATOM      6  H   UNL     1       8.967  -6.284  27.367  0.00  0.00    +0.255 HD
ATOM      7  C   UNL     1       8.972  -5.163  25.714  0.00  0.00    +0.376 C 
ATOM      8  N   UNL     1       8.207  -4.204  25.147  0.00  0.00    -0.275 N 
ATOM      9  H   UNL     1       7.211  -4.333  25.275  0.00  0.00    +0.258 HD
ATOM     10  N   UNL     1      10.154  -5.470  25.323  0.00  0.00    -0.130 NA
ATOM     11  H   UNL     1      10.516  -6.238  25.890  0.00  0.00    +0.306 HD
ENDBRANCH   3   8
ENDBRANCH   2   3
ENDBRANCH   1   2
BRANCH   1  12
ATOM     12  C   UNL     1      10.161  -0.081  23.831  0.00  0.00    +0.165 C 
BRANCH  12  13
ATOM     13  C   UNL     1      10.215   1.366  24.311  0.00  0.00    +0.318 C 
ATOM     14  O   UNL     1      11.119   2.133  24.000  0.00  0.00    -0.250 OA
BRANCH  13  15
ATOM     15  O   UNL     1       9.212   1.729  25.140  0.00  0.00    -0.480 OA
ATOM     16  H   UNL     1       9.508   1.704  26.077  0.00  0.00    +0.295 HD
ENDBRANCH  13  15
ENDBRANCH  12  13
BRANCH  12  17
ATOM     17  C   UNL     1       9.758  -0.116  22.359  0.00  0.00    +0.146 C 
BRANCH  17  18
ATOM     18  C   UNL     1       8.833   1.003  21.955  0.00  0.00    +0.306 C 
ATOM     19  O   UNL     1       7.638   1.006  22.216  0.00  0.00    -0.251 OA
BRANCH  18  20
ATOM     20  O   UNL     1       9.428   2.001  21.274  0.00  0.00    -0.481 OA
ATOM     21  H   UNL     1       9.185   2.065  20.319  0.00  0.00    +0.295 HD
ENDBRANCH  18  20
ENDBRANCH  17  18
ENDBRANCH  12  17
ENDBRANCH   1  12
TORSDOF 9
ENDMDL
MODEL 9
REMARK VINA RESULT:      -4.5      5.704      7.123
REMARK  Name = 
REMARK  9 active torsions:
REMARK  status: ('A' for Active; 'I' for Inactive)
REMARK    1  A    between atoms: N_4  and  C_5
REMARK    2  A    between atoms: C_5  and  C_6
REMARK    3  A    between atoms: C_6  and  S_7
REMARK    4  A    between atoms: S_7  and  C_8
REMARK    5  A    between atoms: C_8  and  C_10
REMARK    6  A    between atoms: C_8  and  C_14
REMARK    7  A    between atoms: C_10  and  C_11
REMARK    8  A    between atoms: C_11  and  O_12
REMARK    9  A    between atoms: C_14  and  O_15
REMARK                            x       y       z     vdW  Elec       q    Type
REMARK                         _______ _______ _______ _____ _____    ______ ____
ROOT
ATOM      1  S   UNL     1       7.524   1.052  23.235  0.00  0.00    -0.142 S 
ENDROOT
BRANCH   1   2
ATOM      2  C   UNL     1       6.703   2.415  22.319  0.00  0.00    +0.107 C 
BRANCH   2   3
ATOM      3  C   UNL     1       6.876   3.803  22.944  0.00  0.00    +0.206 C 
BRANCH   3   8
ATOM      4  N   UNL     1       6.869   6.952  21.197  0.00  0.00    -0.289 N 
ATOM      5  H   UNL     1       6.349   6.623  20.393  0.00  0.00    +0.255 HD
ATOM      6  H   UNL     1       7.515   7.687  20.936  0.00  0.00    +0.255 HD
ATOM      7  C   UNL     1       7.398   5.973  21.955  0.00  0.00    +0.376 C 
ATOM      8  N   UNL     1       6.629   4.863  21.970  0.00  0.00    -0.275 N 
ATOM      9  H   UNL     1       5.647   5.030  21.785  0.00  0.00    +0.258 HD
ATOM     10  N   UNL     1       8.510   6.090  22.582  0.00  0.00    -0.130 NA
ATOM     11  H   UNL     1       8.890   7.027  22.437  0.00  0.00    +0.306 HD
ENDBRANCH   3   8
ENDBRANCH   2   3
ENDBRANCH   1   2
BRANCH   1  12
ATOM     12  C   UNL     1       8.794   0.519  22.005  0.00  0.00    +0.165 C 
BRANCH  12  13
ATOM     13  C   UNL     1       9.280  -0.889  22.339  0.00  0.00    +0.318 C 
ATOM     14  O   UNL     1       9.035  -1.436  23.408  0.00  0.00    -0.250 OA
BRANCH  13  15
ATOM     15  O   UNL     1      10.038  -1.470  21.384  0.00  0.00    -0.480 OA
ATOM     16  H   UNL     1      10.786  -0.886  21.129  0.00  0.00    +0.295 HD
ENDBRANCH  13  15
ENDBRANCH  12  13
BRANCH  12  17
ATOM     17  C   UNL     1       9.994   1.450  21.851  0.00  0.00    +0.146 C 
BRANCH  17  18
ATOM     18  C   UNL     1      10.384   2.153  23.126  0.00  0.00    +0.306 C 
ATOM     19  O   UNL     1      10.840   1.566  24.097  0.00  0.00    -0.251 OA
BRANCH  18  20
ATOM     20  O   UNL     1      10.184   3.485  23.113  0.00  0.00    -0.481 OA
ATOM     21  H   UNL     1      10.495   3.952  22.300  0.00  0.00    +0.295 HD
ENDBRANCH  18  20
ENDBRANCH  17  18
ENDBRANCH  12  17
ENDBRANCH   1  12
TORSDOF 9
ENDMDL
