MODEL 1
REMARK VINA RESULT:     195.9      0.000      0.000
REMARK  Name = 
REMARK  43 active torsions:
REMARK  status: ('A' for Active; 'I' for Inactive)
REMARK    1  A    between atoms: C_1  and  C_2
REMARK    2  A    between atoms: C_2  and  C_3
REMARK    3  A    between atoms: C_3  and  C_5
REMARK    4  A    between atoms: C_3  and  C_6
REMARK    5  A    between atoms: C_6  and  N_8
REMARK    6  A    between atoms: C_6  and  C_9
REMARK    7  A    between atoms: C_11  and  C_15
REMARK    8  A    between atoms: N_17  and  C_18
REMARK    9  A    between atoms: C_18  and  C_20
REMARK   10  A    between atoms: C_18  and  C_24
REMARK   11  A    between atoms: C_20  and  C_21
REMARK   12  A    between atoms: C_21  and  C_22
REMARK   13  A    between atoms: C_21  and  C_23
REMARK   14  A    between atoms: N_26  and  C_27
REMARK   15  A    between atoms: C_27  and  C_29
REMARK   16  A    between atoms: C_27  and  C_34
REMARK   17  A    between atoms: C_29  and  C_30
REMARK   18  A    between atoms: C_30  and  C_31
REMARK   19  A    between atoms: C_31  and  O_32
REMARK   20  A    between atoms: N_36  and  C_37
REMARK   21  A    between atoms: C_37  and  C_39
REMARK   22  A    between atoms: C_37  and  C_44
REMARK   23  A    between atoms: C_39  and  C_41
REMARK   24  A    between atoms: C_39  and  C_42
REMARK   25  A    between atoms: C_42  and  C_43
REMARK   26  A    between atoms: N_46  and  C_47
REMARK   27  A    between atoms: C_56  and  C_58
REMARK   28  A    between atoms: C_58  and  C_59
REMARK   29  A    between atoms: C_65  and  C_67
REMARK   30  A    between atoms: C_67  and  C_68
REMARK   31  A    between atoms: C_68  and  O_69
REMARK   32  A    between atoms: C_74  and  C_76
REMARK   33  A    between atoms: C_76  and  C_77
REMARK   34  A    between atoms: C_85  and  C_87
REMARK   35  A    between atoms: C_87  and  C_88
REMARK   36  A    between atoms: C_97  and  C_111
REMARK   37  A    between atoms: C_102  and  C_104
REMARK   38  A    between atoms: C_104  and  C_105
REMARK   39  A    between atoms: C_105  and  C_106
REMARK   40  A    between atoms: C_106  and  N_107
REMARK   41  A    between atoms: C_111  and  C_113
REMARK   42  A    between atoms: C_111  and  C_114
REMARK   43  A    between atoms: C_114  and  C_115
REMARK                            x       y       z     vdW  Elec       q    Type
REMARK                         _______ _______ _______ _____ _____    ______ ____
ROOT
ATOM      1  C   UNL     1       7.363  -0.676  20.578  0.00  0.00    +0.159 C 
ATOM      2  C   UNL     1       8.912  -2.251  19.184  0.00  0.00    +0.234 C 
ATOM      3  O   UNL     1       9.868  -1.402  19.375  0.00  0.00    -0.274 OA
ATOM      4  N   UNL     1      10.179  -3.826  17.963  0.00  0.00    -0.302 N 
ATOM      5  H   UNL     1      10.446  -4.372  18.780  0.00  0.00    +0.150 HD
ATOM      6  C   UNL     1      11.663  -5.336  16.627  0.00  0.00    +0.159 C 
ATOM      7  C   UNL     1      13.578  -6.501  15.904  0.00  0.00    +0.234 C 
ATOM      8  O   UNL     1      13.807  -7.784  16.392  0.00  0.00    -0.274 OA
ATOM      9  N   UNL     1      15.206  -7.055  14.724  0.00  0.00    -0.302 N 
ATOM     10  H   UNL     1      14.970  -7.313  13.762  0.00  0.00    +0.150 HD
ATOM     11  C   UNL     1      16.943  -8.161  13.962  0.00  0.00    +0.162 C 
ATOM     12  C   UNL     1      18.021  -7.364  14.547  0.00  0.00    +0.234 C 
ATOM     13  O   UNL     1      19.000  -6.736  14.196  0.00  0.00    -0.274 OA
ATOM     14  N   UNL     1      17.365  -7.380  15.697  0.00  0.00    -0.302 N 
ATOM     15  H   UNL     1      16.500  -7.957  15.733  0.00  0.00    +0.150 HD
ATOM     16  C   UNL     1      17.094  -6.038  15.985  0.00  0.00    +0.163 C 
ATOM     17  C   UNL     1      15.865  -6.075  16.813  0.00  0.00    +0.234 C 
ATOM     18  O   UNL     1      15.585  -7.149  17.337  0.00  0.00    -0.274 OA
ATOM     19  N   UNL     1      15.136  -4.996  17.129  0.00  0.00    -0.302 N 
ATOM     20  H   UNL     1      15.540  -4.085  16.956  0.00  0.00    +0.150 HD
ATOM     21  C   UNL     1      14.087  -5.161  18.152  0.00  0.00    +0.165 C 
ATOM     22  C   UNL     1      13.768  -3.762  18.570  0.00  0.00    +0.234 C 
ATOM     23  O   UNL     1      14.056  -2.768  17.907  0.00  0.00    -0.274 OA
ATOM     24  N   UNL     1      12.990  -3.741  19.660  0.00  0.00    -0.302 N 
ATOM     25  H   UNL     1      12.579  -4.610  19.959  0.00  0.00    +0.150 HD
ATOM     26  C   UNL     1      12.290  -2.621  20.201  0.00  0.00    +0.169 C 
ATOM     27  C   UNL     1      10.967  -3.157  20.853  0.00  0.00    +0.234 C 
ATOM     28  O   UNL     1      10.427  -4.231  20.653  0.00  0.00    -0.274 OA
ATOM     29  N   UNL     1      10.394  -2.257  21.666  0.00  0.00    -0.302 N 
ATOM     30  H   UNL     1      10.757  -1.311  21.493  0.00  0.00    +0.150 HD
ATOM     31  C   UNL     1       9.096  -2.235  22.325  0.00  0.00    +0.168 C 
ATOM     32  C   UNL     1       9.195  -0.803  22.689  0.00  0.00    +0.234 C 
ATOM     33  O   UNL     1       9.887  -0.086  21.950  0.00  0.00    -0.274 OA
ATOM     34  N   UNL     1       8.336  -0.414  23.685  0.00  0.00    -0.314 N 
ATOM     35  H   UNL     1       7.658  -1.146  23.841  0.00  0.00    +0.149 HD
ATOM     36  C   UNL     1       7.518   1.080  23.896  0.00  0.00    +0.104 C 
ATOM     37  C   UNL     1       6.308  -0.068  24.575  0.00  0.00    +0.019 C 
ATOM     38  C   UNL     1       6.564   1.359  23.873  0.00  0.00    +0.004 C 
ATOM     39  C   UNL     1       6.393  -0.085  22.425  0.00  0.00    +0.032 C 
ENDROOT
BRANCH   1  41
ATOM     40  C   UNL     1       4.568   2.251  22.764  0.00  0.00    +0.234 C 
ATOM     41  N   UNL     1       5.987   1.039  21.652  0.00  0.00    -0.302 N 
ATOM     42  H   UNL     1       6.447   1.976  21.798  0.00  0.00    +0.150 HD
ATOM     43  O   UNL     1       3.494   1.568  23.257  0.00  0.00    -0.274 OA
BRANCH  40  44
ATOM     44  C   UNL     1       3.564   3.769  24.460  0.00  0.00    +0.162 C 
BRANCH  44  46
ATOM     45  C   UNL     1       3.398   4.249  28.520  0.00  0.00    +0.234 C 
ATOM     46  N   UNL     1       3.295   4.220  26.547  0.00  0.00    -0.302 N 
ATOM     47  H   UNL     1       4.283   4.759  27.135  0.00  0.00    +0.150 HD
ATOM     48  O   UNL     1       4.395   4.777  29.230  0.00  0.00    -0.274 OA
BRANCH  45  49
ATOM     49  C   UNL     1       2.416   3.781  30.200  0.00  0.00    +0.159 C 
BRANCH  49  51
ATOM     50  C   UNL     1       2.599   1.468  29.779  0.00  0.00    +0.234 C 
ATOM     51  N   UNL     1       1.959   2.412  30.480  0.00  0.00    -0.302 N 
ATOM     52  H   UNL     1       1.191   2.187  31.113  0.00  0.00    +0.150 HD
ATOM     53  O   UNL     1       3.505   1.845  29.065  0.00  0.00    -0.274 OA
BRANCH  50  54
ATOM     54  C   UNL     1       2.183   0.017  29.817  0.00  0.00    +0.159 C 
BRANCH  54  56
ATOM     55  C   UNL     1       2.100  -1.672  28.027  0.00  0.00    +0.239 C 
ATOM     56  N   UNL     1       1.799  -0.402  28.500  0.00  0.00    -0.302 N 
ATOM     57  H   UNL     1       1.362   0.289  27.918  0.00  0.00    +0.150 HD
ATOM     58  O   UNL     1       2.466  -2.612  28.727  0.00  0.00    -0.273 OA
BRANCH  55  62
ATOM     59  C   UNL     1       3.013  -3.285  25.673  0.00  0.00    +0.087 C 
ATOM     60  S   UNL     1       1.736  -4.278  26.206  0.00  0.00    -0.106 S 
ATOM     61  C   UNL     1       0.933  -2.735  26.083  0.00  0.00    +0.112 C 
ATOM     62  C   UNL     1       1.986  -1.706  26.518  0.00  0.00    +0.202 C 
ATOM     63  N   UNL     1       3.243  -2.053  25.943  0.00  0.00    -0.266 NA
BRANCH  59  64
ATOM     64  C   UNL     1       4.026  -3.956  25.032  0.00  0.00    +0.109 C 
BRANCH  64  65
ATOM     65  N   UNL     1       5.119  -3.529  26.460  0.00  0.00    -0.322 NA
ATOM     66  H   UNL     1       5.958  -3.018  26.295  0.00  0.00    +0.119 HD
ATOM     67  H   UNL     1       5.194  -3.535  27.458  0.00  0.00    +0.119 HD
ENDBRANCH  64  65
BRANCH  64  68
ATOM     68  C   UNL     1       3.829  -5.709  24.218  0.00  0.00    +0.009 C 
ATOM     69  C   UNL     1       2.852  -5.363  23.166  0.00  0.00    +0.009 C 
BRANCH  68  71
ATOM     70  C   UNL     1       5.408  -7.005  22.061  0.00  0.00    +0.004 C 
ATOM     71  C   UNL     1       5.206  -6.976  23.444  0.00  0.00    +0.002 C 
ENDBRANCH  68  71
ENDBRANCH  64  68
ENDBRANCH  59  64
ENDBRANCH  55  62
ENDBRANCH  54  56
BRANCH  54  72
ATOM     72  C   UNL     1       3.281  -0.901  30.383  0.00  0.00    +0.034 C 
BRANCH  72  73
ATOM     73  C   UNL     1       4.557  -0.885  29.535  0.00  0.00    -0.015 C 
ATOM     74  C   UNL     1       5.651  -0.020  30.099  0.00  0.00    +0.007 C 
ATOM     75  C   UNL     1       4.248  -0.358  28.135  0.00  0.00    +0.007 C 
ENDBRANCH  72  73
ENDBRANCH  54  72
ENDBRANCH  50  54
ENDBRANCH  49  51
BRANCH  49  76
ATOM     76  C   UNL     1       1.342   4.806  30.482  0.00  0.00    +0.043 C 
BRANCH  76  77
ATOM     77  C   UNL     1       0.577   5.525  29.364  0.00  0.00    +0.123 C 
BRANCH  77  78
ATOM     78  C   UNL     1       0.655   4.690  28.103  0.00  0.00    +0.305 C 
ATOM     79  O   UNL     1       0.904   3.493  28.109  0.00  0.00    -0.251 OA
BRANCH  78  80
ATOM     80  O   UNL     1       0.447   5.364  26.952  0.00  0.00    -0.481 OA
ATOM     81  H   UNL     1      -0.442   5.741  26.793  0.00  0.00    +0.295 HD
ENDBRANCH  78  80
ENDBRANCH  77  78
ENDBRANCH  76  77
ENDBRANCH  49  76
ENDBRANCH  45  49
ENDBRANCH  44  46
BRANCH  44  82
ATOM     82  C   UNL     1       2.420   5.555  24.958  0.00  0.00    +0.015 C 
ATOM     83  C   UNL     1       2.938   7.081  24.209  0.00  0.00    +0.010 C 
BRANCH  82  84
ATOM     84  C   UNL     1       1.179   7.046  25.629  0.00  0.00    +0.002 C 
ATOM     85  C   UNL     1       0.624   7.062  27.046  0.00  0.00    +0.004 C 
ENDBRANCH  82  84
ENDBRANCH  44  82
ENDBRANCH  40  44
ENDBRANCH   1  41
BRANCH  11  86
ATOM     86  C   UNL     1      18.857  -8.748  13.113  0.00  0.00    +0.015 C 
ATOM     87  C   UNL     1      20.409  -7.650  12.650  0.00  0.00    +0.010 C 
BRANCH  86  88
ATOM     88  C   UNL     1      20.352  -9.970  13.390  0.00  0.00    +0.002 C 
ATOM     89  C   UNL     1      20.504 -10.866  14.624  0.00  0.00    +0.004 C 
ENDBRANCH  86  88
ENDBRANCH  11  86
BRANCH   6  90
ATOM     90  C   UNL     1      12.484  -7.074  15.146  0.00  0.00    +0.033 C 
BRANCH  90  91
ATOM     91  C   UNL     1      13.874  -8.672  14.051  0.00  0.00    +0.017 C 
BRANCH  91  92
ATOM     92  C   UNL     1      15.419 -10.058  13.118  0.00  0.00    +0.078 C 
BRANCH  92  93
ATOM     93  N   UNL     1      17.268 -10.818  12.740  0.00  0.00    -0.330 NA
ATOM     94  H   UNL     1      18.298 -10.181  12.424  0.00  0.00    +0.118 HD
ATOM     95  H   UNL     1      18.204 -11.344  13.300  0.00  0.00    +0.118 HD
ENDBRANCH  92  93
ENDBRANCH  91  92
ENDBRANCH  90  91
ENDBRANCH   6  90
BRANCH  16  96
ATOM     96  C   UNL     1      18.210  -5.798  16.914  0.00  0.00    +0.067 C 
BRANCH  96  97
ATOM     97  C   UNL     1      17.718  -4.929  18.086  0.00  0.00    -0.045 A 
ATOM     98  C   UNL     1      17.379  -3.613  17.813  0.00  0.00    +0.004 A 
ATOM     99  C   UNL     1      16.745  -2.844  18.780  0.00  0.00    +0.000 A 
ATOM    100  C   UNL     1      16.222  -3.432  19.923  0.00  0.00    +0.000 A 
ATOM    101  C   UNL     1      16.548  -4.744  20.214  0.00  0.00    +0.000 A 
ATOM    102  C   UNL     1      17.368  -5.462  19.346  0.00  0.00    +0.004 A 
ENDBRANCH  96  97
ENDBRANCH  16  96
BRANCH  31 103
ATOM    103  C   UNL     1       9.172  -2.964  23.596  0.00  0.00    +0.127 C 
BRANCH 103 104
ATOM    104  C   UNL     1       7.980  -3.831  23.627  0.00  0.00    +0.213 C 
ATOM    105  O   UNL     1       7.332  -4.043  24.644  0.00  0.00    -0.276 OA
ATOM    106  N   UNL     1       7.673  -4.373  22.424  0.00  0.00    -0.329 N 
ATOM    107  H   UNL     1       6.831  -4.919  22.380  0.00  0.00    +0.145 HD
ATOM    108  H   UNL     1       8.143  -4.134  21.561  0.00  0.00    +0.145 HD
ENDBRANCH 103 104
ENDBRANCH  31 103
BRANCH  26 109
ATOM    109  C   UNL     1      13.125  -2.225  21.378  0.00  0.00    +0.152 C 
BRANCH 109 110
ATOM    110  C   UNL     1      14.173  -3.080  21.960  0.00  0.00    +0.307 C 
ATOM    111  O   UNL     1      14.291  -4.223  21.529  0.00  0.00    -0.251 OA
BRANCH 110 112
ATOM    112  O   UNL     1      15.083  -2.506  22.757  0.00  0.00    -0.481 OA
ATOM    113  H   UNL     1      15.035  -2.701  23.722  0.00  0.00    +0.295 HD
ENDBRANCH 110 112
ENDBRANCH 109 110
ENDBRANCH  26 109
BRANCH  21 114
ATOM    114  C   UNL     1      13.963  -6.400  19.089  0.00  0.00    +0.088 C 
BRANCH 114 115
ATOM    115  C   UNL     1      12.658  -7.009  19.521  0.00  0.00    +0.061 A 
ATOM    116  N   UNL     1      11.370  -6.703  19.173  0.00  0.00    -0.241 NA
ATOM    117  C   UNL     1      10.622  -7.580  19.841  0.00  0.00    +0.196 A 
ATOM    118  N   UNL     1      11.399  -8.543  20.423  0.00  0.00    -0.351 N 
ATOM    119  H   UNL     1      11.101  -9.405  20.866  0.00  0.00    +0.166 HD
ATOM    120  C   UNL     1      12.638  -8.006  20.461  0.00  0.00    +0.107 A 
ENDBRANCH 114 115
ENDBRANCH  21 114
TORSDOF 35
ENDMDL
