MODEL 1
REMARK VINA RESULT:      -5.9      0.000      0.000
REMARK  Name = 
REMARK  18 active torsions:
REMARK  status: ('A' for Active; 'I' for Inactive)
REMARK    1  A    between atoms: C_1  and  C_2
REMARK    2  A    between atoms: C_2  and  O_3
REMARK    3  A    between atoms: O_3  and  C_4
REMARK    4  A    between atoms: C_4  and  C_6
REMARK    5  A    between atoms: C_7  and  C_8
REMARK    6  A    between atoms: C_10  and  C_11
REMARK    7  A    between atoms: C_12  and  C_29
REMARK    8  A    between atoms: C_13  and  C_14
REMARK    9  A    between atoms: C_19  and  C_20
REMARK   10  A    between atoms: C_21  and  C_22
REMARK   11  A    between atoms: C_22  and  O_24
REMARK   12  A    between atoms: O_24  and  C_25
REMARK   13  A    between atoms: C_25  and  C_26
REMARK   14  A    between atoms: C_25  and  C_27
REMARK   15  A    between atoms: C_25  and  C_28
REMARK   16  A    between atoms: C_29  and  O_31
REMARK   17  A    between atoms: O_31  and  C_32
REMARK   18  A    between atoms: C_32  and  C_33
REMARK                            x       y       z     vdW  Elec       q    Type
REMARK                         _______ _______ _______ _____ _____    ______ ____
ROOT
ATOM      1  C   UNL     1       3.837  -2.768  25.974  0.00  0.00    +0.065 C 
ATOM      2  C   UNL     1       4.696  -3.534  24.942  0.00  0.00    +0.096 C 
ATOM      3  C   UNL     1       3.908  -4.610  24.169  0.00  0.00    +0.065 C 
ATOM      4  C   UNL     1       2.555  -4.645  24.255  0.00  0.00    +0.016 C 
ATOM      5  C   UNL     1       1.665  -5.649  23.559  0.00  0.00    +0.061 C 
ATOM      6  N   UNL     1       1.885  -3.712  25.026  0.00  0.00    -0.321 N 
ATOM      7  H   UNL     1       0.877  -3.825  25.111  0.00  0.00    +0.152 HD
ATOM      8  C   UNL     1       2.484  -2.863  25.941  0.00  0.00    +0.016 C 
ATOM      9  C   UNL     1       1.498  -2.132  26.822  0.00  0.00    +0.061 C 
ENDROOT
BRANCH   2  10
ATOM     10  C   UNL     1       6.036  -4.029  25.512  0.00  0.00    -0.028 A 
ATOM     11  C   UNL     1       7.301  -3.531  25.138  0.00  0.00    -0.021 A 
ATOM     12  C   UNL     1       8.442  -4.075  25.757  0.00  0.00    +0.008 A 
ATOM     13  C   UNL     1       8.353  -5.080  26.724  0.00  0.00    +0.001 A 
ATOM     14  C   UNL     1       7.109  -5.571  27.092  0.00  0.00    +0.000 A 
ATOM     15  C   UNL     1       5.968  -5.053  26.492  0.00  0.00    +0.005 A 
BRANCH  11  16
ATOM     16  C   UNL     1       7.475  -2.503  24.093  0.00  0.00    +0.015 C 
ATOM     17  C   UNL     1       8.639  -1.871  23.873  0.00  0.00    +0.092 C 
BRANCH  17  18
ATOM     18  C   UNL     1       8.885  -0.918  22.771  0.00  0.00    +0.332 C 
ATOM     19  O   UNL     1       9.290  -1.301  21.684  0.00  0.00    -0.246 OA
BRANCH  18  20
ATOM     20  O   UNL     1       8.605   0.353  23.134  0.00  0.00    -0.456 OA
BRANCH  20  21
ATOM     21  C   UNL     1       9.678   1.283  23.434  0.00  0.00    +0.106 C 
ATOM     22  C   UNL     1      10.827   0.605  24.190  0.00  0.00    +0.055 C 
ATOM     23  C   UNL     1       9.040   2.332  24.357  0.00  0.00    +0.055 C 
ATOM     24  C   UNL     1      10.171   1.979  22.160  0.00  0.00    +0.055 C 
ENDBRANCH  20  21
ENDBRANCH  18  20
ENDBRANCH  17  18
ENDBRANCH  11  16
ENDBRANCH   2  10
BRANCH   1  25
ATOM     25  C   UNL     1       4.484  -1.965  27.041  0.00  0.00    +0.338 C 
ATOM     26  O   UNL     1       4.518  -2.304  28.217  0.00  0.00    -0.245 OA
BRANCH  25  27
ATOM     27  O   UNL     1       5.017  -0.822  26.547  0.00  0.00    -0.462 OA
BRANCH  27  29
ATOM     28  C   UNL     1       7.305  -0.225  27.001  0.00  0.00    +0.048 C 
ATOM     29  C   UNL     1       5.864  -0.101  27.457  0.00  0.00    +0.229 C 
ENDBRANCH  27  29
ENDBRANCH  25  27
ENDBRANCH   1  25
BRANCH   3  30
ATOM     30  C   UNL     1       4.603  -5.625  23.322  0.00  0.00    +0.338 C 
ATOM     31  O   UNL     1       4.812  -6.780  23.667  0.00  0.00    -0.245 OA
BRANCH  30  32
ATOM     32  O   UNL     1       4.963  -5.122  22.114  0.00  0.00    -0.462 OA
BRANCH  32  33
ATOM     33  C   UNL     1       5.981  -5.868  21.425  0.00  0.00    +0.229 C 
ATOM     34  C   UNL     1       7.381  -5.492  21.890  0.00  0.00    +0.048 C 
ENDBRANCH  32  33
ENDBRANCH  30  32
ENDBRANCH   3  30
TORSDOF 11
ENDMDL
MODEL 2
REMARK VINA RESULT:      -5.5      2.177      4.443
REMARK  Name = 
REMARK  18 active torsions:
REMARK  status: ('A' for Active; 'I' for Inactive)
REMARK    1  A    between atoms: C_1  and  C_2
REMARK    2  A    between atoms: C_2  and  O_3
REMARK    3  A    between atoms: O_3  and  C_4
REMARK    4  A    between atoms: C_4  and  C_6
REMARK    5  A    between atoms: C_7  and  C_8
REMARK    6  A    between atoms: C_10  and  C_11
REMARK    7  A    between atoms: C_12  and  C_29
REMARK    8  A    between atoms: C_13  and  C_14
REMARK    9  A    between atoms: C_19  and  C_20
REMARK   10  A    between atoms: C_21  and  C_22
REMARK   11  A    between atoms: C_22  and  O_24
REMARK   12  A    between atoms: O_24  and  C_25
REMARK   13  A    between atoms: C_25  and  C_26
REMARK   14  A    between atoms: C_25  and  C_27
REMARK   15  A    between atoms: C_25  and  C_28
REMARK   16  A    between atoms: C_29  and  O_31
REMARK   17  A    between atoms: O_31  and  C_32
REMARK   18  A    between atoms: C_32  and  C_33
REMARK                            x       y       z     vdW  Elec       q    Type
REMARK                         _______ _______ _______ _____ _____    ______ ____
ROOT
ATOM      1  C   UNL     1       6.974  -5.269  25.710  0.00  0.00    +0.065 C 
ATOM      2  C   UNL     1       5.524  -5.527  25.241  0.00  0.00    +0.096 C 
ATOM      3  C   UNL     1       5.379  -5.594  23.707  0.00  0.00    +0.065 C 
ATOM      4  C   UNL     1       6.488  -5.668  22.931  0.00  0.00    +0.016 C 
ATOM      5  C   UNL     1       6.488  -5.730  21.420  0.00  0.00    +0.061 C 
ATOM      6  N   UNL     1       7.743  -5.694  23.512  0.00  0.00    -0.321 N 
ATOM      7  H   UNL     1       8.541  -5.681  22.882  0.00  0.00    +0.152 HD
ATOM      8  C   UNL     1       8.006  -5.402  24.840  0.00  0.00    +0.016 C 
ATOM      9  C   UNL     1       9.479  -5.259  25.145  0.00  0.00    +0.061 C 
ENDROOT
BRANCH   2  10
ATOM     10  C   UNL     1       4.491  -4.618  25.928  0.00  0.00    -0.028 A 
ATOM     11  C   UNL     1       4.390  -3.225  25.730  0.00  0.00    -0.021 A 
ATOM     12  C   UNL     1       3.382  -2.524  26.421  0.00  0.00    +0.008 A 
ATOM     13  C   UNL     1       2.489  -3.168  27.281  0.00  0.00    +0.001 A 
ATOM     14  C   UNL     1       2.588  -4.537  27.476  0.00  0.00    +0.000 A 
ATOM     15  C   UNL     1       3.577  -5.250  26.809  0.00  0.00    +0.005 A 
BRANCH  11  16
ATOM     16  C   UNL     1       5.327  -2.472  24.873  0.00  0.00    +0.015 C 
ATOM     17  C   UNL     1       5.633  -1.181  25.079  0.00  0.00    +0.092 C 
BRANCH  17  18
ATOM     18  C   UNL     1       6.642  -0.423  24.313  0.00  0.00    +0.332 C 
ATOM     19  O   UNL     1       6.333   0.564  23.663  0.00  0.00    -0.246 OA
BRANCH  18  20
ATOM     20  O   UNL     1       7.877  -0.958  24.441  0.00  0.00    -0.456 OA
BRANCH  20  21
ATOM     21  C   UNL     1       8.647  -1.314  23.263  0.00  0.00    +0.106 C 
ATOM     22  C   UNL     1       7.874  -2.263  22.339  0.00  0.00    +0.055 C 
ATOM     23  C   UNL     1       9.875  -2.058  23.808  0.00  0.00    +0.055 C 
ATOM     24  C   UNL     1       9.120  -0.059  22.519  0.00  0.00    +0.055 C 
ENDBRANCH  20  21
ENDBRANCH  18  20
ENDBRANCH  17  18
ENDBRANCH  11  16
ENDBRANCH   2  10
BRANCH   1  25
ATOM     25  C   UNL     1       7.246  -4.823  27.099  0.00  0.00    +0.338 C 
ATOM     26  O   UNL     1       7.404  -3.651  27.415  0.00  0.00    -0.245 OA
BRANCH  25  27
ATOM     27  O   UNL     1       7.301  -5.872  27.954  0.00  0.00    -0.462 OA
BRANCH  27  29
ATOM     28  C   UNL     1       5.407  -7.029  28.887  0.00  0.00    +0.048 C 
ATOM     29  C   UNL     1       6.339  -5.839  29.021  0.00  0.00    +0.229 C 
ENDBRANCH  27  29
ENDBRANCH  25  27
ENDBRANCH   1  25
BRANCH   3  30
ATOM     30  C   UNL     1       4.038  -5.577  23.051  0.00  0.00    +0.338 C 
ATOM     31  O   UNL     1       3.485  -4.564  22.646  0.00  0.00    -0.245 OA
BRANCH  30  32
ATOM     32  O   UNL     1       3.508  -6.821  22.939  0.00  0.00    -0.462 OA
BRANCH  32  33
ATOM     33  C   UNL     1       2.251  -7.009  23.613  0.00  0.00    +0.229 C 
ATOM     34  C   UNL     1       2.345  -8.043  24.726  0.00  0.00    +0.048 C 
ENDBRANCH  32  33
ENDBRANCH  30  32
ENDBRANCH   3  30
TORSDOF 11
ENDMDL
MODEL 3
REMARK VINA RESULT:      -5.4      2.072      3.523
REMARK  Name = 
REMARK  18 active torsions:
REMARK  status: ('A' for Active; 'I' for Inactive)
REMARK    1  A    between atoms: C_1  and  C_2
REMARK    2  A    between atoms: C_2  and  O_3
REMARK    3  A    between atoms: O_3  and  C_4
REMARK    4  A    between atoms: C_4  and  C_6
REMARK    5  A    between atoms: C_7  and  C_8
REMARK    6  A    between atoms: C_10  and  C_11
REMARK    7  A    between atoms: C_12  and  C_29
REMARK    8  A    between atoms: C_13  and  C_14
REMARK    9  A    between atoms: C_19  and  C_20
REMARK   10  A    between atoms: C_21  and  C_22
REMARK   11  A    between atoms: C_22  and  O_24
REMARK   12  A    between atoms: O_24  and  C_25
REMARK   13  A    between atoms: C_25  and  C_26
REMARK   14  A    between atoms: C_25  and  C_27
REMARK   15  A    between atoms: C_25  and  C_28
REMARK   16  A    between atoms: C_29  and  O_31
REMARK   17  A    between atoms: O_31  and  C_32
REMARK   18  A    between atoms: C_32  and  C_33
REMARK                            x       y       z     vdW  Elec       q    Type
REMARK                         _______ _______ _______ _____ _____    ______ ____
ROOT
ATOM      1  C   UNL     1       5.637  -5.040  26.397  0.00  0.00    +0.065 C 
ATOM      2  C   UNL     1       4.820  -4.763  25.114  0.00  0.00    +0.096 C 
ATOM      3  C   UNL     1       3.433  -5.437  25.113  0.00  0.00    +0.065 C 
ATOM      4  C   UNL     1       2.951  -5.981  26.257  0.00  0.00    +0.016 C 
ATOM      5  C   UNL     1       1.615  -6.678  26.392  0.00  0.00    +0.061 C 
ATOM      6  N   UNL     1       3.695  -5.923  27.422  0.00  0.00    -0.321 N 
ATOM      7  H   UNL     1       3.317  -6.407  28.233  0.00  0.00    +0.152 HD
ATOM      8  C   UNL     1       5.030  -5.565  27.490  0.00  0.00    +0.016 C 
ATOM      9  C   UNL     1       5.657  -5.831  28.839  0.00  0.00    +0.061 C 
ENDROOT
BRANCH   2  10
ATOM     10  C   UNL     1       5.624  -4.984  23.821  0.00  0.00    -0.028 A 
ATOM     11  C   UNL     1       6.254  -3.962  23.082  0.00  0.00    -0.021 A 
ATOM     12  C   UNL     1       6.967  -4.320  21.921  0.00  0.00    +0.008 A 
ATOM     13  C   UNL     1       7.067  -5.646  21.493  0.00  0.00    +0.001 A 
ATOM     14  C   UNL     1       6.446  -6.652  22.218  0.00  0.00    +0.000 A 
ATOM     15  C   UNL     1       5.734  -6.323  23.365  0.00  0.00    +0.005 A 
BRANCH  11  16
ATOM     16  C   UNL     1       6.153  -2.536  23.448  0.00  0.00    +0.015 C 
ATOM     17  C   UNL     1       7.088  -1.628  23.125  0.00  0.00    +0.092 C 
BRANCH  17  18
ATOM     18  C   UNL     1       6.975  -0.177  23.378  0.00  0.00    +0.332 C 
ATOM     19  O   UNL     1       6.206   0.259  24.221  0.00  0.00    -0.246 OA
BRANCH  18  20
ATOM     20  O   UNL     1       7.803   0.538  22.584  0.00  0.00    -0.456 OA
BRANCH  20  21
ATOM     21  C   UNL     1       9.170   0.797  22.996  0.00  0.00    +0.106 C 
ATOM     22  C   UNL     1       9.232   1.601  24.301  0.00  0.00    +0.055 C 
ATOM     23  C   UNL     1       9.763   1.655  21.867  0.00  0.00    +0.055 C 
ATOM     24  C   UNL     1       9.968  -0.508  23.097  0.00  0.00    +0.055 C 
ENDBRANCH  20  21
ENDBRANCH  18  20
ENDBRANCH  17  18
ENDBRANCH  11  16
ENDBRANCH   2  10
BRANCH   1  25
ATOM     25  C   UNL     1       7.098  -4.784  26.427  0.00  0.00    +0.338 C 
ATOM     26  O   UNL     1       7.940  -5.644  26.207  0.00  0.00    -0.245 OA
BRANCH  25  27
ATOM     27  O   UNL     1       7.368  -3.491  26.731  0.00  0.00    -0.462 OA
BRANCH  27  29
ATOM     28  C   UNL     1       8.693  -1.499  26.468  0.00  0.00    +0.048 C 
ATOM     29  C   UNL     1       8.616  -2.993  26.221  0.00  0.00    +0.229 C 
ENDBRANCH  27  29
ENDBRANCH  25  27
ENDBRANCH   1  25
BRANCH   3  30
ATOM     30  C   UNL     1       2.603  -5.508  23.874  0.00  0.00    +0.338 C 
ATOM     31  O   UNL     1       1.989  -4.560  23.403  0.00  0.00    -0.245 OA
BRANCH  30  32
ATOM     32  O   UNL     1       2.622  -6.745  23.317  0.00  0.00    -0.462 OA
BRANCH  32  33
ATOM     33  C   UNL     1       1.435  -7.099  22.585  0.00  0.00    +0.229 C 
ATOM     34  C   UNL     1       1.002  -8.534  22.852  0.00  0.00    +0.048 C 
ENDBRANCH  32  33
ENDBRANCH  30  32
ENDBRANCH   3  30
TORSDOF 11
ENDMDL
MODEL 4
REMARK VINA RESULT:      -5.4      2.068      5.310
REMARK  Name = 
REMARK  18 active torsions:
REMARK  status: ('A' for Active; 'I' for Inactive)
REMARK    1  A    between atoms: C_1  and  C_2
REMARK    2  A    between atoms: C_2  and  O_3
REMARK    3  A    between atoms: O_3  and  C_4
REMARK    4  A    between atoms: C_4  and  C_6
REMARK    5  A    between atoms: C_7  and  C_8
REMARK    6  A    between atoms: C_10  and  C_11
REMARK    7  A    between atoms: C_12  and  C_29
REMARK    8  A    between atoms: C_13  and  C_14
REMARK    9  A    between atoms: C_19  and  C_20
REMARK   10  A    between atoms: C_21  and  C_22
REMARK   11  A    between atoms: C_22  and  O_24
REMARK   12  A    between atoms: O_24  and  C_25
REMARK   13  A    between atoms: C_25  and  C_26
REMARK   14  A    between atoms: C_25  and  C_27
REMARK   15  A    between atoms: C_25  and  C_28
REMARK   16  A    between atoms: C_29  and  O_31
REMARK   17  A    between atoms: O_31  and  C_32
REMARK   18  A    between atoms: C_32  and  C_33
REMARK                            x       y       z     vdW  Elec       q    Type
REMARK                         _______ _______ _______ _____ _____    ______ ____
ROOT
ATOM      1  C   UNL     1       4.230  -2.570  25.552  0.00  0.00    +0.065 C 
ATOM      2  C   UNL     1       4.911  -3.346  24.402  0.00  0.00    +0.096 C 
ATOM      3  C   UNL     1       4.186  -4.657  24.034  0.00  0.00    +0.065 C 
ATOM      4  C   UNL     1       2.950  -4.903  24.533  0.00  0.00    +0.016 C 
ATOM      5  C   UNL     1       2.135  -6.147  24.262  0.00  0.00    +0.061 C 
ATOM      6  N   UNL     1       2.338  -3.977  25.360  0.00  0.00    -0.321 N 
ATOM      7  H   UNL     1       1.441  -4.242  25.761  0.00  0.00    +0.152 HD
ATOM      8  C   UNL     1       2.974  -2.895  25.944  0.00  0.00    +0.016 C 
ATOM      9  C   UNL     1       2.139  -2.200  26.994  0.00  0.00    +0.061 C 
ENDROOT
BRANCH   2  10
ATOM     10  C   UNL     1       6.430  -3.503  24.588  0.00  0.00    -0.028 A 
ATOM     11  C   UNL     1       7.039  -4.344  25.542  0.00  0.00    -0.021 A 
ATOM     12  C   UNL     1       8.446  -4.393  25.586  0.00  0.00    +0.008 A 
ATOM     13  C   UNL     1       9.242  -3.642  24.717  0.00  0.00    +0.001 A 
ATOM     14  C   UNL     1       8.643  -2.814  23.780  0.00  0.00    +0.000 A 
ATOM     15  C   UNL     1       7.257  -2.745  23.719  0.00  0.00    +0.005 A 
BRANCH  11  16
ATOM     16  C   UNL     1       6.264  -5.131  26.521  0.00  0.00    +0.015 C 
ATOM     17  C   UNL     1       6.756  -5.509  27.712  0.00  0.00    +0.092 C 
BRANCH  17  18
ATOM     18  C   UNL     1       5.981  -6.201  28.761  0.00  0.00    +0.332 C 
ATOM     19  O   UNL     1       6.393  -6.268  29.910  0.00  0.00    -0.246 OA
BRANCH  18  20
ATOM     20  O   UNL     1       4.825  -6.709  28.281  0.00  0.00    -0.456 OA
BRANCH  20  21
ATOM     21  C   UNL     1       3.556  -6.334  28.877  0.00  0.00    +0.106 C 
ATOM     22  C   UNL     1       3.254  -7.151  30.140  0.00  0.00    +0.055 C 
ATOM     23  C   UNL     1       2.505  -6.680  27.811  0.00  0.00    +0.055 C 
ATOM     24  C   UNL     1       3.504  -4.827  29.152  0.00  0.00    +0.055 C 
ENDBRANCH  20  21
ENDBRANCH  18  20
ENDBRANCH  17  18
ENDBRANCH  11  16
ENDBRANCH   2  10
BRANCH   1  25
ATOM     25  C   UNL     1       4.963  -1.498  26.271  0.00  0.00    +0.338 C 
ATOM     26  O   UNL     1       5.581  -1.681  27.311  0.00  0.00    -0.245 OA
BRANCH  25  27
ATOM     27  O   UNL     1       4.851  -0.308  25.634  0.00  0.00    -0.462 OA
BRANCH  27  29
ATOM     28  C   UNL     1       6.317   0.765  24.054  0.00  0.00    +0.048 C 
ATOM     29  C   UNL     1       6.073   0.438  25.515  0.00  0.00    +0.229 C 
ENDBRANCH  27  29
ENDBRANCH  25  27
ENDBRANCH   1  25
BRANCH   3  30
ATOM     30  C   UNL     1       4.818  -5.670  23.138  0.00  0.00    +0.338 C 
ATOM     31  O   UNL     1       5.117  -6.804  23.487  0.00  0.00    -0.245 OA
BRANCH  30  32
ATOM     32  O   UNL     1       5.007  -5.193  21.882  0.00  0.00    -0.462 OA
BRANCH  32  33
ATOM     33  C   UNL     1       6.022  -5.872  21.122  0.00  0.00    +0.229 C 
ATOM     34  C   UNL     1       7.410  -5.679  21.717  0.00  0.00    +0.048 C 
ENDBRANCH  32  33
ENDBRANCH  30  32
ENDBRANCH   3  30
TORSDOF 11
ENDMDL
MODEL 5
REMARK VINA RESULT:      -5.4      1.447      2.191
REMARK  Name = 
REMARK  18 active torsions:
REMARK  status: ('A' for Active; 'I' for Inactive)
REMARK    1  A    between atoms: C_1  and  C_2
REMARK    2  A    between atoms: C_2  and  O_3
REMARK    3  A    between atoms: O_3  and  C_4
REMARK    4  A    between atoms: C_4  and  C_6
REMARK    5  A    between atoms: C_7  and  C_8
REMARK    6  A    between atoms: C_10  and  C_11
REMARK    7  A    between atoms: C_12  and  C_29
REMARK    8  A    between atoms: C_13  and  C_14
REMARK    9  A    between atoms: C_19  and  C_20
REMARK   10  A    between atoms: C_21  and  C_22
REMARK   11  A    between atoms: C_22  and  O_24
REMARK   12  A    between atoms: O_24  and  C_25
REMARK   13  A    between atoms: C_25  and  C_26
REMARK   14  A    between atoms: C_25  and  C_27
REMARK   15  A    between atoms: C_25  and  C_28
REMARK   16  A    between atoms: C_29  and  O_31
REMARK   17  A    between atoms: O_31  and  C_32
REMARK   18  A    between atoms: C_32  and  C_33
REMARK                            x       y       z     vdW  Elec       q    Type
REMARK                         _______ _______ _______ _____ _____    ______ ____
ROOT
ATOM      1  C   UNL     1       3.482  -3.822  26.686  0.00  0.00    +0.065 C 
ATOM      2  C   UNL     1       4.430  -3.681  25.474  0.00  0.00    +0.096 C 
ATOM      3  C   UNL     1       3.914  -4.391  24.206  0.00  0.00    +0.065 C 
ATOM      4  C   UNL     1       2.638  -4.847  24.164  0.00  0.00    +0.016 C 
ATOM      5  C   UNL     1       2.010  -5.566  22.992  0.00  0.00    +0.061 C 
ATOM      6  N   UNL     1       1.800  -4.666  25.250  0.00  0.00    -0.321 N 
ATOM      7  H   UNL     1       0.876  -5.088  25.192  0.00  0.00    +0.152 HD
ATOM      8  C   UNL     1       2.212  -4.267  26.510  0.00  0.00    +0.016 C 
ATOM      9  C   UNL     1       1.138  -4.396  27.565  0.00  0.00    +0.061 C 
ENDROOT
BRANCH   2  10
ATOM     10  C   UNL     1       5.899  -3.992  25.811  0.00  0.00    -0.028 A 
ATOM     11  C   UNL     1       6.975  -3.104  25.607  0.00  0.00    -0.021 A 
ATOM     12  C   UNL     1       8.267  -3.525  25.977  0.00  0.00    +0.008 A 
ATOM     13  C   UNL     1       8.504  -4.783  26.536  0.00  0.00    +0.001 A 
ATOM     14  C   UNL     1       7.447  -5.658  26.735  0.00  0.00    +0.000 A 
ATOM     15  C   UNL     1       6.163  -5.266  26.375  0.00  0.00    +0.005 A 
BRANCH  11  16
ATOM     16  C   UNL     1       6.806  -1.778  24.980  0.00  0.00    +0.015 C 
ATOM     17  C   UNL     1       7.815  -1.107  24.400  0.00  0.00    +0.092 C 
BRANCH  17  18
ATOM     18  C   UNL     1       7.667   0.167  23.669  0.00  0.00    +0.332 C 
ATOM     19  O   UNL     1       6.873   0.279  22.748  0.00  0.00    -0.246 OA
BRANCH  18  20
ATOM     20  O   UNL     1       8.492   1.123  24.153  0.00  0.00    -0.456 OA
BRANCH  20  21
ATOM     21  C   UNL     1       9.776   1.370  23.523  0.00  0.00    +0.106 C 
ATOM     22  C   UNL     1       9.835   0.800  22.101  0.00  0.00    +0.055 C 
ATOM     23  C   UNL     1      10.791   0.613  24.394  0.00  0.00    +0.055 C 
ATOM     24  C   UNL     1      10.119   2.864  23.549  0.00  0.00    +0.055 C 
ENDBRANCH  20  21
ENDBRANCH  18  20
ENDBRANCH  17  18
ENDBRANCH  11  16
ENDBRANCH   2  10
BRANCH   1  25
ATOM     25  C   UNL     1       3.965  -3.524  28.057  0.00  0.00    +0.338 C 
ATOM     26  O   UNL     1       4.344  -2.416  28.414  0.00  0.00    -0.245 OA
BRANCH  25  27
ATOM     27  O   UNL     1       3.935  -4.626  28.844  0.00  0.00    -0.462 OA
BRANCH  27  29
ATOM     28  C   UNL     1       5.586  -5.959  29.981  0.00  0.00    +0.048 C 
ATOM     29  C   UNL     1       4.871  -4.622  29.934  0.00  0.00    +0.229 C 
ENDBRANCH  27  29
ENDBRANCH  25  27
ENDBRANCH   1  25
BRANCH   3  30
ATOM     30  C   UNL     1       4.792  -4.593  23.016  0.00  0.00    +0.338 C 
ATOM     31  O   UNL     1       5.036  -3.726  22.188  0.00  0.00    -0.245 OA
BRANCH  30  32
ATOM     32  O   UNL     1       5.304  -5.848  22.965  0.00  0.00    -0.462 OA
BRANCH  32  33
ATOM     33  C   UNL     1       6.488  -5.990  22.161  0.00  0.00    +0.229 C 
ATOM     34  C   UNL     1       7.746  -5.584  22.915  0.00  0.00    +0.048 C 
ENDBRANCH  32  33
ENDBRANCH  30  32
ENDBRANCH   3  30
TORSDOF 11
ENDMDL
MODEL 6
REMARK VINA RESULT:      -5.3      2.971      5.464
REMARK  Name = 
REMARK  18 active torsions:
REMARK  status: ('A' for Active; 'I' for Inactive)
REMARK    1  A    between atoms: C_1  and  C_2
REMARK    2  A    between atoms: C_2  and  O_3
REMARK    3  A    between atoms: O_3  and  C_4
REMARK    4  A    between atoms: C_4  and  C_6
REMARK    5  A    between atoms: C_7  and  C_8
REMARK    6  A    between atoms: C_10  and  C_11
REMARK    7  A    between atoms: C_12  and  C_29
REMARK    8  A    between atoms: C_13  and  C_14
REMARK    9  A    between atoms: C_19  and  C_20
REMARK   10  A    between atoms: C_21  and  C_22
REMARK   11  A    between atoms: C_22  and  O_24
REMARK   12  A    between atoms: O_24  and  C_25
REMARK   13  A    between atoms: C_25  and  C_26
REMARK   14  A    between atoms: C_25  and  C_27
REMARK   15  A    between atoms: C_25  and  C_28
REMARK   16  A    between atoms: C_29  and  O_31
REMARK   17  A    between atoms: O_31  and  C_32
REMARK   18  A    between atoms: C_32  and  C_33
REMARK                            x       y       z     vdW  Elec       q    Type
REMARK                         _______ _______ _______ _____ _____    ______ ____
ROOT
ATOM      1  C   UNL     1       7.976  -1.817  26.300  0.00  0.00    +0.065 C 
ATOM      2  C   UNL     1       8.567  -2.313  24.961  0.00  0.00    +0.096 C 
ATOM      3  C   UNL     1       9.473  -1.275  24.269  0.00  0.00    +0.065 C 
ATOM      4  C   UNL     1       9.869  -0.170  24.949  0.00  0.00    +0.016 C 
ATOM      5  C   UNL     1      10.746   0.927  24.390  0.00  0.00    +0.061 C 
ATOM      6  N   UNL     1       9.469   0.019  26.260  0.00  0.00    -0.321 N 
ATOM      7  H   UNL     1       9.737   0.896  26.700  0.00  0.00    +0.152 HD
ATOM      8  C   UNL     1       8.479  -0.708  26.898  0.00  0.00    +0.016 C 
ATOM      9  C   UNL     1       8.071  -0.129  28.233  0.00  0.00    +0.061 C 
ENDROOT
BRANCH   2  10
ATOM     10  C   UNL     1       7.519  -2.946  24.030  0.00  0.00    -0.028 A 
ATOM     11  C   UNL     1       6.301  -2.338  23.661  0.00  0.00    -0.021 A 
ATOM     12  C   UNL     1       5.444  -3.036  22.788  0.00  0.00    +0.008 A 
ATOM     13  C   UNL     1       5.769  -4.297  22.282  0.00  0.00    +0.001 A 
ATOM     14  C   UNL     1       6.966  -4.896  22.645  0.00  0.00    +0.000 A 
ATOM     15  C   UNL     1       7.826  -4.229  23.509  0.00  0.00    +0.005 A 
BRANCH  11  16
ATOM     16  C   UNL     1       5.871  -1.029  24.192  0.00  0.00    +0.015 C 
ATOM     17  C   UNL     1       6.375   0.138  23.760  0.00  0.00    +0.092 C 
BRANCH  17  18
ATOM     18  C   UNL     1       5.897   1.469  24.185  0.00  0.00    +0.332 C 
ATOM     19  O   UNL     1       4.706   1.693  24.341  0.00  0.00    -0.246 OA
BRANCH  18  20
ATOM     20  O   UNL     1       6.918   2.336  24.365  0.00  0.00    -0.456 OA
BRANCH  20  21
ATOM     21  C   UNL     1       6.870   3.658  23.767  0.00  0.00    +0.106 C 
ATOM     22  C   UNL     1       8.273   4.246  23.567  0.00  0.00    +0.055 C 
ATOM     23  C   UNL     1       6.121   4.525  24.792  0.00  0.00    +0.055 C 
ATOM     24  C   UNL     1       6.073   3.639  22.458  0.00  0.00    +0.055 C 
ENDBRANCH  20  21
ENDBRANCH  18  20
ENDBRANCH  17  18
ENDBRANCH  11  16
ENDBRANCH   2  10
BRANCH   1  25
ATOM     25  C   UNL     1       6.823  -2.518  26.918  0.00  0.00    +0.338 C 
ATOM     26  O   UNL     1       5.752  -1.976  27.157  0.00  0.00    -0.245 OA
BRANCH  25  27
ATOM     27  O   UNL     1       7.113  -3.814  27.181  0.00  0.00    -0.462 OA
BRANCH  27  29
ATOM     28  C   UNL     1       5.733  -5.523  26.195  0.00  0.00    +0.048 C 
ATOM     29  C   UNL     1       5.975  -4.658  27.418  0.00  0.00    +0.229 C 
ENDBRANCH  27  29
ENDBRANCH  25  27
ENDBRANCH   1  25
BRANCH   3  30
ATOM     30  C   UNL     1       9.928  -1.455  22.859  0.00  0.00    +0.338 C 
ATOM     31  O   UNL     1      11.001  -1.948  22.541  0.00  0.00    -0.245 OA
BRANCH  30  32
ATOM     32  O   UNL     1       9.002  -1.024  21.965  0.00  0.00    -0.462 OA
BRANCH  32  33
ATOM     33  C   UNL     1       9.442   0.038  21.101  0.00  0.00    +0.229 C 
ATOM     34  C   UNL     1       8.756   1.359  21.420  0.00  0.00    +0.048 C 
ENDBRANCH  32  33
ENDBRANCH  30  32
ENDBRANCH   3  30
TORSDOF 11
ENDMDL
MODEL 7
REMARK VINA RESULT:      -5.3      2.139      4.613
REMARK  Name = 
REMARK  18 active torsions:
REMARK  status: ('A' for Active; 'I' for Inactive)
REMARK    1  A    between atoms: C_1  and  C_2
REMARK    2  A    between atoms: C_2  and  O_3
REMARK    3  A    between atoms: O_3  and  C_4
REMARK    4  A    between atoms: C_4  and  C_6
REMARK    5  A    between atoms: C_7  and  C_8
REMARK    6  A    between atoms: C_10  and  C_11
REMARK    7  A    between atoms: C_12  and  C_29
REMARK    8  A    between atoms: C_13  and  C_14
REMARK    9  A    between atoms: C_19  and  C_20
REMARK   10  A    between atoms: C_21  and  C_22
REMARK   11  A    between atoms: C_22  and  O_24
REMARK   12  A    between atoms: O_24  and  C_25
REMARK   13  A    between atoms: C_25  and  C_26
REMARK   14  A    between atoms: C_25  and  C_27
REMARK   15  A    between atoms: C_25  and  C_28
REMARK   16  A    between atoms: C_29  and  O_31
REMARK   17  A    between atoms: O_31  and  C_32
REMARK   18  A    between atoms: C_32  and  C_33
REMARK                            x       y       z     vdW  Elec       q    Type
REMARK                         _______ _______ _______ _____ _____    ______ ____
ROOT
ATOM      1  C   UNL     1       5.754  -4.520  27.748  0.00  0.00    +0.065 C 
ATOM      2  C   UNL     1       5.500  -3.173  27.033  0.00  0.00    +0.096 C 
ATOM      3  C   UNL     1       4.388  -2.331  27.690  0.00  0.00    +0.065 C 
ATOM      4  C   UNL     1       3.911  -2.683  28.910  0.00  0.00    +0.016 C 
ATOM      5  C   UNL     1       2.819  -1.954  29.660  0.00  0.00    +0.061 C 
ATOM      6  N   UNL     1       4.428  -3.787  29.565  0.00  0.00    -0.321 N 
ATOM      7  H   UNL     1       3.987  -4.046  30.445  0.00  0.00    +0.152 HD
ATOM      8  C   UNL     1       5.243  -4.743  28.984  0.00  0.00    +0.016 C 
ATOM      9  C   UNL     1       5.451  -5.964  29.849  0.00  0.00    +0.061 C 
ENDROOT
BRANCH   2  10
ATOM     10  C   UNL     1       5.361  -3.310  25.507  0.00  0.00    -0.028 A 
ATOM     11  C   UNL     1       6.211  -2.695  24.565  0.00  0.00    -0.021 A 
ATOM     12  C   UNL     1       5.967  -2.923  23.197  0.00  0.00    +0.008 A 
ATOM     13  C   UNL     1       4.920  -3.737  22.757  0.00  0.00    +0.001 A 
ATOM     14  C   UNL     1       4.083  -4.341  23.683  0.00  0.00    +0.000 A 
ATOM     15  C   UNL     1       4.301  -4.128  25.038  0.00  0.00    +0.005 A 
BRANCH  11  16
ATOM     16  C   UNL     1       7.308  -1.787  24.955  0.00  0.00    +0.015 C 
ATOM     17  C   UNL     1       8.087  -1.152  24.063  0.00  0.00    +0.092 C 
BRANCH  17  18
ATOM     18  C   UNL     1       9.121  -0.156  24.408  0.00  0.00    +0.332 C 
ATOM     19  O   UNL     1      10.189  -0.497  24.893  0.00  0.00    -0.246 OA
BRANCH  18  20
ATOM     20  O   UNL     1       8.724   1.102  24.118  0.00  0.00    -0.456 OA
BRANCH  20  21
ATOM     21  C   UNL     1       9.350   1.837  23.033  0.00  0.00    +0.106 C 
ATOM     22  C   UNL     1      10.544   2.668  23.520  0.00  0.00    +0.055 C 
ATOM     23  C   UNL     1       8.261   2.797  22.530  0.00  0.00    +0.055 C 
ATOM     24  C   UNL     1       9.745   0.894  21.891  0.00  0.00    +0.055 C 
ENDBRANCH  20  21
ENDBRANCH  18  20
ENDBRANCH  17  18
ENDBRANCH  11  16
ENDBRANCH   2  10
BRANCH   1  25
ATOM     25  C   UNL     1       6.514  -5.599  27.069  0.00  0.00    +0.338 C 
ATOM     26  O   UNL     1       6.003  -6.413  26.312  0.00  0.00    -0.245 OA
BRANCH  25  27
ATOM     27  O   UNL     1       7.827  -5.564  27.400  0.00  0.00    -0.462 OA
BRANCH  27  29
ATOM     28  C   UNL     1       9.095  -5.353  25.365  0.00  0.00    +0.048 C 
ATOM     29  C   UNL     1       8.627  -4.655  26.628  0.00  0.00    +0.229 C 
ENDBRANCH  27  29
ENDBRANCH  25  27
ENDBRANCH   1  25
BRANCH   3  30
ATOM     30  C   UNL     1       3.817  -1.131  27.011  0.00  0.00    +0.338 C 
ATOM     31  O   UNL     1       2.755  -1.125  26.403  0.00  0.00    -0.245 OA
BRANCH  30  32
ATOM     32  O   UNL     1       4.605  -0.036  27.161  0.00  0.00    -0.462 OA
BRANCH  32  33
ATOM     33  C   UNL     1       4.957   0.631  25.936  0.00  0.00    +0.229 C 
ATOM     34  C   UNL     1       5.954   1.759  26.162  0.00  0.00    +0.048 C 
ENDBRANCH  32  33
ENDBRANCH  30  32
ENDBRANCH   3  30
TORSDOF 11
ENDMDL
MODEL 8
REMARK VINA RESULT:      -5.2      3.312      7.528
REMARK  Name = 
REMARK  18 active torsions:
REMARK  status: ('A' for Active; 'I' for Inactive)
REMARK    1  A    between atoms: C_1  and  C_2
REMARK    2  A    between atoms: C_2  and  O_3
REMARK    3  A    between atoms: O_3  and  C_4
REMARK    4  A    between atoms: C_4  and  C_6
REMARK    5  A    between atoms: C_7  and  C_8
REMARK    6  A    between atoms: C_10  and  C_11
REMARK    7  A    between atoms: C_12  and  C_29
REMARK    8  A    between atoms: C_13  and  C_14
REMARK    9  A    between atoms: C_19  and  C_20
REMARK   10  A    between atoms: C_21  and  C_22
REMARK   11  A    between atoms: C_22  and  O_24
REMARK   12  A    between atoms: O_24  and  C_25
REMARK   13  A    between atoms: C_25  and  C_26
REMARK   14  A    between atoms: C_25  and  C_27
REMARK   15  A    between atoms: C_25  and  C_28
REMARK   16  A    between atoms: C_29  and  O_31
REMARK   17  A    between atoms: O_31  and  C_32
REMARK   18  A    between atoms: C_32  and  C_33
REMARK                            x       y       z     vdW  Elec       q    Type
REMARK                         _______ _______ _______ _____ _____    ______ ____
ROOT
ATOM      1  C   UNL     1       8.317   1.325  23.768  0.00  0.00    +0.065 C 
ATOM      2  C   UNL     1       6.861   1.565  24.227  0.00  0.00    +0.096 C 
ATOM      3  C   UNL     1       6.279   2.908  23.741  0.00  0.00    +0.065 C 
ATOM      4  C   UNL     1       6.943   3.626  22.802  0.00  0.00    +0.016 C 
ATOM      5  C   UNL     1       6.490   4.958  22.246  0.00  0.00    +0.061 C 
ATOM      6  N   UNL     1       8.130   3.151  22.275  0.00  0.00    -0.321 N 
ATOM      7  H   UNL     1       8.621   3.762  21.625  0.00  0.00    +0.152 HD
ATOM      8  C   UNL     1       8.861   2.097  22.795  0.00  0.00    +0.016 C 
ATOM      9  C   UNL     1      10.235   1.955  22.181  0.00  0.00    +0.061 C 
ENDROOT
BRANCH   2  10
ATOM     10  C   UNL     1       6.642   1.295  25.725  0.00  0.00    -0.028 A 
ATOM     11  C   UNL     1       6.000   0.155  26.251  0.00  0.00    -0.021 A 
ATOM     12  C   UNL     1       5.884   0.039  27.650  0.00  0.00    +0.008 A 
ATOM     13  C   UNL     1       6.388   1.011  28.518  0.00  0.00    +0.001 A 
ATOM     14  C   UNL     1       7.018   2.133  28.002  0.00  0.00    +0.000 A 
ATOM     15  C   UNL     1       7.141   2.272  26.625  0.00  0.00    +0.005 A 
BRANCH  11  16
ATOM     16  C   UNL     1       5.404  -0.890  25.394  0.00  0.00    +0.015 C 
ATOM     17  C   UNL     1       5.475  -2.200  25.680  0.00  0.00    +0.092 C 
BRANCH  17  18
ATOM     18  C   UNL     1       4.803  -3.266  24.910  0.00  0.00    +0.332 C 
ATOM     19  O   UNL     1       3.600  -3.229  24.698  0.00  0.00    -0.246 OA
BRANCH  18  20
ATOM     20  O   UNL     1       5.671  -4.218  24.504  0.00  0.00    -0.456 OA
BRANCH  20  21
ATOM     21  C   UNL     1       5.907  -4.441  23.090  0.00  0.00    +0.106 C 
ATOM     22  C   UNL     1       5.055  -5.592  22.542  0.00  0.00    +0.055 C 
ATOM     23  C   UNL     1       7.387  -4.844  22.998  0.00  0.00    +0.055 C 
ATOM     24  C   UNL     1       5.696  -3.150  22.290  0.00  0.00    +0.055 C 
ENDBRANCH  20  21
ENDBRANCH  18  20
ENDBRANCH  17  18
ENDBRANCH  11  16
ENDBRANCH   2  10
BRANCH   1  25
ATOM     25  C   UNL     1       9.148   0.283  24.421  0.00  0.00    +0.338 C 
ATOM     26  O   UNL     1      10.084   0.534  25.168  0.00  0.00    -0.245 OA
BRANCH  25  27
ATOM     27  O   UNL     1       8.740  -0.963  24.078  0.00  0.00    -0.462 OA
BRANCH  27  29
ATOM     28  C   UNL     1       9.227  -1.628  21.816  0.00  0.00    +0.048 C 
ATOM     29  C   UNL     1       9.664  -1.705  23.267  0.00  0.00    +0.229 C 
ENDBRANCH  27  29
ENDBRANCH  25  27
ENDBRANCH   1  25
BRANCH   3  30
ATOM     30  C   UNL     1       4.995   3.442  24.285  0.00  0.00    +0.338 C 
ATOM     31  O   UNL     1       4.905   4.463  24.954  0.00  0.00    -0.245 OA
BRANCH  30  32
ATOM     32  O   UNL     1       3.934   2.673  23.936  0.00  0.00    -0.462 OA
BRANCH  32  33
ATOM     33  C   UNL     1       2.864   3.375  23.280  0.00  0.00    +0.229 C 
ATOM     34  C   UNL     1       3.077   3.470  21.776  0.00  0.00    +0.048 C 
ENDBRANCH  32  33
ENDBRANCH  30  32
ENDBRANCH   3  30
TORSDOF 11
ENDMDL
MODEL 9
REMARK VINA RESULT:      -5.1      2.943      6.699
REMARK  Name = 
REMARK  18 active torsions:
REMARK  status: ('A' for Active; 'I' for Inactive)
REMARK    1  A    between atoms: C_1  and  C_2
REMARK    2  A    between atoms: C_2  and  O_3
REMARK    3  A    between atoms: O_3  and  C_4
REMARK    4  A    between atoms: C_4  and  C_6
REMARK    5  A    between atoms: C_7  and  C_8
REMARK    6  A    between atoms: C_10  and  C_11
REMARK    7  A    between atoms: C_12  and  C_29
REMARK    8  A    between atoms: C_13  and  C_14
REMARK    9  A    between atoms: C_19  and  C_20
REMARK   10  A    between atoms: C_21  and  C_22
REMARK   11  A    between atoms: C_22  and  O_24
REMARK   12  A    between atoms: O_24  and  C_25
REMARK   13  A    between atoms: C_25  and  C_26
REMARK   14  A    between atoms: C_25  and  C_27
REMARK   15  A    between atoms: C_25  and  C_28
REMARK   16  A    between atoms: C_29  and  O_31
REMARK   17  A    between atoms: O_31  and  C_32
REMARK   18  A    between atoms: C_32  and  C_33
REMARK                            x       y       z     vdW  Elec       q    Type
REMARK                         _______ _______ _______ _____ _____    ______ ____
ROOT
ATOM      1  C   UNL     1       6.232   2.420  25.158  0.00  0.00    +0.065 C 
ATOM      2  C   UNL     1       6.846   1.005  25.246  0.00  0.00    +0.096 C 
ATOM      3  C   UNL     1       7.190   0.575  26.687  0.00  0.00    +0.065 C 
ATOM      4  C   UNL     1       6.733   1.308  27.733  0.00  0.00    +0.016 C 
ATOM      5  C   UNL     1       7.003   1.005  29.190  0.00  0.00    +0.061 C 
ATOM      6  N   UNL     1       5.956   2.429  27.508  0.00  0.00    -0.321 N 
ATOM      7  H   UNL     1       5.699   2.981  28.324  0.00  0.00    +0.152 HD
ATOM      8  C   UNL     1       5.785   3.041  26.278  0.00  0.00    +0.016 C 
ATOM      9  C   UNL     1       5.098   4.384  26.362  0.00  0.00    +0.061 C 
ENDROOT
BRANCH   2  10
ATOM     10  C   UNL     1       7.983   0.770  24.237  0.00  0.00    -0.028 A 
ATOM     11  C   UNL     1       7.919  -0.128  23.151  0.00  0.00    -0.021 A 
ATOM     12  C   UNL     1       9.038  -0.227  22.301  0.00  0.00    +0.008 A 
ATOM     13  C   UNL     1      10.191   0.535  22.502  0.00  0.00    +0.001 A 
ATOM     14  C   UNL     1      10.255   1.417  23.570  0.00  0.00    +0.000 A 
ATOM     15  C   UNL     1       9.165   1.530  24.425  0.00  0.00    +0.005 A 
BRANCH  11  16
ATOM     16  C   UNL     1       6.753  -0.998  22.903  0.00  0.00    +0.015 C 
ATOM     17  C   UNL     1       6.859  -2.249  22.427  0.00  0.00    +0.092 C 
BRANCH  17  18
ATOM     18  C   UNL     1       5.730  -3.187  22.268  0.00  0.00    +0.332 C 
ATOM     19  O   UNL     1       5.580  -3.825  21.237  0.00  0.00    -0.246 OA
BRANCH  18  20
ATOM     20  O   UNL     1       4.948  -3.226  23.369  0.00  0.00    -0.456 OA
BRANCH  20  21
ATOM     21  C   UNL     1       4.660  -4.490  24.020  0.00  0.00    +0.106 C 
ATOM     22  C   UNL     1       3.425  -5.175  23.422  0.00  0.00    +0.055 C 
ATOM     23  C   UNL     1       4.352  -4.119  25.479  0.00  0.00    +0.055 C 
ATOM     24  C   UNL     1       5.886  -5.411  23.993  0.00  0.00    +0.055 C 
ENDBRANCH  20  21
ENDBRANCH  18  20
ENDBRANCH  17  18
ENDBRANCH  11  16
ENDBRANCH   2  10
BRANCH   1  25
ATOM     25  C   UNL     1       6.173   3.133  23.858  0.00  0.00    +0.338 C 
ATOM     26  O   UNL     1       6.821   4.142  23.609  0.00  0.00    -0.245 OA
BRANCH  25  27
ATOM     27  O   UNL     1       5.315   2.530  23.000  0.00  0.00    -0.462 OA
BRANCH  27  29
ATOM     28  C   UNL     1       3.121   3.456  23.355  0.00  0.00    +0.048 C 
ATOM     29  C   UNL     1       4.320   3.393  22.427  0.00  0.00    +0.229 C 
ENDBRANCH  27  29
ENDBRANCH  25  27
ENDBRANCH   1  25
BRANCH   3  30
ATOM     30  C   UNL     1       8.020  -0.635  26.961  0.00  0.00    +0.338 C 
ATOM     31  O   UNL     1       9.187  -0.600  27.325  0.00  0.00    -0.245 OA
BRANCH  30  32
ATOM     32  O   UNL     1       7.323  -1.785  26.776  0.00  0.00    -0.462 OA
BRANCH  32  33
ATOM     33  C   UNL     1       7.971  -2.761  25.942  0.00  0.00    +0.229 C 
ATOM     34  C   UNL     1       8.159  -4.092  26.655  0.00  0.00    +0.048 C 
ENDBRANCH  32  33
ENDBRANCH  30  32
ENDBRANCH   3  30
TORSDOF 11
ENDMDL
