MODEL 1
REMARK VINA RESULT:      -6.0      0.000      0.000
REMARK  Name = 
REMARK  8 active torsions:
REMARK  status: ('A' for Active; 'I' for Inactive)
REMARK    1  A    between atoms: C_1  and  O_2
REMARK    2  A    between atoms: O_2  and  C_3
REMARK    3  A    between atoms: C_7  and  C_9
REMARK    4  A    between atoms: C_9  and  O_10
REMARK    5  A    between atoms: C_15  and  C_17
REMARK    6  A    between atoms: C_17  and  N_18
REMARK    7  A    between atoms: N_18  and  C_19
REMARK    8  A    between atoms: N_18  and  C_20
REMARK                            x       y       z     vdW  Elec       q    Type
REMARK                         _______ _______ _______ _____ _____    ______ ____
ROOT
ATOM      1  C   UNL     1       8.840  -2.572  24.260  0.00  0.00    +0.095 C 
ATOM      2  C   UNL     1       7.576  -3.104  23.501  0.00  0.00    +0.039 C 
ATOM      3  C   UNL     1       6.305  -2.359  23.960  0.00  0.00    +0.008 C 
ATOM      4  C   UNL     1       6.076  -2.455  25.463  0.00  0.00    +0.001 C 
ATOM      5  C   UNL     1       7.260  -1.896  26.237  0.00  0.00    +0.003 C 
ATOM      6  C   UNL     1       8.594  -2.490  25.788  0.00  0.00    +0.040 C 
ENDROOT
BRANCH   1   9
ATOM      7  C   UNL     1      10.307   0.935  23.524  0.00  0.00    +0.120 A 
ATOM      8  C   UNL     1       9.967  -0.238  24.209  0.00  0.00    +0.052 A 
ATOM      9  C   UNL     1       9.343  -1.304  23.550  0.00  0.00    -0.012 A 
ATOM     10  C   UNL     1       9.125  -1.178  22.159  0.00  0.00    +0.007 A 
ATOM     11  C   UNL     1       9.478  -0.020  21.464  0.00  0.00    +0.004 A 
ATOM     12  C   UNL     1      10.061   1.036  22.153  0.00  0.00    +0.045 A 
BRANCH   7  14
ATOM     13  C   UNL     1      10.788   3.255  23.328  0.00  0.00    +0.277 C 
ATOM     14  O   UNL     1      10.864   2.053  24.086  0.00  0.00    -0.495 OA
ENDBRANCH   7  14
ENDBRANCH   1   9
BRANCH   1  15
ATOM     15  O   UNL     1       9.923  -3.514  24.125  0.00  0.00    -0.384 OA
ATOM     16  H   UNL     1       9.745  -4.034  23.319  0.00  0.00    +0.211 HD
ENDBRANCH   1  15
BRANCH   2  17
ATOM     17  C   UNL     1       7.431  -4.646  23.576  0.00  0.00    +0.090 C 
BRANCH  17  18
ATOM     18  N   UNL     1       6.327  -5.211  22.760  0.00  0.00    -0.308 NA
ATOM     19  C   UNL     1       5.446  -6.004  23.621  0.00  0.00    +0.104 C 
ATOM     20  C   UNL     1       6.832  -6.053  21.670  0.00  0.00    +0.104 C 
ENDBRANCH  17  18
ENDBRANCH   2  17
TORSDOF 5
ENDMDL
MODEL 2
REMARK VINA RESULT:      -5.9      2.078      3.644
REMARK  Name = 
REMARK  8 active torsions:
REMARK  status: ('A' for Active; 'I' for Inactive)
REMARK    1  A    between atoms: C_1  and  O_2
REMARK    2  A    between atoms: O_2  and  C_3
REMARK    3  A    between atoms: C_7  and  C_9
REMARK    4  A    between atoms: C_9  and  O_10
REMARK    5  A    between atoms: C_15  and  C_17
REMARK    6  A    between atoms: C_17  and  N_18
REMARK    7  A    between atoms: N_18  and  C_19
REMARK    8  A    between atoms: N_18  and  C_20
REMARK                            x       y       z     vdW  Elec       q    Type
REMARK                         _______ _______ _______ _____ _____    ______ ____
ROOT
ATOM      1  C   UNL     1       6.578  -3.511  23.316  0.00  0.00    +0.095 C 
ATOM      2  C   UNL     1       6.992  -4.948  23.784  0.00  0.00    +0.039 C 
ATOM      3  C   UNL     1       7.418  -5.817  22.583  0.00  0.00    +0.008 C 
ATOM      4  C   UNL     1       6.334  -5.919  21.516  0.00  0.00    +0.001 C 
ATOM      5  C   UNL     1       5.944  -4.545  20.994  0.00  0.00    +0.003 C 
ATOM      6  C   UNL     1       5.602  -3.563  22.113  0.00  0.00    +0.040 C 
ENDROOT
BRANCH   1   9
ATOM      7  C   UNL     1       9.156  -0.865  22.156  0.00  0.00    +0.120 A 
ATOM      8  C   UNL     1       7.940  -1.538  22.331  0.00  0.00    +0.052 A 
ATOM      9  C   UNL     1       7.849  -2.657  23.166  0.00  0.00    -0.012 A 
ATOM     10  C   UNL     1       9.009  -3.045  23.874  0.00  0.00    +0.007 A 
ATOM     11  C   UNL     1      10.220  -2.368  23.721  0.00  0.00    +0.004 A 
ATOM     12  C   UNL     1      10.290  -1.284  22.855  0.00  0.00    +0.045 A 
BRANCH   7  14
ATOM     13  C   UNL     1       9.894   1.381  21.911  0.00  0.00    +0.277 C 
ATOM     14  O   UNL     1       9.364   0.200  21.321  0.00  0.00    -0.495 OA
ENDBRANCH   7  14
ENDBRANCH   1   9
BRANCH   1  15
ATOM     15  O   UNL     1       5.825  -2.856  24.356  0.00  0.00    -0.384 OA
ATOM     16  H   UNL     1       4.884  -3.055  24.191  0.00  0.00    +0.211 HD
ENDBRANCH   1  15
BRANCH   2  17
ATOM     17  C   UNL     1       5.914  -5.628  24.668  0.00  0.00    +0.090 C 
BRANCH  17  18
ATOM     18  N   UNL     1       6.030  -5.349  26.121  0.00  0.00    -0.308 NA
ATOM     19  C   UNL     1       7.445  -5.355  26.504  0.00  0.00    +0.104 C 
ATOM     20  C   UNL     1       5.301  -6.337  26.925  0.00  0.00    +0.104 C 
ENDBRANCH  17  18
ENDBRANCH   2  17
TORSDOF 5
ENDMDL
MODEL 3
REMARK VINA RESULT:      -5.9      2.856      6.536
REMARK  Name = 
REMARK  8 active torsions:
REMARK  status: ('A' for Active; 'I' for Inactive)
REMARK    1  A    between atoms: C_1  and  O_2
REMARK    2  A    between atoms: O_2  and  C_3
REMARK    3  A    between atoms: C_7  and  C_9
REMARK    4  A    between atoms: C_9  and  O_10
REMARK    5  A    between atoms: C_15  and  C_17
REMARK    6  A    between atoms: C_17  and  N_18
REMARK    7  A    between atoms: N_18  and  C_19
REMARK    8  A    between atoms: N_18  and  C_20
REMARK                            x       y       z     vdW  Elec       q    Type
REMARK                         _______ _______ _______ _____ _____    ______ ____
ROOT
ATOM      1  C   UNL     1       7.492  -4.855  23.836  0.00  0.00    +0.095 C 
ATOM      2  C   UNL     1       7.315  -3.305  23.691  0.00  0.00    +0.039 C 
ATOM      3  C   UNL     1       6.016  -2.968  22.931  0.00  0.00    +0.008 C 
ATOM      4  C   UNL     1       5.953  -3.620  21.555  0.00  0.00    +0.001 C 
ATOM      5  C   UNL     1       6.064  -5.133  21.657  0.00  0.00    +0.003 C 
ATOM      6  C   UNL     1       7.266  -5.583  22.486  0.00  0.00    +0.040 C 
ENDROOT
BRANCH   1   9
ATOM      7  C   UNL     1       6.317  -5.655  27.438  0.00  0.00    +0.120 A 
ATOM      8  C   UNL     1       7.047  -5.103  26.378  0.00  0.00    +0.052 A 
ATOM      9  C   UNL     1       6.674  -5.332  25.048  0.00  0.00    -0.012 A 
ATOM     10  C   UNL     1       5.501  -6.086  24.817  0.00  0.00    +0.007 A 
ATOM     11  C   UNL     1       4.756  -6.623  25.868  0.00  0.00    +0.004 A 
ATOM     12  C   UNL     1       5.173  -6.411  27.176  0.00  0.00    +0.045 A 
BRANCH   7  14
ATOM     13  C   UNL     1       5.904  -6.366  29.668  0.00  0.00    +0.277 C 
ATOM     14  O   UNL     1       6.631  -5.539  28.766  0.00  0.00    -0.495 OA
ENDBRANCH   7  14
ENDBRANCH   1   9
BRANCH   1  15
ATOM     15  O   UNL     1       8.858  -5.161  24.181  0.00  0.00    -0.384 OA
ATOM     16  H   UNL     1       8.914  -6.131  24.272  0.00  0.00    +0.211 HD
ENDBRANCH   1  15
BRANCH   2  17
ATOM     17  C   UNL     1       8.564  -2.609  23.090  0.00  0.00    +0.090 C 
BRANCH  17  18
ATOM     18  N   UNL     1       9.511  -2.052  24.088  0.00  0.00    -0.308 NA
ATOM     19  C   UNL     1       8.788  -1.756  25.328  0.00  0.00    +0.104 C 
ATOM     20  C   UNL     1      10.164  -0.833  23.599  0.00  0.00    +0.104 C 
ENDBRANCH  17  18
ENDBRANCH   2  17
TORSDOF 5
ENDMDL
MODEL 4
REMARK VINA RESULT:      -5.8      3.075      6.640
REMARK  Name = 
REMARK  8 active torsions:
REMARK  status: ('A' for Active; 'I' for Inactive)
REMARK    1  A    between atoms: C_1  and  O_2
REMARK    2  A    between atoms: O_2  and  C_3
REMARK    3  A    between atoms: C_7  and  C_9
REMARK    4  A    between atoms: C_9  and  O_10
REMARK    5  A    between atoms: C_15  and  C_17
REMARK    6  A    between atoms: C_17  and  N_18
REMARK    7  A    between atoms: N_18  and  C_19
REMARK    8  A    between atoms: N_18  and  C_20
REMARK                            x       y       z     vdW  Elec       q    Type
REMARK                         _______ _______ _______ _____ _____    ______ ____
ROOT
ATOM      1  C   UNL     1       9.945   0.754  23.760  0.00  0.00    +0.095 C 
ATOM      2  C   UNL     1       8.906   1.887  24.064  0.00  0.00    +0.039 C 
ATOM      3  C   UNL     1       7.670   1.759  23.150  0.00  0.00    +0.008 C 
ATOM      4  C   UNL     1       8.027   1.777  21.669  0.00  0.00    +0.001 C 
ATOM      5  C   UNL     1       8.993   0.655  21.322  0.00  0.00    +0.003 C 
ATOM      6  C   UNL     1      10.214   0.621  22.239  0.00  0.00    +0.040 C 
ENDROOT
BRANCH   1   9
ATOM      7  C   UNL     1       9.185  -2.920  24.720  0.00  0.00    +0.120 A 
ATOM      8  C   UNL     1       9.681  -1.812  24.022  0.00  0.00    +0.052 A 
ATOM      9  C   UNL     1       9.529  -0.514  24.525  0.00  0.00    -0.012 A 
ATOM     10  C   UNL     1       8.913  -0.368  25.788  0.00  0.00    +0.007 A 
ATOM     11  C   UNL     1       8.433  -1.469  26.500  0.00  0.00    +0.004 A 
ATOM     12  C   UNL     1       8.564  -2.741  25.957  0.00  0.00    +0.045 A 
BRANCH   7  14
ATOM     13  C   UNL     1       9.455  -5.214  25.281  0.00  0.00    +0.277 C 
ATOM     14  O   UNL     1       9.231  -4.219  24.289  0.00  0.00    -0.495 OA
ENDBRANCH   7  14
ENDBRANCH   1   9
BRANCH   1  15
ATOM     15  O   UNL     1      11.228   1.105  24.317  0.00  0.00    -0.384 OA
ATOM     16  H   UNL     1      11.689   1.643  23.647  0.00  0.00    +0.211 HD
ENDBRANCH   1  15
BRANCH   2  17
ATOM     17  C   UNL     1       9.533   3.305  24.034  0.00  0.00    +0.090 C 
BRANCH  17  18
ATOM     18  N   UNL     1       8.574   4.418  24.247  0.00  0.00    -0.308 NA
ATOM     19  C   UNL     1       9.229   5.690  23.930  0.00  0.00    +0.104 C 
ATOM     20  C   UNL     1       8.079   4.453  25.628  0.00  0.00    +0.104 C 
ENDBRANCH  17  18
ENDBRANCH   2  17
TORSDOF 5
ENDMDL
MODEL 5
REMARK VINA RESULT:      -5.8      2.893      5.257
REMARK  Name = 
REMARK  8 active torsions:
REMARK  status: ('A' for Active; 'I' for Inactive)
REMARK    1  A    between atoms: C_1  and  O_2
REMARK    2  A    between atoms: O_2  and  C_3
REMARK    3  A    between atoms: C_7  and  C_9
REMARK    4  A    between atoms: C_9  and  O_10
REMARK    5  A    between atoms: C_15  and  C_17
REMARK    6  A    between atoms: C_17  and  N_18
REMARK    7  A    between atoms: N_18  and  C_19
REMARK    8  A    between atoms: N_18  and  C_20
REMARK                            x       y       z     vdW  Elec       q    Type
REMARK                         _______ _______ _______ _____ _____    ______ ____
ROOT
ATOM      1  C   UNL     1       9.076   2.380  23.965  0.00  0.00    +0.095 C 
ATOM      2  C   UNL     1       9.989   1.155  23.617  0.00  0.00    +0.039 C 
ATOM      3  C   UNL     1      10.084   0.957  22.090  0.00  0.00    +0.008 C 
ATOM      4  C   UNL     1       8.721   0.782  21.432  0.00  0.00    +0.001 C 
ATOM      5  C   UNL     1       7.822   1.980  21.701  0.00  0.00    +0.003 C 
ATOM      6  C   UNL     1       7.739   2.335  23.184  0.00  0.00    +0.040 C 
ENDROOT
BRANCH   1   9
ATOM      7  C   UNL     1      12.005   4.873  23.511  0.00  0.00    +0.120 A 
ATOM      8  C   UNL     1      11.264   3.685  23.481  0.00  0.00    +0.052 A 
ATOM      9  C   UNL     1       9.917   3.664  23.864  0.00  0.00    -0.012 A 
ATOM     10  C   UNL     1       9.318   4.893  24.222  0.00  0.00    +0.007 A 
ATOM     11  C   UNL     1      10.044   6.086  24.236  0.00  0.00    +0.004 A 
ATOM     12  C   UNL     1      11.389   6.068  23.888  0.00  0.00    +0.045 A 
BRANCH   7  14
ATOM     13  C   UNL     1      13.667   5.719  22.037  0.00  0.00    +0.277 C 
ATOM     14  O   UNL     1      13.337   4.989  23.213  0.00  0.00    -0.495 OA
ENDBRANCH   7  14
ENDBRANCH   1   9
BRANCH   1  15
ATOM     15  O   UNL     1       8.681   2.317  25.350  0.00  0.00    -0.384 OA
ATOM     16  H   UNL     1       8.635   1.372  25.586  0.00  0.00    +0.211 HD
ENDBRANCH   1  15
BRANCH   2  17
ATOM     17  C   UNL     1       9.577  -0.137  24.368  0.00  0.00    +0.090 C 
BRANCH  17  18
ATOM     18  N   UNL     1       9.113  -1.246  23.496  0.00  0.00    -0.308 NA
ATOM     19  C   UNL     1       7.740  -1.606  23.859  0.00  0.00    +0.104 C 
ATOM     20  C   UNL     1       9.976  -2.428  23.614  0.00  0.00    +0.104 C 
ENDBRANCH  17  18
ENDBRANCH   2  17
TORSDOF 5
ENDMDL
MODEL 6
REMARK VINA RESULT:      -5.8      2.028      3.296
REMARK  Name = 
REMARK  8 active torsions:
REMARK  status: ('A' for Active; 'I' for Inactive)
REMARK    1  A    between atoms: C_1  and  O_2
REMARK    2  A    between atoms: O_2  and  C_3
REMARK    3  A    between atoms: C_7  and  C_9
REMARK    4  A    between atoms: C_9  and  O_10
REMARK    5  A    between atoms: C_15  and  C_17
REMARK    6  A    between atoms: C_17  and  N_18
REMARK    7  A    between atoms: N_18  and  C_19
REMARK    8  A    between atoms: N_18  and  C_20
REMARK                            x       y       z     vdW  Elec       q    Type
REMARK                         _______ _______ _______ _____ _____    ______ ____
ROOT
ATOM      1  C   UNL     1       6.737  -3.336  23.738  0.00  0.00    +0.095 C 
ATOM      2  C   UNL     1       7.275  -4.724  24.226  0.00  0.00    +0.039 C 
ATOM      3  C   UNL     1       7.669  -5.614  23.030  0.00  0.00    +0.008 C 
ATOM      4  C   UNL     1       6.520  -5.827  22.051  0.00  0.00    +0.001 C 
ATOM      5  C   UNL     1       6.005  -4.502  21.509  0.00  0.00    +0.003 C 
ATOM      6  C   UNL     1       5.682  -3.498  22.614  0.00  0.00    +0.040 C 
ENDROOT
BRANCH   1   9
ATOM      7  C   UNL     1       9.661  -0.829  24.142  0.00  0.00    +0.120 A 
ATOM      8  C   UNL     1       8.646  -1.739  24.464  0.00  0.00    +0.052 A 
ATOM      9  C   UNL     1       7.936  -2.413  23.462  0.00  0.00    -0.012 A 
ATOM     10  C   UNL     1       8.321  -2.189  22.122  0.00  0.00    +0.007 A 
ATOM     11  C   UNL     1       9.345  -1.299  21.792  0.00  0.00    +0.004 A 
ATOM     12  C   UNL     1      10.005  -0.615  22.806  0.00  0.00    +0.045 A 
BRANCH   7  14
ATOM     13  C   UNL     1      11.179   0.964  24.504  0.00  0.00    +0.277 C 
ATOM     14  O   UNL     1      10.372  -0.078  25.040  0.00  0.00    -0.495 OA
ENDBRANCH   7  14
ENDBRANCH   1   9
BRANCH   1  15
ATOM     15  O   UNL     1       6.020  -2.686  24.806  0.00  0.00    -0.384 OA
ATOM     16  H   UNL     1       6.684  -2.216  25.345  0.00  0.00    +0.211 HD
ENDBRANCH   1  15
BRANCH   2  17
ATOM     17  C   UNL     1       6.310  -5.432  25.213  0.00  0.00    +0.090 C 
BRANCH  17  18
ATOM     18  N   UNL     1       6.904  -5.779  26.528  0.00  0.00    -0.308 NA
ATOM     19  C   UNL     1       5.952  -5.448  27.592  0.00  0.00    +0.104 C 
ATOM     20  C   UNL     1       8.166  -5.066  26.761  0.00  0.00    +0.104 C 
ENDBRANCH  17  18
ENDBRANCH   2  17
TORSDOF 5
ENDMDL
MODEL 7
REMARK VINA RESULT:      -5.7      2.835      6.782
REMARK  Name = 
REMARK  8 active torsions:
REMARK  status: ('A' for Active; 'I' for Inactive)
REMARK    1  A    between atoms: C_1  and  O_2
REMARK    2  A    between atoms: O_2  and  C_3
REMARK    3  A    between atoms: C_7  and  C_9
REMARK    4  A    between atoms: C_9  and  O_10
REMARK    5  A    between atoms: C_15  and  C_17
REMARK    6  A    between atoms: C_17  and  N_18
REMARK    7  A    between atoms: N_18  and  C_19
REMARK    8  A    between atoms: N_18  and  C_20
REMARK                            x       y       z     vdW  Elec       q    Type
REMARK                         _______ _______ _______ _____ _____    ______ ____
ROOT
ATOM      1  C   UNL     1       7.601  -4.811  23.854  0.00  0.00    +0.095 C 
ATOM      2  C   UNL     1       7.330  -3.275  23.708  0.00  0.00    +0.039 C 
ATOM      3  C   UNL     1       5.984  -3.019  22.999  0.00  0.00    +0.008 C 
ATOM      4  C   UNL     1       5.903  -3.684  21.630  0.00  0.00    +0.001 C 
ATOM      5  C   UNL     1       6.106  -5.188  21.736  0.00  0.00    +0.003 C 
ATOM      6  C   UNL     1       7.364  -5.561  22.518  0.00  0.00    +0.040 C 
ENDROOT
BRANCH   1   9
ATOM      7  C   UNL     1       4.959  -6.348  26.232  0.00  0.00    +0.120 A 
ATOM      8  C   UNL     1       5.634  -5.998  25.055  0.00  0.00    +0.052 A 
ATOM      9  C   UNL     1       6.862  -5.326  25.100  0.00  0.00    -0.012 A 
ATOM     10  C   UNL     1       7.423  -5.069  26.371  0.00  0.00    +0.007 A 
ATOM     11  C   UNL     1       6.766  -5.431  27.549  0.00  0.00    +0.004 A 
ATOM     12  C   UNL     1       5.531  -6.062  27.473  0.00  0.00    +0.045 A 
BRANCH   7  14
ATOM     13  C   UNL     1       3.243  -7.535  25.093  0.00  0.00    +0.277 C 
ATOM     14  O   UNL     1       3.732  -6.952  26.296  0.00  0.00    -0.495 OA
ENDBRANCH   7  14
ENDBRANCH   1   9
BRANCH   1  15
ATOM     15  O   UNL     1       8.995  -5.036  24.144  0.00  0.00    -0.384 OA
ATOM     16  H   UNL     1       9.349  -5.584  23.418  0.00  0.00    +0.211 HD
ENDBRANCH   1  15
BRANCH   2  17
ATOM     17  C   UNL     1       8.511  -2.513  23.053  0.00  0.00    +0.090 C 
BRANCH  17  18
ATOM     18  N   UNL     1       9.515  -1.977  24.006  0.00  0.00    -0.308 NA
ATOM     19  C   UNL     1       8.844  -1.600  25.254  0.00  0.00    +0.104 C 
ATOM     20  C   UNL     1      10.218  -0.812  23.458  0.00  0.00    +0.104 C 
ENDBRANCH  17  18
ENDBRANCH   2  17
TORSDOF 5
ENDMDL
MODEL 8
REMARK VINA RESULT:      -5.5      1.900      2.709
REMARK  Name = 
REMARK  8 active torsions:
REMARK  status: ('A' for Active; 'I' for Inactive)
REMARK    1  A    between atoms: C_1  and  O_2
REMARK    2  A    between atoms: O_2  and  C_3
REMARK    3  A    between atoms: C_7  and  C_9
REMARK    4  A    between atoms: C_9  and  O_10
REMARK    5  A    between atoms: C_15  and  C_17
REMARK    6  A    between atoms: C_17  and  N_18
REMARK    7  A    between atoms: N_18  and  C_19
REMARK    8  A    between atoms: N_18  and  C_20
REMARK                            x       y       z     vdW  Elec       q    Type
REMARK                         _______ _______ _______ _____ _____    ______ ____
ROOT
ATOM      1  C   UNL     1       7.742  -4.396  24.111  0.00  0.00    +0.095 C 
ATOM      2  C   UNL     1       6.395  -4.439  24.909  0.00  0.00    +0.039 C 
ATOM      3  C   UNL     1       6.620  -4.067  26.389  0.00  0.00    +0.008 C 
ATOM      4  C   UNL     1       7.647  -4.963  27.072  0.00  0.00    +0.001 C 
ATOM      5  C   UNL     1       8.989  -4.905  26.358  0.00  0.00    +0.003 C 
ATOM      6  C   UNL     1       8.870  -5.155  24.856  0.00  0.00    +0.040 C 
ENDROOT
BRANCH   1   9
ATOM      7  C   UNL     1       9.454  -0.987  23.441  0.00  0.00    +0.120 A 
ATOM      8  C   UNL     1       9.285  -2.346  23.736  0.00  0.00    +0.052 A 
ATOM      9  C   UNL     1       8.019  -2.942  23.690  0.00  0.00    -0.012 A 
ATOM     10  C   UNL     1       6.931  -2.141  23.276  0.00  0.00    +0.007 A 
ATOM     11  C   UNL     1       7.094  -0.791  22.961  0.00  0.00    +0.004 A 
ATOM     12  C   UNL     1       8.356  -0.218  23.054  0.00  0.00    +0.045 A 
BRANCH   7  14
ATOM     13  C   UNL     1      10.782   0.606  24.602  0.00  0.00    +0.277 C 
ATOM     14  O   UNL     1      10.635  -0.298  23.513  0.00  0.00    -0.495 OA
ENDBRANCH   7  14
ENDBRANCH   1   9
BRANCH   1  15
ATOM     15  O   UNL     1       7.596  -5.109  22.866  0.00  0.00    -0.384 OA
ATOM     16  H   UNL     1       8.085  -4.601  22.192  0.00  0.00    +0.211 HD
ENDBRANCH   1  15
BRANCH   2  17
ATOM     17  C   UNL     1       5.631  -5.777  24.733  0.00  0.00    +0.090 C 
BRANCH  17  18
ATOM     18  N   UNL     1       4.626  -5.784  23.641  0.00  0.00    -0.308 NA
ATOM     19  C   UNL     1       4.065  -4.438  23.490  0.00  0.00    +0.104 C 
ATOM     20  C   UNL     1       3.543  -6.738  23.904  0.00  0.00    +0.104 C 
ENDBRANCH  17  18
ENDBRANCH   2  17
TORSDOF 5
ENDMDL
MODEL 9
REMARK VINA RESULT:      -5.4      2.789      6.402
REMARK  Name = 
REMARK  8 active torsions:
REMARK  status: ('A' for Active; 'I' for Inactive)
REMARK    1  A    between atoms: C_1  and  O_2
REMARK    2  A    between atoms: O_2  and  C_3
REMARK    3  A    between atoms: C_7  and  C_9
REMARK    4  A    between atoms: C_9  and  O_10
REMARK    5  A    between atoms: C_15  and  C_17
REMARK    6  A    between atoms: C_17  and  N_18
REMARK    7  A    between atoms: N_18  and  C_19
REMARK    8  A    between atoms: N_18  and  C_20
REMARK                            x       y       z     vdW  Elec       q    Type
REMARK                         _______ _______ _______ _____ _____    ______ ____
ROOT
ATOM      1  C   UNL     1       7.563  -2.169  23.938  0.00  0.00    +0.095 C 
ATOM      2  C   UNL     1       7.704  -1.110  22.792  0.00  0.00    +0.039 C 
ATOM      3  C   UNL     1       8.913  -1.433  21.890  0.00  0.00    +0.008 C 
ATOM      4  C   UNL     1      10.221  -1.522  22.666  0.00  0.00    +0.001 C 
ATOM      5  C   UNL     1      10.143  -2.582  23.754  0.00  0.00    +0.003 C 
ATOM      6  C   UNL     1       8.916  -2.421  24.650  0.00  0.00    +0.040 C 
ENDROOT
BRANCH   1   9
ATOM      7  C   UNL     1       4.783  -4.661  22.909  0.00  0.00    +0.120 A 
ATOM      8  C   UNL     1       5.413  -3.480  23.321  0.00  0.00    +0.052 A 
ATOM      9  C   UNL     1       6.809  -3.392  23.387  0.00  0.00    -0.012 A 
ATOM     10  C   UNL     1       7.558  -4.512  22.964  0.00  0.00    +0.007 A 
ATOM     11  C   UNL     1       6.938  -5.687  22.532  0.00  0.00    +0.004 A 
ATOM     12  C   UNL     1       5.551  -5.758  22.515  0.00  0.00    +0.045 A 
BRANCH   7  14
ATOM     13  C   UNL     1       2.978  -6.192  23.132  0.00  0.00    +0.277 C 
ATOM     14  O   UNL     1       3.430  -4.869  22.866  0.00  0.00    -0.495 OA
ENDBRANCH   7  14
ENDBRANCH   1   9
BRANCH   1  15
ATOM     15  O   UNL     1       6.705  -1.655  24.976  0.00  0.00    -0.384 OA
ATOM     16  H   UNL     1       6.135  -0.981  24.562  0.00  0.00    +0.211 HD
ENDBRANCH   1  15
BRANCH   2  17
ATOM     17  C   UNL     1       7.717   0.349  23.318  0.00  0.00    +0.090 C 
BRANCH  17  18
ATOM     18  N   UNL     1       8.086   1.374  22.309  0.00  0.00    -0.308 NA
ATOM     19  C   UNL     1       9.253   2.123  22.785  0.00  0.00    +0.104 C 
ATOM     20  C   UNL     1       6.982   2.304  22.048  0.00  0.00    +0.104 C 
ENDBRANCH  17  18
ENDBRANCH   2  17
TORSDOF 5
ENDMDL
