MODEL 1
REMARK VINA RESULT:      -8.0      0.000      0.000
REMARK  Name = 
REMARK  3 active torsions:
REMARK  status: ('A' for Active; 'I' for Inactive)
REMARK    1  A    between atoms: C_2  and  C_6
REMARK    2  A    between atoms: C_11  and  C_15
REMARK    3  A    between atoms: C_19  and  C_22
REMARK                            x       y       z     vdW  Elec       q    Type
REMARK                         _______ _______ _______ _____ _____    ______ ____
ROOT
ATOM      1  C   UNL     1       6.225  -5.372  26.397  0.00  0.00    +0.061 A 
ATOM      2  C   UNL     1       5.818  -4.308  25.570  0.00  0.00    +0.025 A 
ATOM      3  C   UNL     1       6.723  -3.282  25.246  0.00  0.00    +0.001 A 
ATOM      4  C   UNL     1       8.007  -3.330  25.777  0.00  0.00    +0.047 A 
ATOM      5  N   UNL     1       8.688  -2.267  25.242  0.00  0.00    -0.354 N 
ATOM      6  H   UNL     1       9.678  -2.035  25.345  0.00  0.00    +0.166 HD
ATOM      7  C   UNL     1       7.921  -1.587  24.321  0.00  0.00    +0.047 A 
ATOM      8  C   UNL     1       8.437  -4.333  26.647  0.00  0.00    +0.027 A 
ATOM      9  C   UNL     1       6.657  -2.145  24.393  0.00  0.00    +0.036 A 
ATOM     10  C   UNL     1       7.522  -5.351  26.945  0.00  0.00    +0.018 A 
ENDROOT
BRANCH   1  14
ATOM     11  N   UNL     1       5.375  -7.166  27.773  0.00  0.00    -0.250 N 
ATOM     12  H   UNL     1       6.076  -6.916  28.464  0.00  0.00    +0.288 HD
ATOM     13  H   UNL     1       4.772  -7.949  27.980  0.00  0.00    +0.288 HD
ATOM     14  C   UNL     1       5.315  -6.501  26.635  0.00  0.00    +0.266 C 
ATOM     15  N   UNL     1       4.453  -6.861  25.707  0.00  0.00    -0.288 N 
ATOM     16  H   UNL     1       3.827  -7.644  25.815  0.00  0.00    +0.301 HD
ATOM     17  H   UNL     1       4.400  -6.334  24.841  0.00  0.00    +0.301 HD
ENDBRANCH   1  14
BRANCH   7  18
ATOM     18  C   UNL     1       8.523  -0.527  23.463  0.00  0.00    -0.009 A 
ATOM     19  C   UNL     1       8.869   0.782  23.999  0.00  0.00    -0.091 A 
ATOM     20  O   UNL     1       8.671   1.076  25.239  0.00  0.00    -0.873 OA
ATOM     21  C   UNL     1       9.477   1.706  23.059  0.00  0.00    -0.025 A 
ATOM     22  C   UNL     1       9.684   1.299  21.712  0.00  0.00    +0.008 A 
ATOM     23  C   UNL     1       9.367   0.030  21.253  0.00  0.00    +0.001 A 
ATOM     24  C   UNL     1       8.787  -0.873  22.123  0.00  0.00    +0.009 A 
BRANCH  21  25
ATOM     25  C   UNL     1       9.936   3.101  23.424  0.00  0.00    -0.018 A 
ATOM     26  C   UNL     1      11.282   3.498  23.261  0.00  0.00    +0.008 A 
ATOM     27  C   UNL     1      11.723   4.792  23.566  0.00  0.00    +0.001 A 
ATOM     28  C   UNL     1      10.833   5.727  24.079  0.00  0.00    +0.000 A 
ATOM     29  C   UNL     1       9.503   5.369  24.267  0.00  0.00    +0.001 A 
ATOM     30  C   UNL     1       9.064   4.083  23.924  0.00  0.00    +0.008 A 
ENDBRANCH  21  25
ENDBRANCH   7  18
TORSDOF 3
ENDMDL
MODEL 2
REMARK VINA RESULT:      -7.6      1.984      2.646
REMARK  Name = 
REMARK  3 active torsions:
REMARK  status: ('A' for Active; 'I' for Inactive)
REMARK    1  A    between atoms: C_2  and  C_6
REMARK    2  A    between atoms: C_11  and  C_15
REMARK    3  A    between atoms: C_19  and  C_22
REMARK                            x       y       z     vdW  Elec       q    Type
REMARK                         _______ _______ _______ _____ _____    ______ ____
ROOT
ATOM      1  C   UNL     1       4.723  -5.952  25.134  0.00  0.00    +0.061 A 
ATOM      2  C   UNL     1       6.037  -5.453  25.055  0.00  0.00    +0.025 A 
ATOM      3  C   UNL     1       6.332  -4.382  24.194  0.00  0.00    +0.001 A 
ATOM      4  C   UNL     1       5.312  -3.851  23.413  0.00  0.00    +0.047 A 
ATOM      5  N   UNL     1       5.854  -2.785  22.740  0.00  0.00    -0.354 N 
ATOM      6  H   UNL     1       5.378  -2.111  22.137  0.00  0.00    +0.166 HD
ATOM      7  C   UNL     1       7.158  -2.556  23.123  0.00  0.00    +0.047 A 
ATOM      8  C   UNL     1       4.009  -4.350  23.414  0.00  0.00    +0.027 A 
ATOM      9  C   UNL     1       7.502  -3.610  23.950  0.00  0.00    +0.036 A 
ATOM     10  C   UNL     1       3.736  -5.409  24.289  0.00  0.00    +0.018 A 
ENDROOT
BRANCH   1  14
ATOM     11  N   UNL     1       3.360  -7.785  25.921  0.00  0.00    -0.250 N 
ATOM     12  H   UNL     1       2.775  -7.650  25.102  0.00  0.00    +0.288 HD
ATOM     13  H   UNL     1       3.095  -8.511  26.571  0.00  0.00    +0.288 HD
ATOM     14  C   UNL     1       4.394  -6.990  26.122  0.00  0.00    +0.266 C 
ATOM     15  N   UNL     1       5.118  -7.115  27.213  0.00  0.00    -0.288 N 
ATOM     16  H   UNL     1       4.916  -7.795  27.931  0.00  0.00    +0.301 HD
ATOM     17  H   UNL     1       5.923  -6.512  27.353  0.00  0.00    +0.301 HD
ENDBRANCH   1  14
BRANCH   7  18
ATOM     18  C   UNL     1       7.876  -1.327  22.680  0.00  0.00    -0.009 A 
ATOM     19  C   UNL     1       7.449  -0.001  23.102  0.00  0.00    -0.091 A 
ATOM     20  O   UNL     1       6.433   0.164  23.879  0.00  0.00    -0.873 OA
ATOM     21  C   UNL     1       8.259   1.104  22.621  0.00  0.00    -0.025 A 
ATOM     22  C   UNL     1       9.379   0.839  21.786  0.00  0.00    +0.008 A 
ATOM     23  C   UNL     1       9.768  -0.444  21.434  0.00  0.00    +0.001 A 
ATOM     24  C   UNL     1       9.018  -1.518  21.876  0.00  0.00    +0.009 A 
BRANCH  21  25
ATOM     25  C   UNL     1       8.001   2.554  22.970  0.00  0.00    -0.018 A 
ATOM     26  C   UNL     1       8.475   3.114  24.178  0.00  0.00    +0.008 A 
ATOM     27  C   UNL     1       8.272   4.460  24.508  0.00  0.00    +0.001 A 
ATOM     28  C   UNL     1       7.555   5.286  23.652  0.00  0.00    +0.000 A 
ATOM     29  C   UNL     1       7.061   4.767  22.461  0.00  0.00    +0.001 A 
ATOM     30  C   UNL     1       7.300   3.429  22.122  0.00  0.00    +0.008 A 
ENDBRANCH  21  25
ENDBRANCH   7  18
TORSDOF 3
ENDMDL
MODEL 3
REMARK VINA RESULT:      -7.6      1.580      2.573
REMARK  Name = 
REMARK  3 active torsions:
REMARK  status: ('A' for Active; 'I' for Inactive)
REMARK    1  A    between atoms: C_2  and  C_6
REMARK    2  A    between atoms: C_11  and  C_15
REMARK    3  A    between atoms: C_19  and  C_22
REMARK                            x       y       z     vdW  Elec       q    Type
REMARK                         _______ _______ _______ _____ _____    ______ ____
ROOT
ATOM      1  C   UNL     1       6.667  -4.414  25.446  0.00  0.00    +0.061 A 
ATOM      2  C   UNL     1       7.676  -3.434  25.394  0.00  0.00    +0.025 A 
ATOM      3  C   UNL     1       7.489  -2.272  24.626  0.00  0.00    +0.001 A 
ATOM      4  C   UNL     1       6.308  -2.128  23.907  0.00  0.00    +0.047 A 
ATOM      5  N   UNL     1       6.358  -0.888  23.322  0.00  0.00    -0.354 N 
ATOM      6  H   UNL     1       5.630  -0.412  22.787  0.00  0.00    +0.166 HD
ATOM      7  C   UNL     1       7.485  -0.193  23.707  0.00  0.00    +0.047 A 
ATOM      8  C   UNL     1       5.306  -3.098  23.881  0.00  0.00    +0.027 A 
ATOM      9  C   UNL     1       8.252  -1.086  24.435  0.00  0.00    +0.036 A 
ATOM     10  C   UNL     1       5.509  -4.242  24.664  0.00  0.00    +0.018 A 
ENDROOT
BRANCH   1  14
ATOM     11  N   UNL     1       5.801  -6.389  26.534  0.00  0.00    -0.250 N 
ATOM     12  H   UNL     1       4.910  -6.197  26.088  0.00  0.00    +0.288 HD
ATOM     13  H   UNL     1       5.856  -7.193  27.143  0.00  0.00    +0.288 HD
ATOM     14  C   UNL     1       6.817  -5.568  26.344  0.00  0.00    +0.266 C 
ATOM     15  N   UNL     1       7.956  -5.774  26.971  0.00  0.00    -0.288 N 
ATOM     16  H   UNL     1       8.096  -6.537  27.616  0.00  0.00    +0.301 HD
ATOM     17  H   UNL     1       8.738  -5.149  26.806  0.00  0.00    +0.301 HD
ENDBRANCH   1  14
BRANCH   7  18
ATOM     18  C   UNL     1       7.644   1.248  23.363  0.00  0.00    -0.009 A 
ATOM     19  C   UNL     1       8.823   2.002  23.766  0.00  0.00    -0.091 A 
ATOM     20  O   UNL     1       9.778   1.452  24.435  0.00  0.00    -0.873 OA
ATOM     21  C   UNL     1       8.861   3.388  23.337  0.00  0.00    -0.025 A 
ATOM     22  C   UNL     1       7.778   3.917  22.581  0.00  0.00    +0.008 A 
ATOM     23  C   UNL     1       6.689   3.152  22.192  0.00  0.00    +0.001 A 
ATOM     24  C   UNL     1       6.623   1.829  22.585  0.00  0.00    +0.009 A 
BRANCH  21  25
ATOM     25  C   UNL     1      10.009   4.331  23.627  0.00  0.00    -0.018 A 
ATOM     26  C   UNL     1       9.808   5.539  24.331  0.00  0.00    +0.008 A 
ATOM     27  C   UNL     1      10.861   6.412  24.635  0.00  0.00    +0.001 A 
ATOM     28  C   UNL     1      12.151   6.119  24.212  0.00  0.00    +0.000 A 
ATOM     29  C   UNL     1      12.386   4.946  23.505  0.00  0.00    +0.001 A 
ATOM     30  C   UNL     1      11.332   4.061  23.238  0.00  0.00    +0.008 A 
ENDBRANCH  21  25
ENDBRANCH   7  18
TORSDOF 3
ENDMDL
MODEL 4
REMARK VINA RESULT:      -7.5      3.373      9.072
REMARK  Name = 
REMARK  3 active torsions:
REMARK  status: ('A' for Active; 'I' for Inactive)
REMARK    1  A    between atoms: C_2  and  C_6
REMARK    2  A    between atoms: C_11  and  C_15
REMARK    3  A    between atoms: C_19  and  C_22
REMARK                            x       y       z     vdW  Elec       q    Type
REMARK                         _______ _______ _______ _____ _____    ______ ____
ROOT
ATOM      1  C   UNL     1       7.431   4.465  22.677  0.00  0.00    +0.061 A 
ATOM      2  C   UNL     1       8.271   3.611  23.415  0.00  0.00    +0.025 A 
ATOM      3  C   UNL     1       7.900   2.272  23.629  0.00  0.00    +0.001 A 
ATOM      4  C   UNL     1       6.686   1.824  23.122  0.00  0.00    +0.047 A 
ATOM      5  N   UNL     1       6.617   0.484  23.404  0.00  0.00    -0.354 N 
ATOM      6  H   UNL     1       5.906  -0.187  23.111  0.00  0.00    +0.166 HD
ATOM      7  C   UNL     1       7.778   0.032  23.996  0.00  0.00    +0.047 A 
ATOM      8  C   UNL     1       5.795   2.649  22.434  0.00  0.00    +0.027 A 
ATOM      9  C   UNL     1       8.544   1.159  24.239  0.00  0.00    +0.036 A 
ATOM     10  C   UNL     1       6.191   3.976  22.223  0.00  0.00    +0.018 A 
ENDROOT
BRANCH   1  14
ATOM     11  N   UNL     1       7.214   6.544  21.466  0.00  0.00    -0.250 N 
ATOM     12  H   UNL     1       6.420   6.135  20.984  0.00  0.00    +0.288 HD
ATOM     13  H   UNL     1       7.484   7.483  21.211  0.00  0.00    +0.288 HD
ATOM     14  C   UNL     1       7.878   5.828  22.354  0.00  0.00    +0.266 C 
ATOM     15  N   UNL     1       8.948   6.326  22.935  0.00  0.00    -0.288 N 
ATOM     16  H   UNL     1       9.307   7.246  22.726  0.00  0.00    +0.301 HD
ATOM     17  H   UNL     1       9.444   5.777  23.629  0.00  0.00    +0.301 HD
ENDBRANCH   1  14
BRANCH   7  18
ATOM     18  C   UNL     1       8.010  -1.425  24.200  0.00  0.00    -0.009 A 
ATOM     19  C   UNL     1       6.907  -2.349  24.422  0.00  0.00    -0.091 A 
ATOM     20  O   UNL     1       5.684  -1.943  24.449  0.00  0.00    -0.873 OA
ATOM     21  C   UNL     1       7.276  -3.745  24.574  0.00  0.00    -0.025 A 
ATOM     22  C   UNL     1       8.647  -4.118  24.509  0.00  0.00    +0.008 A 
ATOM     23  C   UNL     1       9.663  -3.208  24.263  0.00  0.00    +0.001 A 
ATOM     24  C   UNL     1       9.345  -1.871  24.114  0.00  0.00    +0.009 A 
BRANCH  21  25
ATOM     25  C   UNL     1       6.278  -4.864  24.783  0.00  0.00    -0.018 A 
ATOM     26  C   UNL     1       6.002  -5.371  26.072  0.00  0.00    +0.008 A 
ATOM     27  C   UNL     1       5.062  -6.386  26.291  0.00  0.00    +0.001 A 
ATOM     28  C   UNL     1       4.388  -6.954  25.217  0.00  0.00    +0.000 A 
ATOM     29  C   UNL     1       4.643  -6.491  23.932  0.00  0.00    +0.001 A 
ATOM     30  C   UNL     1       5.558  -5.449  23.727  0.00  0.00    +0.008 A 
ENDBRANCH  21  25
ENDBRANCH   7  18
TORSDOF 3
ENDMDL
MODEL 5
REMARK VINA RESULT:      -7.5      3.512      9.032
REMARK  Name = 
REMARK  3 active torsions:
REMARK  status: ('A' for Active; 'I' for Inactive)
REMARK    1  A    between atoms: C_2  and  C_6
REMARK    2  A    between atoms: C_11  and  C_15
REMARK    3  A    between atoms: C_19  and  C_22
REMARK                            x       y       z     vdW  Elec       q    Type
REMARK                         _______ _______ _______ _____ _____    ______ ____
ROOT
ATOM      1  C   UNL     1      11.324   4.379  23.480  0.00  0.00    +0.061 A 
ATOM      2  C   UNL     1      11.651   3.030  23.713  0.00  0.00    +0.025 A 
ATOM      3  C   UNL     1      10.670   2.140  24.184  0.00  0.00    +0.001 A 
ATOM      4  C   UNL     1       9.392   2.624  24.433  0.00  0.00    +0.047 A 
ATOM      5  N   UNL     1       8.632   1.543  24.801  0.00  0.00    -0.354 N 
ATOM      6  H   UNL     1       7.627   1.509  24.980  0.00  0.00    +0.166 HD
ATOM      7  C   UNL     1       9.349   0.368  24.713  0.00  0.00    +0.047 A 
ATOM      8  C   UNL     1       9.037   3.964  24.272  0.00  0.00    +0.027 A 
ATOM      9  C   UNL     1      10.652   0.739  24.432  0.00  0.00    +0.036 A 
ATOM     10  C   UNL     1      10.027   4.830  23.791  0.00  0.00    +0.018 A 
ENDROOT
BRANCH   1  14
ATOM     11  N   UNL     1      12.668   5.116  21.612  0.00  0.00    -0.250 N 
ATOM     12  H   UNL     1      12.274   4.349  21.077  0.00  0.00    +0.288 HD
ATOM     13  H   UNL     1      13.347   5.706  21.155  0.00  0.00    +0.288 HD
ATOM     14  C   UNL     1      12.319   5.277  22.875  0.00  0.00    +0.266 C 
ATOM     15  N   UNL     1      12.875   6.227  23.596  0.00  0.00    -0.288 N 
ATOM     16  H   UNL     1      13.580   6.850  23.231  0.00  0.00    +0.301 HD
ATOM     17  H   UNL     1      12.590   6.356  24.561  0.00  0.00    +0.301 HD
ENDBRANCH   1  14
BRANCH   7  18
ATOM     18  C   UNL     1       8.670  -0.950  24.861  0.00  0.00    -0.009 A 
ATOM     19  C   UNL     1       8.246  -1.724  23.703  0.00  0.00    -0.091 A 
ATOM     20  O   UNL     1       8.444  -1.300  22.501  0.00  0.00    -0.873 OA
ATOM     21  C   UNL     1       7.626  -3.004  23.993  0.00  0.00    -0.025 A 
ATOM     22  C   UNL     1       7.464  -3.412  25.346  0.00  0.00    +0.008 A 
ATOM     23  C   UNL     1       7.912  -2.656  26.418  0.00  0.00    +0.001 A 
ATOM     24  C   UNL     1       8.507  -1.433  26.175  0.00  0.00    +0.009 A 
BRANCH  21  25
ATOM     25  C   UNL     1       7.145  -3.969  22.931  0.00  0.00    -0.018 A 
ATOM     26  C   UNL     1       6.298  -3.545  21.883  0.00  0.00    +0.008 A 
ATOM     27  C   UNL     1       5.863  -4.415  20.874  0.00  0.00    +0.001 A 
ATOM     28  C   UNL     1       6.237  -5.752  20.900  0.00  0.00    +0.000 A 
ATOM     29  C   UNL     1       7.059  -6.209  21.924  0.00  0.00    +0.001 A 
ATOM     30  C   UNL     1       7.519  -5.324  22.908  0.00  0.00    +0.008 A 
ENDBRANCH  21  25
ENDBRANCH   7  18
TORSDOF 3
ENDMDL
MODEL 6
REMARK VINA RESULT:      -7.4      2.801      8.936
REMARK  Name = 
REMARK  3 active torsions:
REMARK  status: ('A' for Active; 'I' for Inactive)
REMARK    1  A    between atoms: C_2  and  C_6
REMARK    2  A    between atoms: C_11  and  C_15
REMARK    3  A    between atoms: C_19  and  C_22
REMARK                            x       y       z     vdW  Elec       q    Type
REMARK                         _______ _______ _______ _____ _____    ______ ____
ROOT
ATOM      1  C   UNL     1      10.094   3.581  23.882  0.00  0.00    +0.061 A 
ATOM      2  C   UNL     1      10.554   2.271  23.647  0.00  0.00    +0.025 A 
ATOM      3  C   UNL     1       9.760   1.170  24.013  0.00  0.00    +0.001 A 
ATOM      4  C   UNL     1       8.535   1.404  24.626  0.00  0.00    +0.047 A 
ATOM      5  N   UNL     1       7.947   0.177  24.798  0.00  0.00    -0.354 N 
ATOM      6  H   UNL     1       7.008  -0.031  25.143  0.00  0.00    +0.166 HD
ATOM      7  C   UNL     1       8.706  -0.830  24.240  0.00  0.00    +0.047 A 
ATOM      8  C   UNL     1       8.063   2.681  24.931  0.00  0.00    +0.027 A 
ATOM      9  C   UNL     1       9.890  -0.236  23.842  0.00  0.00    +0.036 A 
ATOM     10  C   UNL     1       8.866   3.763  24.546  0.00  0.00    +0.018 A 
ENDROOT
BRANCH   1  14
ATOM     11  N   UNL     1      10.318   5.923  23.333  0.00  0.00    -0.250 N 
ATOM     12  H   UNL     1       9.344   6.037  23.594  0.00  0.00    +0.288 HD
ATOM     13  H   UNL     1      10.812   6.738  23.001  0.00  0.00    +0.288 HD
ATOM     14  C   UNL     1      10.873   4.726  23.390  0.00  0.00    +0.266 C 
ATOM     15  N   UNL     1      12.115   4.557  22.990  0.00  0.00    -0.288 N 
ATOM     16  H   UNL     1      12.680   5.309  22.622  0.00  0.00    +0.301 HD
ATOM     17  H   UNL     1      12.541   3.639  23.053  0.00  0.00    +0.301 HD
ENDBRANCH   1  14
BRANCH   7  18
ATOM     18  C   UNL     1       8.166  -2.214  24.122  0.00  0.00    -0.009 A 
ATOM     19  C   UNL     1       7.610  -2.916  25.271  0.00  0.00    -0.091 A 
ATOM     20  O   UNL     1       7.561  -2.366  26.436  0.00  0.00    -0.873 OA
ATOM     21  C   UNL     1       7.092  -4.245  25.006  0.00  0.00    -0.025 A 
ATOM     22  C   UNL     1       7.161  -4.774  23.688  0.00  0.00    +0.008 A 
ATOM     23  C   UNL     1       7.671  -4.057  22.616  0.00  0.00    +0.001 A 
ATOM     24  C   UNL     1       8.173  -2.788  22.835  0.00  0.00    +0.009 A 
BRANCH  21  25
ATOM     25  C   UNL     1       6.447  -5.125  26.056  0.00  0.00    -0.018 A 
ATOM     26  C   UNL     1       5.311  -5.910  25.759  0.00  0.00    +0.008 A 
ATOM     27  C   UNL     1       4.715  -6.752  26.708  0.00  0.00    +0.001 A 
ATOM     28  C   UNL     1       5.220  -6.810  28.001  0.00  0.00    +0.000 A 
ATOM     29  C   UNL     1       6.328  -6.041  28.334  0.00  0.00    +0.001 A 
ATOM     30  C   UNL     1       6.940  -5.230  27.368  0.00  0.00    +0.008 A 
ENDBRANCH  21  25
ENDBRANCH   7  18
TORSDOF 3
ENDMDL
MODEL 7
REMARK VINA RESULT:      -7.4      2.877      8.880
REMARK  Name = 
REMARK  3 active torsions:
REMARK  status: ('A' for Active; 'I' for Inactive)
REMARK    1  A    between atoms: C_2  and  C_6
REMARK    2  A    between atoms: C_11  and  C_15
REMARK    3  A    between atoms: C_19  and  C_22
REMARK                            x       y       z     vdW  Elec       q    Type
REMARK                         _______ _______ _______ _____ _____    ______ ____
ROOT
ATOM      1  C   UNL     1      10.032   1.882  23.366  0.00  0.00    +0.061 A 
ATOM      2  C   UNL     1       9.244   1.092  22.507  0.00  0.00    +0.025 A 
ATOM      3  C   UNL     1       9.012  -0.261  22.809  0.00  0.00    +0.001 A 
ATOM      4  C   UNL     1       9.594  -0.800  23.950  0.00  0.00    +0.047 A 
ATOM      5  N   UNL     1       9.144  -2.093  24.041  0.00  0.00    -0.354 N 
ATOM      6  H   UNL     1       9.300  -2.764  24.795  0.00  0.00    +0.166 HD
ATOM      7  C   UNL     1       8.227  -2.379  23.053  0.00  0.00    +0.047 A 
ATOM      8  C   UNL     1      10.429  -0.073  24.800  0.00  0.00    +0.027 A 
ATOM      9  C   UNL     1       8.217  -1.279  22.214  0.00  0.00    +0.036 A 
ATOM     10  C   UNL     1      10.635   1.276  24.485  0.00  0.00    +0.018 A 
ENDROOT
BRANCH   1  14
ATOM     11  N   UNL     1       9.095   4.075  22.985  0.00  0.00    -0.250 N 
ATOM     12  H   UNL     1       8.176   3.648  23.030  0.00  0.00    +0.288 HD
ATOM     13  H   UNL     1       9.142   5.068  22.807  0.00  0.00    +0.288 HD
ATOM     14  C   UNL     1      10.172   3.322  23.110  0.00  0.00    +0.266 C 
ATOM     15  N   UNL     1      11.368   3.858  22.987  0.00  0.00    -0.288 N 
ATOM     16  H   UNL     1      11.512   4.836  22.786  0.00  0.00    +0.301 HD
ATOM     17  H   UNL     1      12.192   3.276  23.101  0.00  0.00    +0.301 HD
ENDBRANCH   1  14
BRANCH   7  18
ATOM     18  C   UNL     1       7.451  -3.651  23.080  0.00  0.00    -0.009 A 
ATOM     19  C   UNL     1       6.591  -3.995  24.203  0.00  0.00    -0.091 A 
ATOM     20  O   UNL     1       6.463  -3.211  25.219  0.00  0.00    -0.873 OA
ATOM     21  C   UNL     1       5.870  -5.249  24.083  0.00  0.00    -0.025 A 
ATOM     22  C   UNL     1       6.045  -6.049  22.920  0.00  0.00    +0.008 A 
ATOM     23  C   UNL     1       6.852  -5.666  21.860  0.00  0.00    +0.001 A 
ATOM     24  C   UNL     1       7.552  -4.478  21.943  0.00  0.00    +0.009 A 
BRANCH  21  25
ATOM     25  C   UNL     1       4.904  -5.771  25.126  0.00  0.00    -0.018 A 
ATOM     26  C   UNL     1       3.510  -5.774  24.898  0.00  0.00    +0.008 A 
ATOM     27  C   UNL     1       2.600  -6.277  25.838  0.00  0.00    +0.001 A 
ATOM     28  C   UNL     1       3.057  -6.767  27.055  0.00  0.00    +0.000 A 
ATOM     29  C   UNL     1       4.421  -6.768  27.320  0.00  0.00    +0.001 A 
ATOM     30  C   UNL     1       5.326  -6.296  26.359  0.00  0.00    +0.008 A 
ENDBRANCH  21  25
ENDBRANCH   7  18
TORSDOF 3
ENDMDL
MODEL 8
REMARK VINA RESULT:      -7.3      2.146      2.752
REMARK  Name = 
REMARK  3 active torsions:
REMARK  status: ('A' for Active; 'I' for Inactive)
REMARK    1  A    between atoms: C_2  and  C_6
REMARK    2  A    between atoms: C_11  and  C_15
REMARK    3  A    between atoms: C_19  and  C_22
REMARK                            x       y       z     vdW  Elec       q    Type
REMARK                         _______ _______ _______ _____ _____    ______ ____
ROOT
ATOM      1  C   UNL     1       6.285  -4.281  23.539  0.00  0.00    +0.061 A 
ATOM      2  C   UNL     1       5.813  -3.051  24.035  0.00  0.00    +0.025 A 
ATOM      3  C   UNL     1       6.552  -1.875  23.819  0.00  0.00    +0.001 A 
ATOM      4  C   UNL     1       7.759  -1.959  23.135  0.00  0.00    +0.047 A 
ATOM      5  N   UNL     1       8.220  -0.675  23.001  0.00  0.00    -0.354 N 
ATOM      6  H   UNL     1       9.037  -0.347  22.483  0.00  0.00    +0.166 HD
ATOM      7  C   UNL     1       7.314   0.241  23.494  0.00  0.00    +0.047 A 
ATOM      8  C   UNL     1       8.295  -3.163  22.677  0.00  0.00    +0.027 A 
ATOM      9  C   UNL     1       6.318  -0.501  24.104  0.00  0.00    +0.036 A 
ATOM     10  C   UNL     1       7.535  -4.320  22.892  0.00  0.00    +0.018 A 
ENDROOT
BRANCH   1  14
ATOM     11  N   UNL     1       5.311  -6.070  24.837  0.00  0.00    -0.250 N 
ATOM     12  H   UNL     1       5.809  -5.705  25.642  0.00  0.00    +0.288 HD
ATOM     13  H   UNL     1       4.750  -6.900  24.970  0.00  0.00    +0.288 HD
ATOM     14  C   UNL     1       5.452  -5.486  23.662  0.00  0.00    +0.266 C 
ATOM     15  N   UNL     1       4.863  -5.992  22.600  0.00  0.00    -0.288 N 
ATOM     16  H   UNL     1       4.303  -6.831  22.631  0.00  0.00    +0.301 HD
ATOM     17  H   UNL     1       4.962  -5.528  21.703  0.00  0.00    +0.301 HD
ENDBRANCH   1  14
BRANCH   7  18
ATOM     18  C   UNL     1       7.508   1.701  23.267  0.00  0.00    -0.009 A 
ATOM     19  C   UNL     1       8.694   2.396  23.746  0.00  0.00    -0.091 A 
ATOM     20  O   UNL     1       9.627   1.775  24.385  0.00  0.00    -0.873 OA
ATOM     21  C   UNL     1       8.767   3.810  23.428  0.00  0.00    -0.025 A 
ATOM     22  C   UNL     1       7.709   4.419  22.699  0.00  0.00    +0.008 A 
ATOM     23  C   UNL     1       6.611   3.711  22.235  0.00  0.00    +0.001 A 
ATOM     24  C   UNL     1       6.512   2.362  22.521  0.00  0.00    +0.009 A 
BRANCH  21  25
ATOM     25  C   UNL     1       9.929   4.703  23.808  0.00  0.00    -0.018 A 
ATOM     26  C   UNL     1      11.242   4.429  23.362  0.00  0.00    +0.008 A 
ATOM     27  C   UNL     1      12.327   5.256  23.679  0.00  0.00    +0.001 A 
ATOM     28  C   UNL     1      12.139   6.372  24.485  0.00  0.00    +0.000 A 
ATOM     29  C   UNL     1      10.864   6.666  24.954  0.00  0.00    +0.001 A 
ATOM     30  C   UNL     1       9.778   5.852  24.602  0.00  0.00    +0.008 A 
ENDBRANCH  21  25
ENDBRANCH   7  18
TORSDOF 3
ENDMDL
MODEL 9
REMARK VINA RESULT:      -7.3      2.031      2.799
REMARK  Name = 
REMARK  3 active torsions:
REMARK  status: ('A' for Active; 'I' for Inactive)
REMARK    1  A    between atoms: C_2  and  C_6
REMARK    2  A    between atoms: C_11  and  C_15
REMARK    3  A    between atoms: C_19  and  C_22
REMARK                            x       y       z     vdW  Elec       q    Type
REMARK                         _______ _______ _______ _____ _____    ______ ____
ROOT
ATOM      1  C   UNL     1       5.382  -5.827  23.780  0.00  0.00    +0.061 A 
ATOM      2  C   UNL     1       5.898  -4.879  24.685  0.00  0.00    +0.025 A 
ATOM      3  C   UNL     1       6.832  -3.924  24.247  0.00  0.00    +0.001 A 
ATOM      4  C   UNL     1       7.247  -3.953  22.921  0.00  0.00    +0.047 A 
ATOM      5  N   UNL     1       8.084  -2.879  22.752  0.00  0.00    -0.354 N 
ATOM      6  H   UNL     1       8.511  -2.541  21.888  0.00  0.00    +0.166 HD
ATOM      7  C   UNL     1       8.154  -2.110  23.894  0.00  0.00    +0.047 A 
ATOM      8  C   UNL     1       6.808  -4.908  22.003  0.00  0.00    +0.027 A 
ATOM      9  C   UNL     1       7.463  -2.809  24.867  0.00  0.00    +0.036 A 
ATOM     10  C   UNL     1       5.868  -5.842  22.459  0.00  0.00    +0.018 A 
ENDROOT
BRANCH   1  14
ATOM     11  N   UNL     1       3.380  -7.111  23.360  0.00  0.00    -0.250 N 
ATOM     12  H   UNL     1       3.377  -6.727  22.421  0.00  0.00    +0.288 HD
ATOM     13  H   UNL     1       2.629  -7.738  23.612  0.00  0.00    +0.288 HD
ATOM     14  C   UNL     1       4.319  -6.745  24.212  0.00  0.00    +0.266 C 
ATOM     15  N   UNL     1       4.292  -7.186  25.452  0.00  0.00    -0.288 N 
ATOM     16  H   UNL     1       3.568  -7.797  25.800  0.00  0.00    +0.301 HD
ATOM     17  H   UNL     1       5.026  -6.915  26.097  0.00  0.00    +0.301 HD
ENDBRANCH   1  14
BRANCH   7  18
ATOM     18  C   UNL     1       8.835  -0.784  23.877  0.00  0.00    -0.009 A 
ATOM     19  C   UNL     1       8.092   0.452  23.677  0.00  0.00    -0.091 A 
ATOM     20  O   UNL     1       6.814   0.449  23.509  0.00  0.00    -0.873 OA
ATOM     21  C   UNL     1       8.877   1.672  23.715  0.00  0.00    -0.025 A 
ATOM     22  C   UNL     1      10.281   1.594  23.929  0.00  0.00    +0.008 A 
ATOM     23  C   UNL     1      10.943   0.396  24.147  0.00  0.00    +0.001 A 
ATOM     24  C   UNL     1      10.224  -0.784  24.116  0.00  0.00    +0.009 A 
BRANCH  21  25
ATOM     25  C   UNL     1       8.291   3.059  23.559  0.00  0.00    -0.018 A 
ATOM     26  C   UNL     1       8.321   3.992  24.620  0.00  0.00    +0.008 A 
ATOM     27  C   UNL     1       7.809   5.290  24.488  0.00  0.00    +0.001 A 
ATOM     28  C   UNL     1       7.217   5.687  23.296  0.00  0.00    +0.000 A 
ATOM     29  C   UNL     1       7.157   4.791  22.235  0.00  0.00    +0.001 A 
ATOM     30  C   UNL     1       7.704   3.507  22.364  0.00  0.00    +0.008 A 
ENDBRANCH  21  25
ENDBRANCH   7  18
TORSDOF 3
ENDMDL
