MODEL 1
REMARK VINA RESULT:      -5.6      0.000      0.000
REMARK  Name = 
REMARK  8 active torsions:
REMARK  status: ('A' for Active; 'I' for Inactive)
REMARK    1  A    between atoms: N_1  and  C_5
REMARK    2  A    between atoms: C_5  and  C_6
REMARK    3  A    between atoms: C_9  and  C_10
REMARK    4  A    between atoms: C_10  and  N_11
REMARK    5  A    between atoms: N_11  and  C_12
REMARK    6  A    between atoms: C_12  and  C_13
REMARK    7  A    between atoms: C_13  and  C_14
REMARK    8  A    between atoms: C_14  and  O_15
REMARK                            x       y       z     vdW  Elec       q    Type
REMARK                         _______ _______ _______ _____ _____    ______ ____
ROOT
ATOM      1  C   UNL     1      10.212   2.271  23.388  0.00  0.00    -0.003 A 
ATOM      2  C   UNL     1       9.873   1.760  22.126  0.00  0.00    +0.009 A 
ATOM      3  C   UNL     1       9.832   0.382  21.909  0.00  0.00    +0.005 A 
ATOM      4  C   UNL     1      10.129  -0.511  22.946  0.00  0.00    -0.034 A 
ATOM      5  C   UNL     1      10.437   0.001  24.214  0.00  0.00    +0.005 A 
ATOM      6  C   UNL     1      10.476   1.378  24.436  0.00  0.00    +0.009 A 
ENDROOT
BRANCH   1   7
ATOM      7  C   UNL     1      10.403   3.743  23.582  0.00  0.00    +0.164 C 
BRANCH   7   8
ATOM      8  N   UNL     1      11.656   4.181  22.922  0.00  0.00    +0.222 N 
ATOM      9  H   UNL     1      11.902   3.582  22.127  0.00  0.00    +0.200 HD
ATOM     10  H   UNL     1      12.436   4.177  23.587  0.00  0.00    +0.200 HD
ATOM     11  H   UNL     1      11.559   5.147  22.580  0.00  0.00    +0.200 HD
ENDBRANCH   7   8
ENDBRANCH   1   7
BRANCH   4  12
ATOM     12  C   UNL     1      10.211  -1.994  22.669  0.00  0.00    +0.116 C 
BRANCH  12  13
ATOM     13  N   UNL     1       9.978  -2.789  23.886  0.00  0.00    -0.311 NA
ATOM     14  H   UNL     1      10.203  -2.187  24.686  0.00  0.00    +0.122 HD
BRANCH  13  15
ATOM     15  C   UNL     1       8.558  -3.189  24.009  0.00  0.00    +0.092 C 
BRANCH  15  16
ATOM     16  C   UNL     1       8.360  -4.702  24.115  0.00  0.00    +0.135 C 
BRANCH  16  17
ATOM     17  C   UNL     1       8.925  -5.335  25.367  0.00  0.00    +0.306 C 
ATOM     18  O   UNL     1       8.220  -5.716  26.291  0.00  0.00    -0.251 OA
BRANCH  17  19
ATOM     19  O   UNL     1      10.259  -5.549  25.354  0.00  0.00    -0.481 OA
ATOM     20  H   UNL     1      10.619  -5.528  24.432  0.00  0.00    +0.295 HD
ENDBRANCH  17  19
ENDBRANCH  16  17
ENDBRANCH  15  16
ENDBRANCH  13  15
ENDBRANCH  12  13
ENDBRANCH   4  12
TORSDOF 8
ENDMDL
MODEL 2
REMARK VINA RESULT:      -5.3      4.591      7.464
REMARK  Name = 
REMARK  8 active torsions:
REMARK  status: ('A' for Active; 'I' for Inactive)
REMARK    1  A    between atoms: N_1  and  C_5
REMARK    2  A    between atoms: C_5  and  C_6
REMARK    3  A    between atoms: C_9  and  C_10
REMARK    4  A    between atoms: C_10  and  N_11
REMARK    5  A    between atoms: N_11  and  C_12
REMARK    6  A    between atoms: C_12  and  C_13
REMARK    7  A    between atoms: C_13  and  C_14
REMARK    8  A    between atoms: C_14  and  O_15
REMARK                            x       y       z     vdW  Elec       q    Type
REMARK                         _______ _______ _______ _____ _____    ______ ____
ROOT
ATOM      1  C   UNL     1       9.652  -1.442  23.549  0.00  0.00    -0.003 A 
ATOM      2  C   UNL     1       9.503  -0.993  22.228  0.00  0.00    +0.009 A 
ATOM      3  C   UNL     1       9.741   0.343  21.904  0.00  0.00    +0.005 A 
ATOM      4  C   UNL     1      10.133   1.257  22.890  0.00  0.00    -0.034 A 
ATOM      5  C   UNL     1      10.312   0.800  24.204  0.00  0.00    +0.005 A 
ATOM      6  C   UNL     1      10.077  -0.536  24.531  0.00  0.00    +0.009 A 
ENDROOT
BRANCH   1   7
ATOM      7  C   UNL     1       9.252  -2.834  23.926  0.00  0.00    +0.164 C 
BRANCH   7   8
ATOM      8  N   UNL     1       8.920  -2.891  25.369  0.00  0.00    +0.222 N 
ATOM      9  H   UNL     1       8.501  -3.788  25.632  0.00  0.00    +0.200 HD
ATOM     10  H   UNL     1       8.268  -2.140  25.620  0.00  0.00    +0.200 HD
ATOM     11  H   UNL     1       9.767  -2.752  25.935  0.00  0.00    +0.200 HD
ENDBRANCH   7   8
ENDBRANCH   1   7
BRANCH   4  12
ATOM     12  C   UNL     1      10.260   2.725  22.557  0.00  0.00    +0.116 C 
BRANCH  12  13
ATOM     13  N   UNL     1      11.301   3.378  23.366  0.00  0.00    -0.311 NA
ATOM     14  H   UNL     1      12.138   3.454  22.777  0.00  0.00    +0.122 HD
BRANCH  13  15
ATOM     15  C   UNL     1      10.903   4.748  23.761  0.00  0.00    +0.092 C 
BRANCH  15  16
ATOM     16  C   UNL     1      12.046   5.761  23.678  0.00  0.00    +0.135 C 
BRANCH  16  17
ATOM     17  C   UNL     1      13.167   5.385  22.736  0.00  0.00    +0.306 C 
ATOM     18  O   UNL     1      13.085   5.520  21.523  0.00  0.00    -0.251 OA
BRANCH  17  19
ATOM     19  O   UNL     1      14.312   4.985  23.332  0.00  0.00    -0.481 OA
ATOM     20  H   UNL     1      14.901   5.755  23.536  0.00  0.00    +0.295 HD
ENDBRANCH  17  19
ENDBRANCH  16  17
ENDBRANCH  15  16
ENDBRANCH  13  15
ENDBRANCH  12  13
ENDBRANCH   4  12
TORSDOF 8
ENDMDL
MODEL 3
REMARK VINA RESULT:      -5.1      2.060      2.591
REMARK  Name = 
REMARK  8 active torsions:
REMARK  status: ('A' for Active; 'I' for Inactive)
REMARK    1  A    between atoms: N_1  and  C_5
REMARK    2  A    between atoms: C_5  and  C_6
REMARK    3  A    between atoms: C_9  and  C_10
REMARK    4  A    between atoms: C_10  and  N_11
REMARK    5  A    between atoms: N_11  and  C_12
REMARK    6  A    between atoms: C_12  and  C_13
REMARK    7  A    between atoms: C_13  and  C_14
REMARK    8  A    between atoms: C_14  and  O_15
REMARK                            x       y       z     vdW  Elec       q    Type
REMARK                         _______ _______ _______ _____ _____    ______ ____
ROOT
ATOM      1  C   UNL     1      10.201   2.366  23.331  0.00  0.00    -0.003 A 
ATOM      2  C   UNL     1      10.527   1.433  24.328  0.00  0.00    +0.009 A 
ATOM      3  C   UNL     1      10.481   0.065  24.058  0.00  0.00    +0.005 A 
ATOM      4  C   UNL     1      10.110  -0.399  22.790  0.00  0.00    -0.034 A 
ATOM      5  C   UNL     1       9.816   0.534  21.786  0.00  0.00    +0.005 A 
ATOM      6  C   UNL     1       9.864   1.903  22.051  0.00  0.00    +0.009 A 
ENDROOT
BRANCH   1   7
ATOM      7  C   UNL     1      10.104   3.823  23.659  0.00  0.00    +0.164 C 
BRANCH   7   8
ATOM      8  N   UNL     1      11.304   4.535  23.160  0.00  0.00    +0.222 N 
ATOM      9  H   UNL     1      11.999   4.682  23.898  0.00  0.00    +0.200 HD
ATOM     10  H   UNL     1      11.046   5.446  22.767  0.00  0.00    +0.200 HD
ATOM     11  H   UNL     1      11.746   3.997  22.402  0.00  0.00    +0.200 HD
ENDBRANCH   7   8
ENDBRANCH   1   7
BRANCH   4  12
ATOM     12  C   UNL     1       9.936  -1.880  22.546  0.00  0.00    +0.116 C 
BRANCH  12  13
ATOM     13  N   UNL     1       9.652  -2.607  23.793  0.00  0.00    -0.311 NA
ATOM     14  H   UNL     1       9.632  -1.913  24.549  0.00  0.00    +0.122 HD
BRANCH  13  15
ATOM     15  C   UNL     1       8.326  -3.263  23.750  0.00  0.00    +0.092 C 
BRANCH  15  16
ATOM     16  C   UNL     1       7.571  -3.024  22.441  0.00  0.00    +0.135 C 
BRANCH  16  17
ATOM     17  C   UNL     1       6.729  -4.189  21.968  0.00  0.00    +0.306 C 
ATOM     18  O   UNL     1       5.640  -4.042  21.431  0.00  0.00    -0.251 OA
BRANCH  17  19
ATOM     19  O   UNL     1       7.309  -5.404  22.082  0.00  0.00    -0.481 OA
ATOM     20  H   UNL     1       8.288  -5.327  22.209  0.00  0.00    +0.295 HD
ENDBRANCH  17  19
ENDBRANCH  16  17
ENDBRANCH  15  16
ENDBRANCH  13  15
ENDBRANCH  12  13
ENDBRANCH   4  12
TORSDOF 8
ENDMDL
MODEL 4
REMARK VINA RESULT:      -4.9      2.332      3.024
REMARK  Name = 
REMARK  8 active torsions:
REMARK  status: ('A' for Active; 'I' for Inactive)
REMARK    1  A    between atoms: N_1  and  C_5
REMARK    2  A    between atoms: C_5  and  C_6
REMARK    3  A    between atoms: C_9  and  C_10
REMARK    4  A    between atoms: C_10  and  N_11
REMARK    5  A    between atoms: N_11  and  C_12
REMARK    6  A    between atoms: C_12  and  C_13
REMARK    7  A    between atoms: C_13  and  C_14
REMARK    8  A    between atoms: C_14  and  O_15
REMARK                            x       y       z     vdW  Elec       q    Type
REMARK                         _______ _______ _______ _____ _____    ______ ____
ROOT
ATOM      1  C   UNL     1      10.059   0.613  22.986  0.00  0.00    -0.003 A 
ATOM      2  C   UNL     1       9.718   0.673  24.346  0.00  0.00    +0.009 A 
ATOM      3  C   UNL     1       9.426  -0.493  25.054  0.00  0.00    +0.005 A 
ATOM      4  C   UNL     1       9.469  -1.741  24.420  0.00  0.00    -0.034 A 
ATOM      5  C   UNL     1       9.841  -1.802  23.069  0.00  0.00    +0.005 A 
ATOM      6  C   UNL     1      10.136  -0.639  22.359  0.00  0.00    +0.009 A 
ENDROOT
BRANCH   1   7
ATOM      7  C   UNL     1      10.224   1.870  22.190  0.00  0.00    +0.164 C 
BRANCH   7   8
ATOM      8  N   UNL     1       8.982   2.155  21.434  0.00  0.00    +0.222 N 
ATOM      9  H   UNL     1       8.979   1.701  20.515  0.00  0.00    +0.200 HD
ATOM     10  H   UNL     1       8.865   3.165  21.300  0.00  0.00    +0.200 HD
ATOM     11  H   UNL     1       8.162   1.826  21.960  0.00  0.00    +0.200 HD
ENDBRANCH   7   8
ENDBRANCH   1   7
BRANCH   4  12
ATOM     12  C   UNL     1       9.024  -2.983  25.157  0.00  0.00    +0.116 C 
BRANCH  12  13
ATOM     13  N   UNL     1       9.561  -4.205  24.538  0.00  0.00    -0.311 NA
ATOM     14  H   UNL     1      10.300  -4.557  25.158  0.00  0.00    +0.122 HD
BRANCH  13  15
ATOM     15  C   UNL     1       8.526  -5.257  24.428  0.00  0.00    +0.092 C 
BRANCH  15  16
ATOM     16  C   UNL     1       7.193  -4.746  23.880  0.00  0.00    +0.135 C 
BRANCH  16  17
ATOM     17  C   UNL     1       7.146  -4.567  22.379  0.00  0.00    +0.306 C 
ATOM     18  O   UNL     1       7.250  -5.502  21.597  0.00  0.00    -0.251 OA
BRANCH  17  19
ATOM     19  O   UNL     1       6.875  -3.312  21.955  0.00  0.00    -0.481 OA
ATOM     20  H   UNL     1       6.245  -2.854  22.565  0.00  0.00    +0.295 HD
ENDBRANCH  17  19
ENDBRANCH  16  17
ENDBRANCH  15  16
ENDBRANCH  13  15
ENDBRANCH  12  13
ENDBRANCH   4  12
TORSDOF 8
ENDMDL
MODEL 5
REMARK VINA RESULT:      -4.8      3.574      6.871
REMARK  Name = 
REMARK  8 active torsions:
REMARK  status: ('A' for Active; 'I' for Inactive)
REMARK    1  A    between atoms: N_1  and  C_5
REMARK    2  A    between atoms: C_5  and  C_6
REMARK    3  A    between atoms: C_9  and  C_10
REMARK    4  A    between atoms: C_10  and  N_11
REMARK    5  A    between atoms: N_11  and  C_12
REMARK    6  A    between atoms: C_12  and  C_13
REMARK    7  A    between atoms: C_13  and  C_14
REMARK    8  A    between atoms: C_14  and  O_15
REMARK                            x       y       z     vdW  Elec       q    Type
REMARK                         _______ _______ _______ _____ _____    ______ ____
ROOT
ATOM      1  C   UNL     1       6.997  -4.793  23.132  0.00  0.00    -0.003 A 
ATOM      2  C   UNL     1       7.063  -3.589  22.414  0.00  0.00    +0.009 A 
ATOM      3  C   UNL     1       7.984  -2.603  22.771  0.00  0.00    +0.005 A 
ATOM      4  C   UNL     1       8.856  -2.799  23.850  0.00  0.00    -0.034 A 
ATOM      5  C   UNL     1       8.809  -4.015  24.545  0.00  0.00    +0.005 A 
ATOM      6  C   UNL     1       7.892  -5.004  24.190  0.00  0.00    +0.009 A 
ENDROOT
BRANCH   1   7
ATOM      7  C   UNL     1       5.913  -5.785  22.847  0.00  0.00    +0.164 C 
BRANCH   7   8
ATOM      8  N   UNL     1       6.042  -6.291  21.460  0.00  0.00    +0.222 N 
ATOM      9  H   UNL     1       6.820  -6.951  21.363  0.00  0.00    +0.200 HD
ATOM     10  H   UNL     1       6.188  -5.516  20.805  0.00  0.00    +0.200 HD
ATOM     11  H   UNL     1       5.177  -6.767  21.173  0.00  0.00    +0.200 HD
ENDBRANCH   7   8
ENDBRANCH   1   7
BRANCH   4  12
ATOM     12  C   UNL     1       9.756  -1.677  24.311  0.00  0.00    +0.116 C 
BRANCH  12  13
ATOM     13  N   UNL     1       9.145  -0.358  24.078  0.00  0.00    -0.311 NA
ATOM     14  H   UNL     1       8.326  -0.293  24.694  0.00  0.00    +0.122 HD
BRANCH  13  15
ATOM     15  C   UNL     1      10.068   0.740  24.438  0.00  0.00    +0.092 C 
BRANCH  15  16
ATOM     16  C   UNL     1      10.359   1.696  23.280  0.00  0.00    +0.135 C 
BRANCH  16  17
ATOM     17  C   UNL     1       9.702   1.328  21.968  0.00  0.00    +0.306 C 
ATOM     18  O   UNL     1       9.840   0.232  21.444  0.00  0.00    -0.251 OA
BRANCH  17  19
ATOM     19  O   UNL     1       8.864   2.259  21.461  0.00  0.00    -0.481 OA
ATOM     20  H   UNL     1       9.361   2.980  21.000  0.00  0.00    +0.295 HD
ENDBRANCH  17  19
ENDBRANCH  16  17
ENDBRANCH  15  16
ENDBRANCH  13  15
ENDBRANCH  12  13
ENDBRANCH   4  12
TORSDOF 8
ENDMDL
MODEL 6
REMARK VINA RESULT:      -4.8      3.715      7.220
REMARK  Name = 
REMARK  8 active torsions:
REMARK  status: ('A' for Active; 'I' for Inactive)
REMARK    1  A    between atoms: N_1  and  C_5
REMARK    2  A    between atoms: C_5  and  C_6
REMARK    3  A    between atoms: C_9  and  C_10
REMARK    4  A    between atoms: C_10  and  N_11
REMARK    5  A    between atoms: N_11  and  C_12
REMARK    6  A    between atoms: C_12  and  C_13
REMARK    7  A    between atoms: C_13  and  C_14
REMARK    8  A    between atoms: C_14  and  O_15
REMARK                            x       y       z     vdW  Elec       q    Type
REMARK                         _______ _______ _______ _____ _____    ______ ____
ROOT
ATOM      1  C   UNL     1       6.552  -5.287  25.631  0.00  0.00    -0.003 A 
ATOM      2  C   UNL     1       6.732  -5.231  24.240  0.00  0.00    +0.009 A 
ATOM      3  C   UNL     1       7.757  -4.459  23.691  0.00  0.00    +0.005 A 
ATOM      4  C   UNL     1       8.620  -3.729  24.517  0.00  0.00    -0.034 A 
ATOM      5  C   UNL     1       8.458  -3.811  25.907  0.00  0.00    +0.005 A 
ATOM      6  C   UNL     1       7.437  -4.584  26.461  0.00  0.00    +0.009 A 
ENDROOT
BRANCH   1   7
ATOM      7  C   UNL     1       5.366  -5.990  26.213  0.00  0.00    +0.164 C 
BRANCH   7   8
ATOM      8  N   UNL     1       5.768  -6.739  27.428  0.00  0.00    +0.222 N 
ATOM      9  H   UNL     1       5.661  -6.177  28.278  0.00  0.00    +0.200 HD
ATOM     10  H   UNL     1       6.745  -7.043  27.357  0.00  0.00    +0.200 HD
ATOM     11  H   UNL     1       5.197  -7.588  27.527  0.00  0.00    +0.200 HD
ENDBRANCH   7   8
ENDBRANCH   1   7
BRANCH   4  12
ATOM     12  C   UNL     1       9.640  -2.794  23.910  0.00  0.00    +0.116 C 
BRANCH  12  13
ATOM     13  N   UNL     1       9.110  -1.428  23.769  0.00  0.00    -0.311 NA
ATOM     14  H   UNL     1       9.865  -0.783  24.029  0.00  0.00    +0.122 HD
BRANCH  13  15
ATOM     15  C   UNL     1       8.729  -1.135  22.369  0.00  0.00    +0.092 C 
BRANCH  15  16
ATOM     16  C   UNL     1       9.727  -0.231  21.643  0.00  0.00    +0.135 C 
BRANCH  16  17
ATOM     17  C   UNL     1       9.999   1.094  22.320  0.00  0.00    +0.306 C 
ATOM     18  O   UNL     1      10.234   1.190  23.517  0.00  0.00    -0.251 OA
BRANCH  17  19
ATOM     19  O   UNL     1      10.069   2.161  21.494  0.00  0.00    -0.481 OA
ATOM     20  H   UNL     1      10.625   2.882  21.881  0.00  0.00    +0.295 HD
ENDBRANCH  17  19
ENDBRANCH  16  17
ENDBRANCH  15  16
ENDBRANCH  13  15
ENDBRANCH  12  13
ENDBRANCH   4  12
TORSDOF 8
ENDMDL
MODEL 7
REMARK VINA RESULT:      -4.8      3.522      5.990
REMARK  Name = 
REMARK  8 active torsions:
REMARK  status: ('A' for Active; 'I' for Inactive)
REMARK    1  A    between atoms: N_1  and  C_5
REMARK    2  A    between atoms: C_5  and  C_6
REMARK    3  A    between atoms: C_9  and  C_10
REMARK    4  A    between atoms: C_10  and  N_11
REMARK    5  A    between atoms: N_11  and  C_12
REMARK    6  A    between atoms: C_12  and  C_13
REMARK    7  A    between atoms: C_13  and  C_14
REMARK    8  A    between atoms: C_14  and  O_15
REMARK                            x       y       z     vdW  Elec       q    Type
REMARK                         _______ _______ _______ _____ _____    ______ ____
ROOT
ATOM      1  C   UNL     1      10.132  -0.404  22.870  0.00  0.00    -0.003 A 
ATOM      2  C   UNL     1       9.875   0.509  21.835  0.00  0.00    +0.009 A 
ATOM      3  C   UNL     1       9.811   1.878  22.099  0.00  0.00    +0.005 A 
ATOM      4  C   UNL     1      10.002   2.362  23.399  0.00  0.00    -0.034 A 
ATOM      5  C   UNL     1      10.290   1.452  24.426  0.00  0.00    +0.005 A 
ATOM      6  C   UNL     1      10.357   0.083  24.166  0.00  0.00    +0.009 A 
ENDROOT
BRANCH   1   7
ATOM      7  C   UNL     1      10.052  -1.877  22.619  0.00  0.00    +0.164 C 
BRANCH   7   8
ATOM      8  N   UNL     1       9.948  -2.604  23.906  0.00  0.00    +0.222 N 
ATOM      9  H   UNL     1      10.504  -2.161  24.644  0.00  0.00    +0.200 HD
ATOM     10  H   UNL     1      10.261  -3.575  23.799  0.00  0.00    +0.200 HD
ATOM     11  H   UNL     1       8.968  -2.638  24.216  0.00  0.00    +0.200 HD
ENDBRANCH   7   8
ENDBRANCH   1   7
BRANCH   4  12
ATOM     12  C   UNL     1       9.801   3.829  23.698  0.00  0.00    +0.116 C 
BRANCH  12  13
ATOM     13  N   UNL     1       8.709   4.403  22.895  0.00  0.00    -0.311 NA
ATOM     14  H   UNL     1       8.687   3.891  22.006  0.00  0.00    +0.122 HD
BRANCH  13  15
ATOM     15  C   UNL     1       7.396   4.219  23.553  0.00  0.00    +0.092 C 
BRANCH  15  16
ATOM     16  C   UNL     1       6.425   3.359  22.743  0.00  0.00    +0.135 C 
BRANCH  16  17
ATOM     17  C   UNL     1       5.975   2.086  23.427  0.00  0.00    +0.306 C 
ATOM     18  O   UNL     1       6.752   1.197  23.745  0.00  0.00    -0.251 OA
BRANCH  17  19
ATOM     19  O   UNL     1       4.666   2.041  23.759  0.00  0.00    -0.481 OA
ATOM     20  H   UNL     1       4.517   2.364  24.682  0.00  0.00    +0.295 HD
ENDBRANCH  17  19
ENDBRANCH  16  17
ENDBRANCH  15  16
ENDBRANCH  13  15
ENDBRANCH  12  13
ENDBRANCH   4  12
TORSDOF 8
ENDMDL
MODEL 8
REMARK VINA RESULT:      -4.7      3.375      6.491
REMARK  Name = 
REMARK  8 active torsions:
REMARK  status: ('A' for Active; 'I' for Inactive)
REMARK    1  A    between atoms: N_1  and  C_5
REMARK    2  A    between atoms: C_5  and  C_6
REMARK    3  A    between atoms: C_9  and  C_10
REMARK    4  A    between atoms: C_10  and  N_11
REMARK    5  A    between atoms: N_11  and  C_12
REMARK    6  A    between atoms: C_12  and  C_13
REMARK    7  A    between atoms: C_13  and  C_14
REMARK    8  A    between atoms: C_14  and  O_15
REMARK                            x       y       z     vdW  Elec       q    Type
REMARK                         _______ _______ _______ _____ _____    ______ ____
ROOT
ATOM      1  C   UNL     1       7.908  -4.331  24.710  0.00  0.00    -0.003 A 
ATOM      2  C   UNL     1       7.215  -4.068  23.518  0.00  0.00    +0.009 A 
ATOM      3  C   UNL     1       7.724  -3.158  22.591  0.00  0.00    +0.005 A 
ATOM      4  C   UNL     1       8.932  -2.493  22.835  0.00  0.00    -0.034 A 
ATOM      5  C   UNL     1       9.638  -2.781  24.011  0.00  0.00    +0.005 A 
ATOM      6  C   UNL     1       9.135  -3.692  24.939  0.00  0.00    +0.009 A 
ENDROOT
BRANCH   1   7
ATOM      7  C   UNL     1       7.291  -5.189  25.770  0.00  0.00    +0.164 C 
BRANCH   7   8
ATOM      8  N   UNL     1       8.351  -5.767  26.632  0.00  0.00    +0.222 N 
ATOM      9  H   UNL     1       9.278  -5.398  26.399  0.00  0.00    +0.200 HD
ATOM     10  H   UNL     1       8.373  -6.788  26.541  0.00  0.00    +0.200 HD
ATOM     11  H   UNL     1       8.158  -5.558  27.620  0.00  0.00    +0.200 HD
ENDBRANCH   7   8
ENDBRANCH   1   7
BRANCH   4  12
ATOM     12  C   UNL     1       9.408  -1.414  21.890  0.00  0.00    +0.116 C 
BRANCH  12  13
ATOM     13  N   UNL     1      10.223  -0.404  22.584  0.00  0.00    -0.311 NA
ATOM     14  H   UNL     1      11.204  -0.595  22.349  0.00  0.00    +0.122 HD
BRANCH  13  15
ATOM     15  C   UNL     1       9.906   0.964  22.117  0.00  0.00    +0.092 C 
BRANCH  15  16
ATOM     16  C   UNL     1       8.828   1.658  22.951  0.00  0.00    +0.135 C 
BRANCH  16  17
ATOM     17  C   UNL     1       9.287   2.149  24.307  0.00  0.00    +0.306 C 
ATOM     18  O   UNL     1       9.123   3.301  24.683  0.00  0.00    -0.251 OA
BRANCH  17  19
ATOM     19  O   UNL     1       9.798   1.200  25.122  0.00  0.00    -0.481 OA
ATOM     20  H   UNL     1       9.904   1.537  26.046  0.00  0.00    +0.295 HD
ENDBRANCH  17  19
ENDBRANCH  16  17
ENDBRANCH  15  16
ENDBRANCH  13  15
ENDBRANCH  12  13
ENDBRANCH   4  12
TORSDOF 8
ENDMDL
MODEL 9
REMARK VINA RESULT:      -4.7      2.906      3.492
REMARK  Name = 
REMARK  8 active torsions:
REMARK  status: ('A' for Active; 'I' for Inactive)
REMARK    1  A    between atoms: N_1  and  C_5
REMARK    2  A    between atoms: C_5  and  C_6
REMARK    3  A    between atoms: C_9  and  C_10
REMARK    4  A    between atoms: C_10  and  N_11
REMARK    5  A    between atoms: N_11  and  C_12
REMARK    6  A    between atoms: C_12  and  C_13
REMARK    7  A    between atoms: C_13  and  C_14
REMARK    8  A    between atoms: C_14  and  O_15
REMARK                            x       y       z     vdW  Elec       q    Type
REMARK                         _______ _______ _______ _____ _____    ______ ____
ROOT
ATOM      1  C   UNL     1       8.408   3.046  22.728  0.00  0.00    -0.003 A 
ATOM      2  C   UNL     1       9.462   2.615  23.549  0.00  0.00    +0.009 A 
ATOM      3  C   UNL     1      10.069   1.378  23.328  0.00  0.00    +0.005 A 
ATOM      4  C   UNL     1       9.639   0.549  22.284  0.00  0.00    -0.034 A 
ATOM      5  C   UNL     1       8.608   0.996  21.446  0.00  0.00    +0.005 A 
ATOM      6  C   UNL     1       7.999   2.233  21.662  0.00  0.00    +0.009 A 
ENDROOT
BRANCH   1   7
ATOM      7  C   UNL     1       7.658   4.299  23.055  0.00  0.00    +0.164 C 
BRANCH   7   8
ATOM      8  N   UNL     1       7.467   5.109  21.828  0.00  0.00    +0.222 N 
ATOM      9  H   UNL     1       6.774   5.852  21.962  0.00  0.00    +0.200 HD
ATOM     10  H   UNL     1       7.164   4.516  21.048  0.00  0.00    +0.200 HD
ATOM     11  H   UNL     1       8.356   5.542  21.547  0.00  0.00    +0.200 HD
ENDBRANCH   7   8
ENDBRANCH   1   7
BRANCH   4  12
ATOM     12  C   UNL     1      10.211  -0.841  22.135  0.00  0.00    +0.116 C 
BRANCH  12  13
ATOM     13  N   UNL     1       9.156  -1.866  22.123  0.00  0.00    -0.311 NA
ATOM     14  H   UNL     1       9.450  -2.594  21.462  0.00  0.00    +0.122 HD
BRANCH  13  15
ATOM     15  C   UNL     1       8.999  -2.500  23.451  0.00  0.00    +0.092 C 
BRANCH  15  16
ATOM     16  C   UNL     1       7.721  -2.081  24.178  0.00  0.00    +0.135 C 
BRANCH  16  17
ATOM     17  C   UNL     1       6.605  -1.594  23.281  0.00  0.00    +0.306 C 
ATOM     18  O   UNL     1       6.075  -2.305  22.438  0.00  0.00    -0.251 OA
BRANCH  17  19
ATOM     19  O   UNL     1       6.157  -0.346  23.543  0.00  0.00    -0.481 OA
ATOM     20  H   UNL     1       6.128  -0.169  24.516  0.00  0.00    +0.295 HD
ENDBRANCH  17  19
ENDBRANCH  16  17
ENDBRANCH  15  16
ENDBRANCH  13  15
ENDBRANCH  12  13
ENDBRANCH   4  12
TORSDOF 8
ENDMDL
