MODEL 1
REMARK VINA RESULT:      -7.9      0.000      0.000
REMARK  Name = 
REMARK  6 active torsions:
REMARK  status: ('A' for Active; 'I' for Inactive)
REMARK    1  A    between atoms: C_4  and  O_5
REMARK    2  A    between atoms: C_8  and  C_9
REMARK    3  A    between atoms: C_9  and  N_10
REMARK    4  A    between atoms: N_10  and  C_11
REMARK    5  A    between atoms: C_14  and  C_17
REMARK    6  A    between atoms: C_17  and  O_18
REMARK                            x       y       z     vdW  Elec       q    Type
REMARK                         _______ _______ _______ _____ _____    ______ ____
ROOT
ATOM      1  N   UNL     1       3.860  -7.247  25.972  0.00  0.00    -0.288 N 
ATOM      2  H   UNL     1       3.153  -7.430  25.278  0.00  0.00    +0.149 HD
ATOM      3  H   UNL     1       3.797  -7.766  26.844  0.00  0.00    +0.149 HD
ATOM      4  C   UNL     1       5.010  -6.532  25.797  0.00  0.00    +0.375 A 
ATOM      5  N   UNL     1       5.204  -5.883  24.659  0.00  0.00    -0.156 N 
ATOM      6  H   UNL     1       4.518  -5.922  23.920  0.00  0.00    +0.458 HD
ATOM      7  C   UNL     1       6.297  -5.143  24.435  0.00  0.00    +0.337 A 
ATOM      8  C   UNL     1       7.260  -5.031  25.445  0.00  0.00    +0.218 A 
ATOM      9  N   UNL     1       8.364  -4.261  25.275  0.00  0.00    -0.236 NA
ATOM     10  C   UNL     1       8.555  -3.649  24.078  0.00  0.00    +0.078 A 
ATOM     11  C   UNL     1       7.603  -3.785  23.080  0.00  0.00    +0.142 A 
ATOM     12  C   UNL     1       6.980  -5.764  26.591  0.00  0.00    +0.253 A 
ATOM     13  N   UNL     1       6.458  -4.507  23.244  0.00  0.00    -0.191 NA
ATOM     14  N   UNL     1       5.886  -6.513  26.805  0.00  0.00    -0.134 NA
ENDROOT
BRANCH  12  15
ATOM     15  O   UNL     1       7.861  -5.777  27.631  0.00  0.00    -0.491 OA
ATOM     16  H   UNL     1       7.606  -6.558  28.155  0.00  0.00    +0.294 HD
ENDBRANCH  12  15
BRANCH  10  17
ATOM     17  C   UNL     1       9.817  -2.835  23.875  0.00  0.00    +0.158 C 
BRANCH  17  18
ATOM     18  N   UNL     1       9.715  -1.910  22.741  0.00  0.00    -0.338 N 
ATOM     19  H   UNL     1       8.835  -2.041  22.242  0.00  0.00    +0.146 HD
BRANCH  18  20
ATOM     20  C   UNL     1       9.921  -0.535  22.960  0.00  0.00    +0.027 A 
ATOM     21  C   UNL     1       9.769   0.352  21.883  0.00  0.00    +0.024 A 
ATOM     22  C   UNL     1      10.013   1.725  22.024  0.00  0.00    +0.017 A 
ATOM     23  C   UNL     1      10.453   2.238  23.246  0.00  0.00    +0.059 A 
ATOM     24  C   UNL     1      10.681   1.364  24.307  0.00  0.00    +0.017 A 
ATOM     25  C   UNL     1      10.413  -0.003  24.157  0.00  0.00    +0.024 A 
BRANCH  23  26
ATOM     26  C   UNL     1      10.731   3.692  23.353  0.00  0.00    +0.337 C 
ATOM     27  O   UNL     1      11.863   4.140  23.398  0.00  0.00    -0.245 OA
BRANCH  26  28
ATOM     28  O   UNL     1       9.626   4.465  23.370  0.00  0.00    -0.477 OA
ATOM     29  H   UNL     1       9.633   5.191  24.018  0.00  0.00    +0.295 HD
ENDBRANCH  26  28
ENDBRANCH  23  26
ENDBRANCH  18  20
ENDBRANCH  17  18
ENDBRANCH  10  17
TORSDOF 6
ENDMDL
MODEL 2
REMARK VINA RESULT:      -7.7      1.831      2.618
REMARK  Name = 
REMARK  6 active torsions:
REMARK  status: ('A' for Active; 'I' for Inactive)
REMARK    1  A    between atoms: C_4  and  O_5
REMARK    2  A    between atoms: C_8  and  C_9
REMARK    3  A    between atoms: C_9  and  N_10
REMARK    4  A    between atoms: N_10  and  C_11
REMARK    5  A    between atoms: C_14  and  C_17
REMARK    6  A    between atoms: C_17  and  O_18
REMARK                            x       y       z     vdW  Elec       q    Type
REMARK                         _______ _______ _______ _____ _____    ______ ____
ROOT
ATOM      1  N   UNL     1       3.469  -7.045  23.813  0.00  0.00    -0.288 N 
ATOM      2  H   UNL     1       3.210  -7.513  24.667  0.00  0.00    +0.149 HD
ATOM      3  H   UNL     1       2.798  -7.072  23.049  0.00  0.00    +0.149 HD
ATOM      4  C   UNL     1       4.529  -6.204  23.633  0.00  0.00    +0.375 A 
ATOM      5  N   UNL     1       5.413  -6.055  24.608  0.00  0.00    -0.156 N 
ATOM      6  H   UNL     1       5.303  -6.546  25.483  0.00  0.00    +0.458 HD
ATOM      7  C   UNL     1       6.489  -5.267  24.485  0.00  0.00    +0.337 A 
ATOM      8  C   UNL     1       6.702  -4.592  23.277  0.00  0.00    +0.218 A 
ATOM      9  N   UNL     1       7.797  -3.814  23.095  0.00  0.00    -0.236 NA
ATOM     10  C   UNL     1       8.657  -3.645  24.133  0.00  0.00    +0.078 A 
ATOM     11  C   UNL     1       8.423  -4.302  25.330  0.00  0.00    +0.142 A 
ATOM     12  C   UNL     1       5.711  -4.793  22.324  0.00  0.00    +0.253 A 
ATOM     13  N   UNL     1       7.360  -5.134  25.521  0.00  0.00    -0.191 NA
ATOM     14  N   UNL     1       4.629  -5.577  22.458  0.00  0.00    -0.134 NA
ENDROOT
BRANCH  12  15
ATOM     15  O   UNL     1       5.776  -4.156  21.120  0.00  0.00    -0.491 OA
ATOM     16  H   UNL     1       6.476  -4.628  20.634  0.00  0.00    +0.294 HD
ENDBRANCH  12  15
BRANCH  10  17
ATOM     17  C   UNL     1       9.850  -2.730  23.941  0.00  0.00    +0.158 C 
BRANCH  17  18
ATOM     18  N   UNL     1       9.721  -1.876  22.755  0.00  0.00    -0.338 N 
ATOM     19  H   UNL     1       8.808  -1.996  22.317  0.00  0.00    +0.146 HD
BRANCH  18  20
ATOM     20  C   UNL     1      10.000  -0.501  22.870  0.00  0.00    +0.027 A 
ATOM     21  C   UNL     1      10.367   0.012  24.124  0.00  0.00    +0.024 A 
ATOM     22  C   UNL     1      10.605   1.380  24.316  0.00  0.00    +0.017 A 
ATOM     23  C   UNL     1      10.443   2.276  23.257  0.00  0.00    +0.059 A 
ATOM     24  C   UNL     1      10.008   1.797  22.023  0.00  0.00    +0.017 A 
ATOM     25  C   UNL     1       9.794   0.424  21.841  0.00  0.00    +0.024 A 
BRANCH  23  26
ATOM     26  C   UNL     1      10.673   3.721  23.501  0.00  0.00    +0.337 C 
ATOM     27  O   UNL     1       9.774   4.484  23.806  0.00  0.00    -0.245 OA
BRANCH  26  28
ATOM     28  O   UNL     1      11.961   4.102  23.381  0.00  0.00    -0.477 OA
ATOM     29  H   UNL     1      12.615   3.499  23.777  0.00  0.00    +0.295 HD
ENDBRANCH  26  28
ENDBRANCH  23  26
ENDBRANCH  18  20
ENDBRANCH  17  18
ENDBRANCH  10  17
TORSDOF 6
ENDMDL
MODEL 3
REMARK VINA RESULT:      -7.6      1.843      2.503
REMARK  Name = 
REMARK  6 active torsions:
REMARK  status: ('A' for Active; 'I' for Inactive)
REMARK    1  A    between atoms: C_4  and  O_5
REMARK    2  A    between atoms: C_8  and  C_9
REMARK    3  A    between atoms: C_9  and  N_10
REMARK    4  A    between atoms: N_10  and  C_11
REMARK    5  A    between atoms: C_14  and  C_17
REMARK    6  A    between atoms: C_17  and  O_18
REMARK                            x       y       z     vdW  Elec       q    Type
REMARK                         _______ _______ _______ _____ _____    ______ ____
ROOT
ATOM      1  N   UNL     1       5.863  -6.280  26.585  0.00  0.00    -0.288 N 
ATOM      2  H   UNL     1       4.868  -6.237  26.434  0.00  0.00    +0.149 HD
ATOM      3  H   UNL     1       6.211  -7.043  27.162  0.00  0.00    +0.149 HD
ATOM      4  C   UNL     1       6.820  -5.554  25.935  0.00  0.00    +0.375 A 
ATOM      5  N   UNL     1       6.451  -4.587  25.108  0.00  0.00    -0.156 N 
ATOM      6  H   UNL     1       5.474  -4.393  24.945  0.00  0.00    +0.458 HD
ATOM      7  C   UNL     1       7.339  -3.821  24.462  0.00  0.00    +0.337 A 
ATOM      8  C   UNL     1       8.705  -4.031  24.683  0.00  0.00    +0.218 A 
ATOM      9  N   UNL     1       9.638  -3.253  24.079  0.00  0.00    -0.236 NA
ATOM     10  C   UNL     1       9.226  -2.304  23.200  0.00  0.00    +0.078 A 
ATOM     11  C   UNL     1       7.871  -2.121  22.975  0.00  0.00    +0.142 A 
ATOM     12  C   UNL     1       8.993  -5.080  25.547  0.00  0.00    +0.253 A 
ATOM     13  N   UNL     1       6.911  -2.850  23.611  0.00  0.00    -0.191 NA
ATOM     14  N   UNL     1       8.098  -5.851  26.184  0.00  0.00    -0.134 NA
ENDROOT
BRANCH  12  15
ATOM     15  O   UNL     1      10.288  -5.417  25.811  0.00  0.00    -0.491 OA
ATOM     16  H   UNL     1      10.536  -6.011  25.080  0.00  0.00    +0.294 HD
ENDBRANCH  12  15
BRANCH  10  17
ATOM     17  C   UNL     1      10.276  -1.476  22.486  0.00  0.00    +0.158 C 
BRANCH  17  18
ATOM     18  N   UNL     1      10.692  -0.303  23.264  0.00  0.00    -0.338 N 
ATOM     19  H   UNL     1      11.686  -0.115  23.134  0.00  0.00    +0.146 HD
BRANCH  18  20
ATOM     20  C   UNL     1       9.973   0.899  23.124  0.00  0.00    +0.027 A 
ATOM     21  C   UNL     1       9.880   1.763  24.227  0.00  0.00    +0.024 A 
ATOM     22  C   UNL     1       9.133   2.948  24.169  0.00  0.00    +0.017 A 
ATOM     23  C   UNL     1       8.429   3.278  23.008  0.00  0.00    +0.059 A 
ATOM     24  C   UNL     1       8.450   2.398  21.928  0.00  0.00    +0.017 A 
ATOM     25  C   UNL     1       9.217   1.228  21.994  0.00  0.00    +0.024 A 
BRANCH  23  26
ATOM     26  C   UNL     1       7.625   4.525  22.990  0.00  0.00    +0.337 C 
ATOM     27  O   UNL     1       6.918   4.861  23.923  0.00  0.00    -0.245 OA
BRANCH  26  28
ATOM     28  O   UNL     1       7.768   5.257  21.866  0.00  0.00    -0.477 OA
ATOM     29  H   UNL     1       8.645   5.211  21.446  0.00  0.00    +0.295 HD
ENDBRANCH  26  28
ENDBRANCH  23  26
ENDBRANCH  18  20
ENDBRANCH  17  18
ENDBRANCH  10  17
TORSDOF 6
ENDMDL
MODEL 4
REMARK VINA RESULT:      -7.4      1.844      2.890
REMARK  Name = 
REMARK  6 active torsions:
REMARK  status: ('A' for Active; 'I' for Inactive)
REMARK    1  A    between atoms: C_4  and  O_5
REMARK    2  A    between atoms: C_8  and  C_9
REMARK    3  A    between atoms: C_9  and  N_10
REMARK    4  A    between atoms: N_10  and  C_11
REMARK    5  A    between atoms: C_14  and  C_17
REMARK    6  A    between atoms: C_17  and  O_18
REMARK                            x       y       z     vdW  Elec       q    Type
REMARK                         _______ _______ _______ _____ _____    ______ ____
ROOT
ATOM      1  N   UNL     1       2.424  -8.305  25.631  0.00  0.00    -0.288 N 
ATOM      2  H   UNL     1       2.086  -8.572  26.541  0.00  0.00    +0.149 HD
ATOM      3  H   UNL     1       1.828  -8.518  24.835  0.00  0.00    +0.149 HD
ATOM      4  C   UNL     1       3.498  -7.506  25.361  0.00  0.00    +0.375 A 
ATOM      5  N   UNL     1       4.288  -7.122  26.352  0.00  0.00    -0.156 N 
ATOM      6  H   UNL     1       4.096  -7.404  27.303  0.00  0.00    +0.458 HD
ATOM      7  C   UNL     1       5.372  -6.363  26.152  0.00  0.00    +0.337 A 
ATOM      8  C   UNL     1       5.698  -5.976  24.846  0.00  0.00    +0.218 A 
ATOM      9  N   UNL     1       6.807  -5.238  24.592  0.00  0.00    -0.236 NA
ATOM     10  C   UNL     1       7.566  -4.821  25.638  0.00  0.00    +0.078 A 
ATOM     11  C   UNL     1       7.221  -5.194  26.927  0.00  0.00    +0.142 A 
ATOM     12  C   UNL     1       4.799  -6.406  23.878  0.00  0.00    +0.253 A 
ATOM     13  N   UNL     1       6.144  -5.982  27.205  0.00  0.00    -0.191 NA
ATOM     14  N   UNL     1       3.709  -7.160  24.088  0.00  0.00    -0.134 NA
ENDROOT
BRANCH  12  15
ATOM     15  O   UNL     1       4.978  -6.058  22.572  0.00  0.00    -0.491 OA
ATOM     16  H   UNL     1       5.371  -6.849  22.162  0.00  0.00    +0.294 HD
ENDBRANCH  12  15
BRANCH  10  17
ATOM     17  C   UNL     1       8.774  -3.951  25.353  0.00  0.00    +0.158 C 
BRANCH  17  18
ATOM     18  N   UNL     1       8.879  -3.578  23.937  0.00  0.00    -0.338 N 
ATOM     19  H   UNL     1       8.020  -3.806  23.436  0.00  0.00    +0.146 HD
BRANCH  18  20
ATOM     20  C   UNL     1       9.275  -2.270  23.603  0.00  0.00    +0.027 A 
ATOM     21  C   UNL     1       9.357  -1.307  24.621  0.00  0.00    +0.024 A 
ATOM     22  C   UNL     1       9.692   0.026  24.346  0.00  0.00    +0.017 A 
ATOM     23  C   UNL     1       9.918   0.435  23.030  0.00  0.00    +0.059 A 
ATOM     24  C   UNL     1       9.770  -0.488  21.997  0.00  0.00    +0.017 A 
ATOM     25  C   UNL     1       9.454  -1.821  22.290  0.00  0.00    +0.024 A 
BRANCH  23  26
ATOM     26  C   UNL     1      10.242   1.859  22.769  0.00  0.00    +0.337 C 
ATOM     27  O   UNL     1      10.816   2.559  23.584  0.00  0.00    -0.245 OA
BRANCH  26  28
ATOM     28  O   UNL     1       9.868   2.295  21.549  0.00  0.00    -0.477 OA
ATOM     29  H   UNL     1       9.799   3.262  21.453  0.00  0.00    +0.295 HD
ENDBRANCH  26  28
ENDBRANCH  23  26
ENDBRANCH  18  20
ENDBRANCH  17  18
ENDBRANCH  10  17
TORSDOF 6
ENDMDL
MODEL 5
REMARK VINA RESULT:      -7.4      1.382      2.167
REMARK  Name = 
REMARK  6 active torsions:
REMARK  status: ('A' for Active; 'I' for Inactive)
REMARK    1  A    between atoms: C_4  and  O_5
REMARK    2  A    between atoms: C_8  and  C_9
REMARK    3  A    between atoms: C_9  and  N_10
REMARK    4  A    between atoms: N_10  and  C_11
REMARK    5  A    between atoms: C_14  and  C_17
REMARK    6  A    between atoms: C_17  and  O_18
REMARK                            x       y       z     vdW  Elec       q    Type
REMARK                         _______ _______ _______ _____ _____    ______ ____
ROOT
ATOM      1  N   UNL     1       5.956  -7.139  28.634  0.00  0.00    -0.288 N 
ATOM      2  H   UNL     1       6.625  -7.503  29.294  0.00  0.00    +0.149 HD
ATOM      3  H   UNL     1       4.972  -7.287  28.844  0.00  0.00    +0.149 HD
ATOM      4  C   UNL     1       6.212  -6.290  27.595  0.00  0.00    +0.375 A 
ATOM      5  N   UNL     1       7.466  -5.987  27.299  0.00  0.00    -0.156 N 
ATOM      6  H   UNL     1       8.230  -6.365  27.840  0.00  0.00    +0.458 HD
ATOM      7  C   UNL     1       7.786  -5.183  26.276  0.00  0.00    +0.337 A 
ATOM      8  C   UNL     1       6.761  -4.662  25.477  0.00  0.00    +0.218 A 
ATOM      9  N   UNL     1       7.041  -3.875  24.408  0.00  0.00    -0.236 NA
ATOM     10  C   UNL     1       8.335  -3.544  24.163  0.00  0.00    +0.078 A 
ATOM     11  C   UNL     1       9.338  -4.050  24.975  0.00  0.00    +0.142 A 
ATOM     12  C   UNL     1       5.480  -5.018  25.879  0.00  0.00    +0.253 A 
ATOM     13  N   UNL     1       9.088  -4.888  26.021  0.00  0.00    -0.191 NA
ATOM     14  N   UNL     1       5.166  -5.816  26.912  0.00  0.00    -0.134 NA
ENDROOT
BRANCH  12  15
ATOM     15  O   UNL     1       4.392  -4.538  25.211  0.00  0.00    -0.491 OA
ATOM     16  H   UNL     1       4.472  -3.570  25.283  0.00  0.00    +0.294 HD
ENDBRANCH  12  15
BRANCH  10  17
ATOM     17  C   UNL     1       8.637  -2.619  23.001  0.00  0.00    +0.158 C 
BRANCH  17  18
ATOM     18  N   UNL     1      10.000  -2.078  23.050  0.00  0.00    -0.338 N 
ATOM     19  H   UNL     1      10.583  -2.494  22.323  0.00  0.00    +0.146 HD
BRANCH  18  20
ATOM     20  C   UNL     1      10.182  -0.683  23.045  0.00  0.00    +0.027 A 
ATOM     21  C   UNL     1      10.597  -0.051  24.228  0.00  0.00    +0.024 A 
ATOM     22  C   UNL     1      10.743   1.341  24.304  0.00  0.00    +0.017 A 
ATOM     23  C   UNL     1      10.439   2.140  23.200  0.00  0.00    +0.059 A 
ATOM     24  C   UNL     1       9.956   1.539  22.039  0.00  0.00    +0.017 A 
ATOM     25  C   UNL     1       9.835   0.144  21.972  0.00  0.00    +0.024 A 
BRANCH  23  26
ATOM     26  C   UNL     1      10.576   3.612  23.322  0.00  0.00    +0.337 C 
ATOM     27  O   UNL     1      11.654   4.158  23.478  0.00  0.00    -0.245 OA
BRANCH  26  28
ATOM     28  O   UNL     1       9.412   4.285  23.221  0.00  0.00    -0.477 OA
ATOM     29  H   UNL     1       8.615   3.779  23.459  0.00  0.00    +0.295 HD
ENDBRANCH  26  28
ENDBRANCH  23  26
ENDBRANCH  18  20
ENDBRANCH  17  18
ENDBRANCH  10  17
TORSDOF 6
ENDMDL
MODEL 6
REMARK VINA RESULT:      -7.2      3.818      8.456
REMARK  Name = 
REMARK  6 active torsions:
REMARK  status: ('A' for Active; 'I' for Inactive)
REMARK    1  A    between atoms: C_4  and  O_5
REMARK    2  A    between atoms: C_8  and  C_9
REMARK    3  A    between atoms: C_9  and  N_10
REMARK    4  A    between atoms: N_10  and  C_11
REMARK    5  A    between atoms: C_14  and  C_17
REMARK    6  A    between atoms: C_17  and  O_18
REMARK                            x       y       z     vdW  Elec       q    Type
REMARK                         _______ _______ _______ _____ _____    ______ ____
ROOT
ATOM      1  N   UNL     1       7.344   5.817  21.711  0.00  0.00    -0.288 N 
ATOM      2  H   UNL     1       8.065   6.496  21.527  0.00  0.00    +0.149 HD
ATOM      3  H   UNL     1       6.419   6.010  21.336  0.00  0.00    +0.149 HD
ATOM      4  C   UNL     1       7.516   4.566  22.232  0.00  0.00    +0.375 A 
ATOM      5  N   UNL     1       8.709   4.207  22.679  0.00  0.00    -0.156 N 
ATOM      6  H   UNL     1       9.492   4.842  22.626  0.00  0.00    +0.458 HD
ATOM      7  C   UNL     1       8.938   3.006  23.225  0.00  0.00    +0.337 A 
ATOM      8  C   UNL     1       7.875   2.104  23.351  0.00  0.00    +0.218 A 
ATOM      9  N   UNL     1       8.052   0.892  23.933  0.00  0.00    -0.236 NA
ATOM     10  C   UNL     1       9.300   0.537  24.334  0.00  0.00    +0.078 A 
ATOM     11  C   UNL     1      10.347   1.432  24.185  0.00  0.00    +0.142 A 
ATOM     12  C   UNL     1       6.669   2.561  22.834  0.00  0.00    +0.253 A 
ATOM     13  N   UNL     1      10.185   2.678  23.656  0.00  0.00    -0.191 NA
ATOM     14  N   UNL     1       6.449   3.763  22.278  0.00  0.00    -0.134 NA
ENDROOT
BRANCH  12  15
ATOM     15  O   UNL     1       5.565   1.760  22.853  0.00  0.00    -0.491 OA
ATOM     16  H   UNL     1       5.756   1.103  23.546  0.00  0.00    +0.294 HD
ENDBRANCH  12  15
BRANCH  10  17
ATOM     17  C   UNL     1       9.502  -0.840  24.933  0.00  0.00    +0.158 C 
BRANCH  17  18
ATOM     18  N   UNL     1       9.754  -1.867  23.915  0.00  0.00    -0.338 N 
ATOM     19  H   UNL     1      10.578  -2.420  24.152  0.00  0.00    +0.146 HD
BRANCH  18  20
ATOM     20  C   UNL     1       8.708  -2.731  23.544  0.00  0.00    +0.027 A 
ATOM     21  C   UNL     1       8.608  -3.981  24.174  0.00  0.00    +0.024 A 
ATOM     22  C   UNL     1       7.622  -4.909  23.811  0.00  0.00    +0.017 A 
ATOM     23  C   UNL     1       6.731  -4.618  22.776  0.00  0.00    +0.059 A 
ATOM     24  C   UNL     1       6.860  -3.413  22.088  0.00  0.00    +0.017 A 
ATOM     25  C   UNL     1       7.838  -2.487  22.476  0.00  0.00    +0.024 A 
BRANCH  23  26
ATOM     26  C   UNL     1       5.718  -5.634  22.396  0.00  0.00    +0.337 C 
ATOM     27  O   UNL     1       4.521  -5.411  22.436  0.00  0.00    -0.245 OA
BRANCH  26  28
ATOM     28  O   UNL     1       6.241  -6.806  21.982  0.00  0.00    -0.477 OA
ATOM     29  H   UNL     1       6.146  -6.994  21.032  0.00  0.00    +0.295 HD
ENDBRANCH  26  28
ENDBRANCH  23  26
ENDBRANCH  18  20
ENDBRANCH  17  18
ENDBRANCH  10  17
TORSDOF 6
ENDMDL
MODEL 7
REMARK VINA RESULT:      -7.1      3.444      8.681
REMARK  Name = 
REMARK  6 active torsions:
REMARK  status: ('A' for Active; 'I' for Inactive)
REMARK    1  A    between atoms: C_4  and  O_5
REMARK    2  A    between atoms: C_8  and  C_9
REMARK    3  A    between atoms: C_9  and  N_10
REMARK    4  A    between atoms: N_10  and  C_11
REMARK    5  A    between atoms: C_14  and  C_17
REMARK    6  A    between atoms: C_17  and  O_18
REMARK                            x       y       z     vdW  Elec       q    Type
REMARK                         _______ _______ _______ _____ _____    ______ ____
ROOT
ATOM      1  N   UNL     1       7.322   4.876  21.855  0.00  0.00    -0.288 N 
ATOM      2  H   UNL     1       7.963   5.376  21.260  0.00  0.00    +0.149 HD
ATOM      3  H   UNL     1       6.487   5.373  22.157  0.00  0.00    +0.149 HD
ATOM      4  C   UNL     1       7.344   3.540  22.137  0.00  0.00    +0.375 A 
ATOM      5  N   UNL     1       8.362   2.804  21.719  0.00  0.00    -0.156 N 
ATOM      6  H   UNL     1       9.112   3.218  21.184  0.00  0.00    +0.458 HD
ATOM      7  C   UNL     1       8.457   1.496  21.985  0.00  0.00    +0.337 A 
ATOM      8  C   UNL     1       7.457   0.884  22.752  0.00  0.00    +0.218 A 
ATOM      9  N   UNL     1       7.532  -0.430  23.077  0.00  0.00    -0.236 NA
ATOM     10  C   UNL     1       8.564  -1.165  22.589  0.00  0.00    +0.078 A 
ATOM     11  C   UNL     1       9.536  -0.552  21.814  0.00  0.00    +0.142 A 
ATOM     12  C   UNL     1       6.421   1.731  23.125  0.00  0.00    +0.253 A 
ATOM     13  N   UNL     1       9.514   0.779  21.520  0.00  0.00    -0.191 NA
ATOM     14  N   UNL     1       6.327   3.041  22.846  0.00  0.00    -0.134 NA
ENDROOT
BRANCH  12  15
ATOM     15  O   UNL     1       5.362   1.249  23.836  0.00  0.00    -0.491 OA
ATOM     16  H   UNL     1       5.711   1.124  24.736  0.00  0.00    +0.294 HD
ENDBRANCH  12  15
BRANCH  10  17
ATOM     17  C   UNL     1       8.613  -2.645  22.911  0.00  0.00    +0.158 C 
BRANCH  17  18
ATOM     18  N   UNL     1       7.589  -3.413  22.192  0.00  0.00    -0.338 N 
ATOM     19  H   UNL     1       7.985  -3.863  21.367  0.00  0.00    +0.146 HD
BRANCH  18  20
ATOM     20  C   UNL     1       6.813  -4.348  22.901  0.00  0.00    +0.027 A 
ATOM     21  C   UNL     1       5.894  -5.140  22.194  0.00  0.00    +0.024 A 
ATOM     22  C   UNL     1       5.054  -6.051  22.849  0.00  0.00    +0.017 A 
ATOM     23  C   UNL     1       5.090  -6.164  24.241  0.00  0.00    +0.059 A 
ATOM     24  C   UNL     1       5.943  -5.335  24.967  0.00  0.00    +0.017 A 
ATOM     25  C   UNL     1       6.791  -4.443  24.297  0.00  0.00    +0.024 A 
BRANCH  23  26
ATOM     26  C   UNL     1       4.167  -7.116  24.905  0.00  0.00    +0.337 C 
ATOM     27  O   UNL     1       4.039  -7.166  26.116  0.00  0.00    -0.245 OA
BRANCH  26  28
ATOM     28  O   UNL     1       3.471  -7.895  24.053  0.00  0.00    -0.477 OA
ATOM     29  H   UNL     1       3.673  -8.846  24.095  0.00  0.00    +0.295 HD
ENDBRANCH  26  28
ENDBRANCH  23  26
ENDBRANCH  18  20
ENDBRANCH  17  18
ENDBRANCH  10  17
TORSDOF 6
ENDMDL
MODEL 8
REMARK VINA RESULT:      -7.1      1.942      2.503
REMARK  Name = 
REMARK  6 active torsions:
REMARK  status: ('A' for Active; 'I' for Inactive)
REMARK    1  A    between atoms: C_4  and  O_5
REMARK    2  A    between atoms: C_8  and  C_9
REMARK    3  A    between atoms: C_9  and  N_10
REMARK    4  A    between atoms: N_10  and  C_11
REMARK    5  A    between atoms: C_14  and  C_17
REMARK    6  A    between atoms: C_17  and  O_18
REMARK                            x       y       z     vdW  Elec       q    Type
REMARK                         _______ _______ _______ _____ _____    ______ ____
ROOT
ATOM      1  N   UNL     1       1.514  -8.251  23.533  0.00  0.00    -0.288 N 
ATOM      2  H   UNL     1       1.097  -8.264  22.615  0.00  0.00    +0.149 HD
ATOM      3  H   UNL     1       1.150  -8.912  24.215  0.00  0.00    +0.149 HD
ATOM      4  C   UNL     1       2.649  -7.589  23.905  0.00  0.00    +0.375 A 
ATOM      5  N   UNL     1       3.228  -6.762  23.048  0.00  0.00    -0.156 N 
ATOM      6  H   UNL     1       2.847  -6.627  22.123  0.00  0.00    +0.458 HD
ATOM      7  C   UNL     1       4.326  -6.062  23.359  0.00  0.00    +0.337 A 
ATOM      8  C   UNL     1       4.872  -6.190  24.643  0.00  0.00    +0.218 A 
ATOM      9  N   UNL     1       5.961  -5.472  25.014  0.00  0.00    -0.236 NA
ATOM     10  C   UNL     1       6.558  -4.672  24.094  0.00  0.00    +0.078 A 
ATOM     11  C   UNL     1       6.020  -4.570  22.821  0.00  0.00    +0.142 A 
ATOM     12  C   UNL     1       4.209  -7.097  25.461  0.00  0.00    +0.253 A 
ATOM     13  N   UNL     1       4.894  -5.236  22.440  0.00  0.00    -0.191 NA
ATOM     14  N   UNL     1       3.114  -7.802  25.139  0.00  0.00    -0.134 NA
ENDROOT
BRANCH  12  15
ATOM     15  O   UNL     1       4.667  -7.347  26.720  0.00  0.00    -0.491 OA
ATOM     16  H   UNL     1       4.263  -6.651  27.268  0.00  0.00    +0.294 HD
ENDBRANCH  12  15
BRANCH  10  17
ATOM     17  C   UNL     1       7.807  -3.914  24.498  0.00  0.00    +0.158 C 
BRANCH  17  18
ATOM     18  N   UNL     1       8.593  -3.465  23.343  0.00  0.00    -0.338 N 
ATOM     19  H   UNL     1       8.139  -3.730  22.469  0.00  0.00    +0.146 HD
BRANCH  18  20
ATOM     20  C   UNL     1       8.986  -2.116  23.267  0.00  0.00    +0.027 A 
ATOM     21  C   UNL     1       8.914  -1.458  22.029  0.00  0.00    +0.024 A 
ATOM     22  C   UNL     1       9.342  -0.132  21.877  0.00  0.00    +0.017 A 
ATOM     23  C   UNL     1       9.889   0.558  22.961  0.00  0.00    +0.059 A 
ATOM     24  C   UNL     1      10.037  -0.100  24.180  0.00  0.00    +0.017 A 
ATOM     25  C   UNL     1       9.586  -1.419  24.322  0.00  0.00    +0.024 A 
BRANCH  23  26
ATOM     26  C   UNL     1      10.360   1.950  22.758  0.00  0.00    +0.337 C 
ATOM     27  O   UNL     1      10.791   2.634  23.670  0.00  0.00    -0.245 OA
BRANCH  26  28
ATOM     28  O   UNL     1      10.292   2.375  21.480  0.00  0.00    -0.477 OA
ATOM     29  H   UNL     1       9.853   3.234  21.348  0.00  0.00    +0.295 HD
ENDBRANCH  26  28
ENDBRANCH  23  26
ENDBRANCH  18  20
ENDBRANCH  17  18
ENDBRANCH  10  17
TORSDOF 6
ENDMDL
MODEL 9
REMARK VINA RESULT:      -7.1      1.423      2.306
REMARK  Name = 
REMARK  6 active torsions:
REMARK  status: ('A' for Active; 'I' for Inactive)
REMARK    1  A    between atoms: C_4  and  O_5
REMARK    2  A    between atoms: C_8  and  C_9
REMARK    3  A    between atoms: C_9  and  N_10
REMARK    4  A    between atoms: N_10  and  C_11
REMARK    5  A    between atoms: C_14  and  C_17
REMARK    6  A    between atoms: C_17  and  O_18
REMARK                            x       y       z     vdW  Elec       q    Type
REMARK                         _______ _______ _______ _____ _____    ______ ____
ROOT
ATOM      1  N   UNL     1       3.397  -7.502  28.484  0.00  0.00    -0.288 N 
ATOM      2  H   UNL     1       2.463  -7.804  28.256  0.00  0.00    +0.149 HD
ATOM      3  H   UNL     1       3.771  -7.793  29.384  0.00  0.00    +0.149 HD
ATOM      4  C   UNL     1       4.295  -6.919  27.637  0.00  0.00    +0.375 A 
ATOM      5  N   UNL     1       3.909  -6.573  26.418  0.00  0.00    -0.156 N 
ATOM      6  H   UNL     1       2.964  -6.747  26.108  0.00  0.00    +0.458 HD
ATOM      7  C   UNL     1       4.732  -5.973  25.549  0.00  0.00    +0.337 A 
ATOM      8  C   UNL     1       6.042  -5.680  25.947  0.00  0.00    +0.218 A 
ATOM      9  N   UNL     1       6.899  -5.039  25.113  0.00  0.00    -0.236 NA
ATOM     10  C   UNL     1       6.485  -4.744  23.854  0.00  0.00    +0.078 A 
ATOM     11  C   UNL     1       5.192  -5.058  23.467  0.00  0.00    +0.142 A 
ATOM     12  C   UNL     1       6.361  -6.101  27.232  0.00  0.00    +0.253 A 
ATOM     13  N   UNL     1       4.293  -5.651  24.303  0.00  0.00    -0.191 NA
ATOM     14  N   UNL     1       5.533  -6.711  28.094  0.00  0.00    -0.134 NA
ENDROOT
BRANCH  12  15
ATOM     15  O   UNL     1       7.619  -5.916  27.723  0.00  0.00    -0.491 OA
ATOM     16  H   UNL     1       8.073  -5.395  27.036  0.00  0.00    +0.294 HD
ENDBRANCH  12  15
BRANCH  10  17
ATOM     17  C   UNL     1       7.464  -4.078  22.908  0.00  0.00    +0.158 C 
BRANCH  17  18
ATOM     18  N   UNL     1       8.675  -3.607  23.591  0.00  0.00    -0.338 N 
ATOM     19  H   UNL     1       9.444  -4.265  23.462  0.00  0.00    +0.146 HD
BRANCH  18  20
ATOM     20  C   UNL     1       9.137  -2.302  23.339  0.00  0.00    +0.027 A 
ATOM     21  C   UNL     1       9.406  -1.458  24.428  0.00  0.00    +0.024 A 
ATOM     22  C   UNL     1       9.816  -0.130  24.244  0.00  0.00    +0.017 A 
ATOM     23  C   UNL     1       9.932   0.396  22.955  0.00  0.00    +0.059 A 
ATOM     24  C   UNL     1       9.599  -0.403  21.863  0.00  0.00    +0.017 A 
ATOM     25  C   UNL     1       9.210  -1.734  22.063  0.00  0.00    +0.024 A 
BRANCH  23  26
ATOM     26  C   UNL     1      10.339   1.813  22.796  0.00  0.00    +0.337 C 
ATOM     27  O   UNL     1      10.803   2.468  23.712  0.00  0.00    -0.245 OA
BRANCH  26  28
ATOM     28  O   UNL     1      10.175   2.298  21.548  0.00  0.00    -0.477 OA
ATOM     29  H   UNL     1       9.409   1.947  21.060  0.00  0.00    +0.295 HD
ENDBRANCH  26  28
ENDBRANCH  23  26
ENDBRANCH  18  20
ENDBRANCH  17  18
ENDBRANCH  10  17
TORSDOF 6
ENDMDL
