MODEL 1
REMARK VINA RESULT:      -8.3      0.000      0.000
REMARK  Name = 
REMARK  13 active torsions:
REMARK  status: ('A' for Active; 'I' for Inactive)
REMARK    1  A    between atoms: N_8  and  C_9
REMARK    2  A    between atoms: C_12  and  C_14
REMARK    3  A    between atoms: C_14  and  O_15
REMARK    4  A    between atoms: O_15  and  P_16
REMARK    5  A    between atoms: P_16  and  O_17
REMARK    6  A    between atoms: P_16  and  O_19
REMARK    7  A    between atoms: O_19  and  C_20
REMARK    8  A    between atoms: C_22  and  O_24
REMARK    9  A    between atoms: C_25  and  C_27
REMARK   10  A    between atoms: C_27  and  O_28
REMARK   11  A    between atoms: C_30  and  N_32
REMARK   12  A    between atoms: C_40  and  O_42
REMARK   13  A    between atoms: C_43  and  O_45
REMARK                            x       y       z     vdW  Elec       q    Type
REMARK                         _______ _______ _______ _____ _____    ______ ____
ROOT
ATOM      1  O   UNL     1       7.583  -0.456  25.976  0.00  0.00    -0.284 OA
ENDROOT
BRANCH   1   2
ATOM      2  P   UNL     1       8.105   0.545  24.829  0.00  0.00    +0.475 P 
ATOM      3  O   UNL     1       8.493  -0.120  23.550  0.00  0.00    -0.227 OA
BRANCH   2   4
ATOM      4  O   UNL     1       9.337   1.305  25.521  0.00  0.00    -0.302 OA
ATOM      5  H   UNL     1      10.104   0.707  25.560  0.00  0.00    +0.222 HD
ENDBRANCH   2   4
BRANCH   2   6
ATOM      6  O   UNL     1       7.043   1.727  24.694  0.00  0.00    -0.276 OA
BRANCH   6   7
ATOM      7  C   UNL     1       7.412   3.106  24.812  0.00  0.00    +0.211 C 
ATOM      8  C   UNL     1       8.127   3.467  23.487  0.00  0.00    +0.256 C 
ATOM      9  O   UNL     1       7.221   4.203  22.647  0.00  0.00    -0.346 OA
ATOM     10  C   UNL     1       6.047   4.556  23.403  0.00  0.00    +0.177 C 
ATOM     11  C   UNL     1       6.221   4.065  24.837  0.00  0.00    +0.179 C 
BRANCH   8  12
ATOM     12  N   UNL     1       9.429   4.162  23.547  0.00  0.00    -0.270 N 
ATOM     13  C   UNL     1      10.629   3.488  23.312  0.00  0.00    +0.352 A 
ATOM     14  O   UNL     1      10.651   2.293  23.044  0.00  0.00    -0.244 OA
ATOM     15  N   UNL     1      11.809   4.190  23.349  0.00  0.00    -0.178 NA
ATOM     16  C   UNL     1      11.812   5.444  23.647  0.00  0.00    +0.123 A 
ATOM     17  N   UNL     1      13.025   6.072  23.661  0.00  0.00    -0.343 N 
ATOM     18  H   UNL     1      13.755   5.514  23.229  0.00  0.00    +0.144 HD
ATOM     19  H   UNL     1      13.057   7.049  23.397  0.00  0.00    +0.144 HD
ATOM     20  C   UNL     1      10.581   6.196  23.955  0.00  0.00    +0.061 A 
ATOM     21  C   UNL     1       9.445   5.500  23.900  0.00  0.00    +0.096 A 
ENDBRANCH   8  12
BRANCH  11  22
ATOM     22  O   UNL     1       6.413   5.171  25.725  0.00  0.00    -0.386 OA
ATOM     23  H   UNL     1       5.949   4.983  26.572  0.00  0.00    +0.210 HD
ENDBRANCH  11  22
BRANCH  10  24
ATOM     24  C   UNL     1       4.775   3.964  22.768  0.00  0.00    +0.190 C 
BRANCH  24  25
ATOM     25  O   UNL     1       4.763   2.537  22.813  0.00  0.00    -0.392 OA
ATOM     26  H   UNL     1       5.168   2.223  21.984  0.00  0.00    +0.210 HD
ENDBRANCH  24  25
ENDBRANCH  10  24
ENDBRANCH   6   7
ENDBRANCH   2   6
ENDBRANCH   1   2
BRANCH   1  27
ATOM     27  C   UNL     1       8.389  -1.580  26.329  0.00  0.00    +0.206 C 
BRANCH  27  31
ATOM     28  C   UNL     1       7.969  -5.162  25.764  0.00  0.00    +0.253 C 
ATOM     29  C   UNL     1       9.157  -4.915  24.816  0.00  0.00    +0.195 C 
ATOM     30  C   UNL     1       9.260  -3.389  24.703  0.00  0.00    +0.178 C 
ATOM     31  C   UNL     1       8.098  -2.863  25.540  0.00  0.00    +0.178 C 
ATOM     32  O   UNL     1       7.714  -3.906  26.434  0.00  0.00    -0.346 OA
BRANCH  28  44
ATOM     33  N   UNL     1       4.115  -7.332  28.774  0.00  0.00    -0.329 N 
ATOM     34  H   UNL     1       3.647  -8.200  28.994  0.00  0.00    +0.145 HD
ATOM     35  H   UNL     1       4.901  -7.131  29.386  0.00  0.00    +0.145 HD
ATOM     36  C   UNL     1       4.403  -7.079  27.475  0.00  0.00    +0.195 A 
ATOM     37  N   UNL     1       3.513  -7.559  26.538  0.00  0.00    -0.293 N 
ATOM     38  H   UNL     1       2.687  -8.051  26.828  0.00  0.00    +0.172 HD
ATOM     39  C   UNL     1       3.635  -7.364  25.168  0.00  0.00    +0.280 A 
ATOM     40  O   UNL     1       2.820  -7.824  24.375  0.00  0.00    -0.265 OA
ATOM     41  C   UNL     1       4.813  -6.598  24.826  0.00  0.00    +0.172 A 
ATOM     42  N   UNL     1       5.288  -6.204  23.603  0.00  0.00    -0.229 NA
ATOM     43  C   UNL     1       6.412  -5.580  23.884  0.00  0.00    +0.203 A 
ATOM     44  N   UNL     1       6.684  -5.566  25.238  0.00  0.00    -0.285 N 
ATOM     45  C   UNL     1       5.642  -6.197  25.850  0.00  0.00    +0.171 A 
ATOM     46  N   UNL     1       5.482  -6.413  27.173  0.00  0.00    -0.196 NA
ENDBRANCH  28  44
BRANCH  29  47
ATOM     47  O   UNL     1      10.383  -5.424  25.389  0.00  0.00    -0.385 OA
ATOM     48  H   UNL     1      10.166  -6.152  26.002  0.00  0.00    +0.210 HD
ENDBRANCH  29  47
BRANCH  30  49
ATOM     49  O   UNL     1       9.135  -2.966  23.342  0.00  0.00    -0.386 OA
ATOM     50  H   UNL     1       8.251  -2.586  23.216  0.00  0.00    +0.210 HD
ENDBRANCH  30  49
ENDBRANCH  27  31
ENDBRANCH   1  27
TORSDOF 13
ENDMDL
MODEL 2
REMARK VINA RESULT:      -8.3      2.482     10.116
REMARK  Name = 
REMARK  13 active torsions:
REMARK  status: ('A' for Active; 'I' for Inactive)
REMARK    1  A    between atoms: N_8  and  C_9
REMARK    2  A    between atoms: C_12  and  C_14
REMARK    3  A    between atoms: C_14  and  O_15
REMARK    4  A    between atoms: O_15  and  P_16
REMARK    5  A    between atoms: P_16  and  O_17
REMARK    6  A    between atoms: P_16  and  O_19
REMARK    7  A    between atoms: O_19  and  C_20
REMARK    8  A    between atoms: C_22  and  O_24
REMARK    9  A    between atoms: C_25  and  C_27
REMARK   10  A    between atoms: C_27  and  O_28
REMARK   11  A    between atoms: C_30  and  N_32
REMARK   12  A    between atoms: C_40  and  O_42
REMARK   13  A    between atoms: C_43  and  O_45
REMARK                            x       y       z     vdW  Elec       q    Type
REMARK                         _______ _______ _______ _____ _____    ______ ____
ROOT
ATOM      1  O   UNL     1       5.535  -0.691  25.032  0.00  0.00    -0.284 OA
ENDROOT
BRANCH   1   2
ATOM      2  P   UNL     1       5.846  -1.446  26.419  0.00  0.00    +0.475 P 
ATOM      3  O   UNL     1       4.636  -1.841  27.199  0.00  0.00    -0.227 OA
BRANCH   2   4
ATOM      4  O   UNL     1       6.775  -0.409  27.215  0.00  0.00    -0.302 OA
ATOM      5  H   UNL     1       7.349  -0.897  27.831  0.00  0.00    +0.222 HD
ENDBRANCH   2   4
BRANCH   2   6
ATOM      6  O   UNL     1       6.878  -2.622  26.112  0.00  0.00    -0.276 OA
BRANCH   6   7
ATOM      7  C   UNL     1       6.523  -4.004  26.235  0.00  0.00    +0.211 C 
ATOM      8  C   UNL     1       6.495  -4.563  24.791  0.00  0.00    +0.256 C 
ATOM      9  O   UNL     1       7.698  -5.314  24.551  0.00  0.00    -0.346 OA
ATOM     10  C   UNL     1       8.409  -5.488  25.792  0.00  0.00    +0.177 C 
ATOM     11  C   UNL     1       7.593  -4.859  26.917  0.00  0.00    +0.179 C 
BRANCH   8  12
ATOM     12  N   UNL     1       5.322  -5.347  24.353  0.00  0.00    -0.270 N 
ATOM     13  C   UNL     1       4.637  -5.042  23.176  0.00  0.00    +0.352 A 
ATOM     14  O   UNL     1       4.982  -4.114  22.456  0.00  0.00    -0.244 OA
ATOM     15  N   UNL     1       3.572  -5.824  22.800  0.00  0.00    -0.178 NA
ATOM     16  C   UNL     1       3.179  -6.795  23.552  0.00  0.00    +0.123 A 
ATOM     17  N   UNL     1       2.115  -7.527  23.107  0.00  0.00    -0.343 N 
ATOM     18  H   UNL     1       1.896  -7.341  22.134  0.00  0.00    +0.144 HD
ATOM     19  H   UNL     1       2.082  -8.511  23.346  0.00  0.00    +0.144 HD
ATOM     20  C   UNL     1       3.832  -7.131  24.831  0.00  0.00    +0.061 A 
ATOM     21  C   UNL     1       4.872  -6.370  25.171  0.00  0.00    +0.096 A 
ENDBRANCH   8  12
BRANCH  11  22
ATOM     22  O   UNL     1       7.041  -5.873  27.764  0.00  0.00    -0.386 OA
ATOM     23  H   UNL     1       6.425  -5.452  28.404  0.00  0.00    +0.210 HD
ENDBRANCH  11  22
BRANCH  10  24
ATOM     24  C   UNL     1       9.818  -4.872  25.721  0.00  0.00    +0.190 C 
BRANCH  24  25
ATOM     25  O   UNL     1      10.104  -4.326  24.433  0.00  0.00    -0.392 OA
ATOM     26  H   UNL     1      10.503  -3.449  24.578  0.00  0.00    +0.210 HD
ENDBRANCH  24  25
ENDBRANCH  10  24
ENDBRANCH   6   7
ENDBRANCH   2   6
ENDBRANCH   1   2
BRANCH   1  27
ATOM     27  C   UNL     1       6.272  -1.061  23.866  0.00  0.00    +0.206 C 
BRANCH  27  31
ATOM     28  C   UNL     1       8.864   0.883  22.183  0.00  0.00    +0.253 C 
ATOM     29  C   UNL     1       9.642  -0.432  22.369  0.00  0.00    +0.195 C 
ATOM     30  C   UNL     1       8.794  -1.259  23.343  0.00  0.00    +0.178 C 
ATOM     31  C   UNL     1       7.621  -0.350  23.695  0.00  0.00    +0.178 C 
ATOM     32  O   UNL     1       7.524   0.634  22.669  0.00  0.00    -0.346 OA
BRANCH  28  44
ATOM     33  N   UNL     1       6.156   5.491  21.949  0.00  0.00    -0.329 N 
ATOM     34  H   UNL     1       6.160   6.416  21.542  0.00  0.00    +0.145 HD
ATOM     35  H   UNL     1       5.643   4.809  21.398  0.00  0.00    +0.145 HD
ATOM     36  C   UNL     1       7.332   4.997  22.406  0.00  0.00    +0.195 A 
ATOM     37  N   UNL     1       8.223   5.905  22.936  0.00  0.00    -0.293 N 
ATOM     38  H   UNL     1       7.983   6.879  22.990  0.00  0.00    +0.172 HD
ATOM     39  C   UNL     1       9.457   5.569  23.477  0.00  0.00    +0.280 A 
ATOM     40  O   UNL     1      10.219   6.420  23.926  0.00  0.00    -0.265 OA
ATOM     41  C   UNL     1       9.712   4.147  23.421  0.00  0.00    +0.172 A 
ATOM     42  N   UNL     1      10.800   3.425  23.837  0.00  0.00    -0.229 NA
ATOM     43  C   UNL     1      10.510   2.188  23.494  0.00  0.00    +0.203 A 
ATOM     44  N   UNL     1       9.285   2.087  22.866  0.00  0.00    -0.285 N 
ATOM     45  C   UNL     1       8.756   3.343  22.841  0.00  0.00    +0.171 A 
ATOM     46  N   UNL     1       7.566   3.717  22.324  0.00  0.00    -0.196 NA
ENDBRANCH  28  44
BRANCH  29  47
ATOM     47  O   UNL     1       9.746  -1.147  21.116  0.00  0.00    -0.385 OA
ATOM     48  H   UNL     1      10.623  -0.974  20.726  0.00  0.00    +0.210 HD
ENDBRANCH  29  47
BRANCH  30  49
ATOM     49  O   UNL     1       9.542  -1.599  24.514  0.00  0.00    -0.386 OA
ATOM     50  H   UNL     1       8.923  -1.902  25.198  0.00  0.00    +0.210 HD
ENDBRANCH  30  49
ENDBRANCH  27  31
ENDBRANCH   1  27
TORSDOF 13
ENDMDL
MODEL 3
REMARK VINA RESULT:      -8.3      0.825      1.960
REMARK  Name = 
REMARK  13 active torsions:
REMARK  status: ('A' for Active; 'I' for Inactive)
REMARK    1  A    between atoms: N_8  and  C_9
REMARK    2  A    between atoms: C_12  and  C_14
REMARK    3  A    between atoms: C_14  and  O_15
REMARK    4  A    between atoms: O_15  and  P_16
REMARK    5  A    between atoms: P_16  and  O_17
REMARK    6  A    between atoms: P_16  and  O_19
REMARK    7  A    between atoms: O_19  and  C_20
REMARK    8  A    between atoms: C_22  and  O_24
REMARK    9  A    between atoms: C_25  and  C_27
REMARK   10  A    between atoms: C_27  and  O_28
REMARK   11  A    between atoms: C_30  and  N_32
REMARK   12  A    between atoms: C_40  and  O_42
REMARK   13  A    between atoms: C_43  and  O_45
REMARK                            x       y       z     vdW  Elec       q    Type
REMARK                         _______ _______ _______ _____ _____    ______ ____
ROOT
ATOM      1  O   UNL     1       7.353  -0.644  25.941  0.00  0.00    -0.284 OA
ENDROOT
BRANCH   1   2
ATOM      2  P   UNL     1       8.018   0.281  24.803  0.00  0.00    +0.475 P 
ATOM      3  O   UNL     1       8.554  -0.466  23.628  0.00  0.00    -0.227 OA
BRANCH   2   4
ATOM      4  O   UNL     1       9.160   1.087  25.590  0.00  0.00    -0.302 OA
ATOM      5  H   UNL     1       9.994   1.033  25.092  0.00  0.00    +0.222 HD
ENDBRANCH   2   4
BRANCH   2   6
ATOM      6  O   UNL     1       6.986   1.448  24.463  0.00  0.00    -0.276 OA
BRANCH   6   7
ATOM      7  C   UNL     1       7.309   2.832  24.643  0.00  0.00    +0.211 C 
ATOM      8  C   UNL     1       8.032   3.268  23.345  0.00  0.00    +0.256 C 
ATOM      9  O   UNL     1       7.115   4.010  22.520  0.00  0.00    -0.346 OA
ATOM     10  C   UNL     1       5.919   4.294  23.271  0.00  0.00    +0.177 C 
ATOM     11  C   UNL     1       6.088   3.752  24.687  0.00  0.00    +0.179 C 
BRANCH   8  12
ATOM     12  N   UNL     1       9.310   4.001  23.453  0.00  0.00    -0.270 N 
ATOM     13  C   UNL     1      10.538   3.351  23.325  0.00  0.00    +0.352 A 
ATOM     14  O   UNL     1      10.607   2.146  23.114  0.00  0.00    -0.244 OA
ATOM     15  N   UNL     1      11.696   4.086  23.402  0.00  0.00    -0.178 NA
ATOM     16  C   UNL     1      11.649   5.352  23.642  0.00  0.00    +0.123 A 
ATOM     17  N   UNL     1      12.843   6.013  23.701  0.00  0.00    -0.343 N 
ATOM     18  H   UNL     1      13.613   5.456  23.342  0.00  0.00    +0.144 HD
ATOM     19  H   UNL     1      12.868   6.977  23.395  0.00  0.00    +0.144 HD
ATOM     20  C   UNL     1      10.383   6.083  23.837  0.00  0.00    +0.061 A 
ATOM     21  C   UNL     1       9.271   5.354  23.743  0.00  0.00    +0.096 A 
ENDBRANCH   8  12
BRANCH  11  22
ATOM     22  O   UNL     1       6.232   4.826  25.622  0.00  0.00    -0.386 OA
ATOM     23  H   UNL     1       5.837   4.555  26.480  0.00  0.00    +0.210 HD
ENDBRANCH  11  22
BRANCH  10  24
ATOM     24  C   UNL     1       4.676   3.689  22.592  0.00  0.00    +0.190 C 
BRANCH  24  25
ATOM     25  O   UNL     1       4.246   2.487  23.230  0.00  0.00    -0.392 OA
ATOM     26  H   UNL     1       3.776   2.748  24.042  0.00  0.00    +0.210 HD
ENDBRANCH  24  25
ENDBRANCH  10  24
ENDBRANCH   6   7
ENDBRANCH   2   6
ENDBRANCH   1   2
BRANCH   1  27
ATOM     27  C   UNL     1       8.111  -1.731  26.475  0.00  0.00    +0.206 C 
BRANCH  27  31
ATOM     28  C   UNL     1       7.779  -5.364  26.341  0.00  0.00    +0.253 C 
ATOM     29  C   UNL     1       8.881  -5.192  25.279  0.00  0.00    +0.195 C 
ATOM     30  C   UNL     1       8.919  -3.686  24.991  0.00  0.00    +0.178 C 
ATOM     31  C   UNL     1       7.807  -3.102  25.857  0.00  0.00    +0.178 C 
ATOM     32  O   UNL     1       7.531  -4.049  26.887  0.00  0.00    -0.346 OA
BRANCH  28  44
ATOM     33  N   UNL     1       6.075  -5.619  21.276  0.00  0.00    -0.329 N 
ATOM     34  H   UNL     1       5.461  -5.183  20.602  0.00  0.00    +0.145 HD
ATOM     35  H   UNL     1       7.021  -5.250  21.260  0.00  0.00    +0.145 HD
ATOM     36  C   UNL     1       5.613  -5.782  22.539  0.00  0.00    +0.195 A 
ATOM     37  N   UNL     1       4.263  -6.024  22.680  0.00  0.00    -0.293 N 
ATOM     38  H   UNL     1       3.673  -6.093  21.869  0.00  0.00    +0.172 HD
ATOM     39  C   UNL     1       3.628  -6.246  23.895  0.00  0.00    +0.280 A 
ATOM     40  O   UNL     1       2.420  -6.446  23.966  0.00  0.00    -0.265 OA
ATOM     41  C   UNL     1       4.546  -6.192  25.011  0.00  0.00    +0.172 A 
ATOM     42  N   UNL     1       4.318  -6.349  26.353  0.00  0.00    -0.229 NA
ATOM     43  C   UNL     1       5.498  -6.149  26.902  0.00  0.00    +0.203 A 
ATOM     44  N   UNL     1       6.472  -5.860  25.967  0.00  0.00    -0.285 N 
ATOM     45  C   UNL     1       5.868  -5.914  24.746  0.00  0.00    +0.171 A 
ATOM     46  N   UNL     1       6.442  -5.702  23.543  0.00  0.00    -0.196 NA
ENDBRANCH  28  44
BRANCH  29  47
ATOM     47  O   UNL     1      10.165  -5.600  25.804  0.00  0.00    -0.385 OA
ATOM     48  H   UNL     1      10.373  -6.492  25.468  0.00  0.00    +0.210 HD
ENDBRANCH  29  47
BRANCH  30  49
ATOM     49  O   UNL     1       8.675  -3.422  23.607  0.00  0.00    -0.386 OA
ATOM     50  H   UNL     1       8.244  -4.199  23.215  0.00  0.00    +0.210 HD
ENDBRANCH  30  49
ENDBRANCH  27  31
ENDBRANCH   1  27
TORSDOF 13
ENDMDL
MODEL 4
REMARK VINA RESULT:      -8.2      3.017      8.695
REMARK  Name = 
REMARK  13 active torsions:
REMARK  status: ('A' for Active; 'I' for Inactive)
REMARK    1  A    between atoms: N_8  and  C_9
REMARK    2  A    between atoms: C_12  and  C_14
REMARK    3  A    between atoms: C_14  and  O_15
REMARK    4  A    between atoms: O_15  and  P_16
REMARK    5  A    between atoms: P_16  and  O_17
REMARK    6  A    between atoms: P_16  and  O_19
REMARK    7  A    between atoms: O_19  and  C_20
REMARK    8  A    between atoms: C_22  and  O_24
REMARK    9  A    between atoms: C_25  and  C_27
REMARK   10  A    between atoms: C_27  and  O_28
REMARK   11  A    between atoms: C_30  and  N_32
REMARK   12  A    between atoms: C_40  and  O_42
REMARK   13  A    between atoms: C_43  and  O_45
REMARK                            x       y       z     vdW  Elec       q    Type
REMARK                         _______ _______ _______ _____ _____    ______ ____
ROOT
ATOM      1  O   UNL     1       8.830  -0.075  21.631  0.00  0.00    -0.284 OA
ENDROOT
BRANCH   1   2
ATOM      2  P   UNL     1       9.822  -0.856  22.630  0.00  0.00    +0.475 P 
ATOM      3  O   UNL     1      10.550   0.020  23.595  0.00  0.00    -0.227 OA
BRANCH   2   4
ATOM      4  O   UNL     1      10.816  -1.638  21.643  0.00  0.00    -0.302 OA
ATOM      5  H   UNL     1      11.291  -0.995  21.088  0.00  0.00    +0.222 HD
ENDBRANCH   2   4
BRANCH   2   6
ATOM      6  O   UNL     1       9.008  -2.063  23.279  0.00  0.00    -0.276 OA
BRANCH   6   7
ATOM      7  C   UNL     1       7.594  -2.000  23.504  0.00  0.00    +0.211 C 
ATOM      8  C   UNL     1       7.250  -3.237  24.371  0.00  0.00    +0.256 C 
ATOM      9  O   UNL     1       7.075  -2.822  25.737  0.00  0.00    -0.346 OA
ATOM     10  C   UNL     1       7.048  -1.383  25.800  0.00  0.00    +0.177 C 
ATOM     11  C   UNL     1       7.159  -0.828  24.384  0.00  0.00    +0.179 C 
BRANCH   8  12
ATOM     12  N   UNL     1       6.123  -4.101  23.963  0.00  0.00    -0.270 N 
ATOM     13  C   UNL     1       6.324  -5.248  23.194  0.00  0.00    +0.352 A 
ATOM     14  O   UNL     1       7.442  -5.587  22.827  0.00  0.00    -0.244 OA
ATOM     15  N   UNL     1       5.245  -6.034  22.870  0.00  0.00    -0.178 NA
ATOM     16  C   UNL     1       4.056  -5.687  23.229  0.00  0.00    +0.123 A 
ATOM     17  N   UNL     1       3.035  -6.522  22.870  0.00  0.00    -0.343 N 
ATOM     18  H   UNL     1       3.369  -7.422  22.541  0.00  0.00    +0.144 HD
ATOM     19  H   UNL     1       2.238  -6.590  23.490  0.00  0.00    +0.144 HD
ATOM     20  C   UNL     1       3.778  -4.459  23.998  0.00  0.00    +0.061 A 
ATOM     21  C   UNL     1       4.840  -3.719  24.314  0.00  0.00    +0.096 A 
ENDBRANCH   8  12
BRANCH  11  22
ATOM     22  O   UNL     1       5.915  -0.252  23.972  0.00  0.00    -0.386 OA
ATOM     23  H   UNL     1       5.783   0.597  24.451  0.00  0.00    +0.210 HD
ENDBRANCH  11  22
BRANCH  10  24
ATOM     24  C   UNL     1       8.178  -0.842  26.696  0.00  0.00    +0.190 C 
BRANCH  24  25
ATOM     25  O   UNL     1       8.856   0.263  26.100  0.00  0.00    -0.392 OA
ATOM     26  H   UNL     1       8.295   0.581  25.369  0.00  0.00    +0.210 HD
ENDBRANCH  24  25
ENDBRANCH  10  24
ENDBRANCH   6   7
ENDBRANCH   2   6
ENDBRANCH   1   2
BRANCH   1  27
ATOM     27  C   UNL     1       8.979   1.336  21.476  0.00  0.00    +0.206 C 
BRANCH  27  31
ATOM     28  C   UNL     1       6.835   4.023  22.705  0.00  0.00    +0.253 C 
ATOM     29  C   UNL     1       8.147   4.437  23.398  0.00  0.00    +0.195 C 
ATOM     30  C   UNL     1       9.078   3.230  23.231  0.00  0.00    +0.178 C 
ATOM     31  C   UNL     1       8.230   2.188  22.508  0.00  0.00    +0.178 C 
ATOM     32  O   UNL     1       7.154   2.880  21.879  0.00  0.00    -0.346 OA
BRANCH  28  44
ATOM     33  N   UNL     1       7.202   2.397  27.789  0.00  0.00    -0.329 N 
ATOM     34  H   UNL     1       7.177   1.581  28.385  0.00  0.00    +0.145 HD
ATOM     35  H   UNL     1       8.138   2.644  27.481  0.00  0.00    +0.145 HD
ATOM     36  C   UNL     1       6.298   2.473  26.782  0.00  0.00    +0.195 A 
ATOM     37  N   UNL     1       5.060   1.912  27.017  0.00  0.00    -0.293 N 
ATOM     38  H   UNL     1       4.854   1.492  27.906  0.00  0.00    +0.172 HD
ATOM     39  C   UNL     1       4.008   1.927  26.111  0.00  0.00    +0.280 A 
ATOM     40  O   UNL     1       2.928   1.402  26.365  0.00  0.00    -0.265 OA
ATOM     41  C   UNL     1       4.354   2.599  24.879  0.00  0.00    +0.172 A 
ATOM     42  N   UNL     1       3.610   2.819  23.749  0.00  0.00    -0.229 NA
ATOM     43  C   UNL     1       4.441   3.430  22.933  0.00  0.00    +0.203 A 
ATOM     44  N   UNL     1       5.694   3.604  23.489  0.00  0.00    -0.285 N 
ATOM     45  C   UNL     1       5.633   3.095  24.752  0.00  0.00    +0.171 A 
ATOM     46  N   UNL     1       6.628   3.054  25.663  0.00  0.00    -0.196 NA
ENDBRANCH  28  44
BRANCH  29  47
ATOM     47  O   UNL     1       8.738   5.578  22.735  0.00  0.00    -0.385 OA
ATOM     48  H   UNL     1       8.765   5.405  21.775  0.00  0.00    +0.210 HD
ENDBRANCH  29  47
BRANCH  30  49
ATOM     49  O   UNL     1       9.513   2.737  24.501  0.00  0.00    -0.386 OA
ATOM     50  H   UNL     1       9.601   1.772  24.444  0.00  0.00    +0.210 HD
ENDBRANCH  30  49
ENDBRANCH  27  31
ENDBRANCH   1  27
TORSDOF 13
ENDMDL
MODEL 5
REMARK VINA RESULT:      -8.2      2.784      9.241
REMARK  Name = 
REMARK  13 active torsions:
REMARK  status: ('A' for Active; 'I' for Inactive)
REMARK    1  A    between atoms: N_8  and  C_9
REMARK    2  A    between atoms: C_12  and  C_14
REMARK    3  A    between atoms: C_14  and  O_15
REMARK    4  A    between atoms: O_15  and  P_16
REMARK    5  A    between atoms: P_16  and  O_17
REMARK    6  A    between atoms: P_16  and  O_19
REMARK    7  A    between atoms: O_19  and  C_20
REMARK    8  A    between atoms: C_22  and  O_24
REMARK    9  A    between atoms: C_25  and  C_27
REMARK   10  A    between atoms: C_27  and  O_28
REMARK   11  A    between atoms: C_30  and  N_32
REMARK   12  A    between atoms: C_40  and  O_42
REMARK   13  A    between atoms: C_43  and  O_45
REMARK                            x       y       z     vdW  Elec       q    Type
REMARK                         _______ _______ _______ _____ _____    ______ ____
ROOT
ATOM      1  O   UNL     1       5.550  -0.647  27.709  0.00  0.00    -0.284 OA
ENDROOT
BRANCH   1   2
ATOM      2  P   UNL     1       5.120  -1.765  26.632  0.00  0.00    +0.475 P 
ATOM      3  O   UNL     1       4.514  -1.224  25.380  0.00  0.00    -0.227 OA
BRANCH   2   4
ATOM      4  O   UNL     1       4.106  -2.705  27.447  0.00  0.00    -0.302 OA
ATOM      5  H   UNL     1       3.302  -2.846  26.918  0.00  0.00    +0.222 HD
ENDBRANCH   2   4
BRANCH   2   6
ATOM      6  O   UNL     1       6.361  -2.744  26.427  0.00  0.00    -0.276 OA
BRANCH   6   7
ATOM      7  C   UNL     1       6.213  -4.168  26.376  0.00  0.00    +0.211 C 
ATOM      8  C   UNL     1       6.077  -4.525  24.876  0.00  0.00    +0.256 C 
ATOM      9  O   UNL     1       7.329  -5.047  24.398  0.00  0.00    -0.346 OA
ATOM     10  C   UNL     1       8.208  -5.278  25.515  0.00  0.00    +0.177 C 
ATOM     11  C   UNL     1       7.465  -4.936  26.803  0.00  0.00    +0.179 C 
BRANCH   8  12
ATOM     12  N   UNL     1       4.973  -5.411  24.452  0.00  0.00    -0.270 N 
ATOM     13  C   UNL     1       4.267  -5.185  23.270  0.00  0.00    +0.352 A 
ATOM     14  O   UNL     1       4.535  -4.244  22.533  0.00  0.00    -0.244 OA
ATOM     15  N   UNL     1       3.271  -6.058  22.907  0.00  0.00    -0.178 NA
ATOM     16  C   UNL     1       2.958  -7.045  23.676  0.00  0.00    +0.123 A 
ATOM     17  N   UNL     1       1.958  -7.870  23.245  0.00  0.00    -0.343 N 
ATOM     18  H   UNL     1       1.726  -7.720  22.268  0.00  0.00    +0.144 HD
ATOM     19  H   UNL     1       2.007  -8.848  23.501  0.00  0.00    +0.144 HD
ATOM     20  C   UNL     1       3.634  -7.303  24.962  0.00  0.00    +0.061 A 
ATOM     21  C   UNL     1       4.608  -6.453  25.288  0.00  0.00    +0.096 A 
ENDBRANCH   8  12
BRANCH  11  22
ATOM     22  O   UNL     1       7.167  -6.126  27.541  0.00  0.00    -0.386 OA
ATOM     23  H   UNL     1       6.640  -5.884  28.335  0.00  0.00    +0.210 HD
ENDBRANCH  11  22
BRANCH  10  24
ATOM     24  C   UNL     1       9.502  -4.452  25.388  0.00  0.00    +0.190 C 
BRANCH  24  25
ATOM     25  O   UNL     1      10.627  -5.261  25.045  0.00  0.00    -0.392 OA
ATOM     26  H   UNL     1      10.633  -6.015  25.661  0.00  0.00    +0.210 HD
ENDBRANCH  24  25
ENDBRANCH  10  24
ENDBRANCH   6   7
ENDBRANCH   2   6
ENDBRANCH   1   2
BRANCH   1  27
ATOM     27  C   UNL     1       5.497   0.729  27.331  0.00  0.00    +0.206 C 
BRANCH  27  31
ATOM     28  C   UNL     1       8.039   2.320  25.249  0.00  0.00    +0.253 C 
ATOM     29  C   UNL     1       6.788   2.966  24.624  0.00  0.00    +0.195 C 
ATOM     30  C   UNL     1       5.608   2.163  25.185  0.00  0.00    +0.178 C 
ATOM     31  C   UNL     1       6.254   1.081  26.044  0.00  0.00    +0.178 C 
ATOM     32  O   UNL     1       7.572   1.523  26.362  0.00  0.00    -0.346 OA
BRANCH  28  44
ATOM     33  N   UNL     1       6.099  -1.915  22.619  0.00  0.00    -0.329 N 
ATOM     34  H   UNL     1       6.033  -2.924  22.638  0.00  0.00    +0.145 HD
ATOM     35  H   UNL     1       5.314  -1.450  23.067  0.00  0.00    +0.145 HD
ATOM     36  C   UNL     1       7.284  -1.352  22.956  0.00  0.00    +0.195 A 
ATOM     37  N   UNL     1       8.421  -2.056  22.621  0.00  0.00    -0.293 N 
ATOM     38  H   UNL     1       8.352  -2.931  22.133  0.00  0.00    +0.172 HD
ATOM     39  C   UNL     1       9.716  -1.614  22.862  0.00  0.00    +0.280 A 
ATOM     40  O   UNL     1      10.696  -2.285  22.554  0.00  0.00    -0.265 OA
ATOM     41  C   UNL     1       9.743  -0.322  23.511  0.00  0.00    +0.172 A 
ATOM     42  N   UNL     1      10.804   0.443  23.918  0.00  0.00    -0.229 NA
ATOM     43  C   UNL     1      10.244   1.488  24.488  0.00  0.00    +0.203 A 
ATOM     44  N   UNL     1       8.864   1.421  24.473  0.00  0.00    -0.285 N 
ATOM     45  C   UNL     1       8.538   0.270  23.820  0.00  0.00    +0.171 A 
ATOM     46  N   UNL     1       7.299  -0.201  23.568  0.00  0.00    -0.196 NA
ENDBRANCH  28  44
BRANCH  29  47
ATOM     47  O   UNL     1       6.659   4.343  25.045  0.00  0.00    -0.385 OA
ATOM     48  H   UNL     1       7.394   4.859  24.664  0.00  0.00    +0.210 HD
ENDBRANCH  29  47
BRANCH  30  49
ATOM     49  O   UNL     1       4.836   1.580  24.131  0.00  0.00    -0.386 OA
ATOM     50  H   UNL     1       4.617   2.274  23.488  0.00  0.00    +0.210 HD
ENDBRANCH  30  49
ENDBRANCH  27  31
ENDBRANCH   1  27
TORSDOF 13
ENDMDL
MODEL 6
REMARK VINA RESULT:      -8.2      1.601      2.387
REMARK  Name = 
REMARK  13 active torsions:
REMARK  status: ('A' for Active; 'I' for Inactive)
REMARK    1  A    between atoms: N_8  and  C_9
REMARK    2  A    between atoms: C_12  and  C_14
REMARK    3  A    between atoms: C_14  and  O_15
REMARK    4  A    between atoms: O_15  and  P_16
REMARK    5  A    between atoms: P_16  and  O_17
REMARK    6  A    between atoms: P_16  and  O_19
REMARK    7  A    between atoms: O_19  and  C_20
REMARK    8  A    between atoms: C_22  and  O_24
REMARK    9  A    between atoms: C_25  and  C_27
REMARK   10  A    between atoms: C_27  and  O_28
REMARK   11  A    between atoms: C_30  and  N_32
REMARK   12  A    between atoms: C_40  and  O_42
REMARK   13  A    between atoms: C_43  and  O_45
REMARK                            x       y       z     vdW  Elec       q    Type
REMARK                         _______ _______ _______ _____ _____    ______ ____
ROOT
ATOM      1  O   UNL     1       7.982   0.238  26.728  0.00  0.00    -0.284 OA
ENDROOT
BRANCH   1   2
ATOM      2  P   UNL     1       6.932   1.458  26.713  0.00  0.00    +0.475 P 
ATOM      3  O   UNL     1       7.151   2.482  27.776  0.00  0.00    -0.227 OA
BRANCH   2   4
ATOM      4  O   UNL     1       5.507   0.733  26.845  0.00  0.00    -0.302 OA
ATOM      5  H   UNL     1       5.635  -0.232  26.843  0.00  0.00    +0.222 HD
ENDBRANCH   2   4
BRANCH   2   6
ATOM      6  O   UNL     1       6.862   2.020  25.222  0.00  0.00    -0.276 OA
BRANCH   6   7
ATOM      7  C   UNL     1       7.222   3.367  24.894  0.00  0.00    +0.211 C 
ATOM      8  C   UNL     1       8.116   3.269  23.633  0.00  0.00    +0.256 C 
ATOM      9  O   UNL     1       7.341   3.626  22.475  0.00  0.00    -0.346 OA
ATOM     10  C   UNL     1       6.077   4.173  22.896  0.00  0.00    +0.177 C 
ATOM     11  C   UNL     1       6.048   4.225  24.420  0.00  0.00    +0.179 C 
BRANCH   8  12
ATOM     12  N   UNL     1       9.404   3.993  23.615  0.00  0.00    -0.270 N 
ATOM     13  C   UNL     1      10.615   3.326  23.427  0.00  0.00    +0.352 A 
ATOM     14  O   UNL     1      10.660   2.112  23.266  0.00  0.00    -0.244 OA
ATOM     15  N   UNL     1      11.780   4.051  23.386  0.00  0.00    -0.178 NA
ATOM     16  C   UNL     1      11.760   5.327  23.571  0.00  0.00    +0.123 A 
ATOM     17  N   UNL     1      12.959   5.978  23.514  0.00  0.00    -0.343 N 
ATOM     18  H   UNL     1      13.696   5.399  23.125  0.00  0.00    +0.144 HD
ATOM     19  H   UNL     1      12.967   6.928  23.164  0.00  0.00    +0.144 HD
ATOM     20  C   UNL     1      10.516   6.079  23.826  0.00  0.00    +0.061 A 
ATOM     21  C   UNL     1       9.395   5.357  23.846  0.00  0.00    +0.096 A 
ENDBRANCH   8  12
BRANCH  11  22
ATOM     22  O   UNL     1       6.126   5.579  24.878  0.00  0.00    -0.386 OA
ATOM     23  H   UNL     1       5.810   6.175  24.162  0.00  0.00    +0.210 HD
ENDBRANCH  11  22
BRANCH  10  24
ATOM     24  C   UNL     1       4.900   3.345  22.349  0.00  0.00    +0.190 C 
BRANCH  24  25
ATOM     25  O   UNL     1       4.576   2.243  23.197  0.00  0.00    -0.392 OA
ATOM     26  H   UNL     1       5.417   1.887  23.534  0.00  0.00    +0.210 HD
ENDBRANCH  24  25
ENDBRANCH  10  24
ENDBRANCH   6   7
ENDBRANCH   2   6
ENDBRANCH   1   2
BRANCH   1  27
ATOM     27  C   UNL     1       8.757  -0.018  25.555  0.00  0.00    +0.206 C 
BRANCH  27  31
ATOM     28  C   UNL     1       8.319  -2.836  23.276  0.00  0.00    +0.253 C 
ATOM     29  C   UNL     1       8.363  -1.700  22.237  0.00  0.00    +0.195 C 
ATOM     30  C   UNL     1       8.232  -0.411  23.056  0.00  0.00    +0.178 C 
ATOM     31  C   UNL     1       8.066  -0.887  24.496  0.00  0.00    +0.178 C 
ATOM     32  O   UNL     1       8.566  -2.221  24.561  0.00  0.00    -0.346 OA
BRANCH  28  44
ATOM     33  N   UNL     1       7.448  -5.916  27.562  0.00  0.00    -0.329 N 
ATOM     34  H   UNL     1       7.421  -6.874  27.882  0.00  0.00    +0.145 HD
ATOM     35  H   UNL     1       8.356  -5.475  27.684  0.00  0.00    +0.145 HD
ATOM     36  C   UNL     1       6.905  -5.637  26.352  0.00  0.00    +0.195 A 
ATOM     37  N   UNL     1       5.810  -6.386  25.977  0.00  0.00    -0.293 N 
ATOM     38  H   UNL     1       5.437  -7.085  26.595  0.00  0.00    +0.172 HD
ATOM     39  C   UNL     1       5.112  -6.213  24.789  0.00  0.00    +0.280 A 
ATOM     40  O   UNL     1       4.149  -6.916  24.497  0.00  0.00    -0.265 OA
ATOM     41  C   UNL     1       5.665  -5.153  23.976  0.00  0.00    +0.172 A 
ATOM     42  N   UNL     1       5.276  -4.682  22.750  0.00  0.00    -0.229 NA
ATOM     43  C   UNL     1       6.163  -3.751  22.471  0.00  0.00    +0.203 A 
ATOM     44  N   UNL     1       7.113  -3.612  23.463  0.00  0.00    -0.285 N 
ATOM     45  C   UNL     1       6.779  -4.494  24.447  0.00  0.00    +0.171 A 
ATOM     46  N   UNL     1       7.428  -4.700  25.613  0.00  0.00    -0.196 NA
ENDBRANCH  28  44
BRANCH  29  47
ATOM     47  O   UNL     1       9.632  -1.687  21.545  0.00  0.00    -0.385 OA
ATOM     48  H   UNL     1      10.228  -2.333  21.969  0.00  0.00    +0.210 HD
ENDBRANCH  29  47
BRANCH  30  49
ATOM     49  O   UNL     1       7.094   0.349  22.640  0.00  0.00    -0.386 OA
ATOM     50  H   UNL     1       7.249   0.668  21.736  0.00  0.00    +0.210 HD
ENDBRANCH  30  49
ENDBRANCH  27  31
ENDBRANCH   1  27
TORSDOF 13
ENDMDL
MODEL 7
REMARK VINA RESULT:      -8.1      2.804      9.692
REMARK  Name = 
REMARK  13 active torsions:
REMARK  status: ('A' for Active; 'I' for Inactive)
REMARK    1  A    between atoms: N_8  and  C_9
REMARK    2  A    between atoms: C_12  and  C_14
REMARK    3  A    between atoms: C_14  and  O_15
REMARK    4  A    between atoms: O_15  and  P_16
REMARK    5  A    between atoms: P_16  and  O_17
REMARK    6  A    between atoms: P_16  and  O_19
REMARK    7  A    between atoms: O_19  and  C_20
REMARK    8  A    between atoms: C_22  and  O_24
REMARK    9  A    between atoms: C_25  and  C_27
REMARK   10  A    between atoms: C_27  and  O_28
REMARK   11  A    between atoms: C_30  and  N_32
REMARK   12  A    between atoms: C_40  and  O_42
REMARK   13  A    between atoms: C_43  and  O_45
REMARK                            x       y       z     vdW  Elec       q    Type
REMARK                         _______ _______ _______ _____ _____    ______ ____
ROOT
ATOM      1  O   UNL     1       8.957  -3.809  26.304  0.00  0.00    -0.284 OA
ENDROOT
BRANCH   1   2
ATOM      2  P   UNL     1       8.271  -5.250  26.093  0.00  0.00    +0.475 P 
ATOM      3  O   UNL     1       7.565  -5.786  27.293  0.00  0.00    -0.227 OA
BRANCH   2   4
ATOM      4  O   UNL     1       9.490  -6.186  25.631  0.00  0.00    -0.302 OA
ATOM      5  H   UNL     1       9.517  -6.223  24.658  0.00  0.00    +0.222 HD
ENDBRANCH   2   4
BRANCH   2   6
ATOM      6  O   UNL     1       7.402  -5.183  24.758  0.00  0.00    -0.276 OA
BRANCH   6   7
ATOM      7  C   UNL     1       6.003  -5.491  24.739  0.00  0.00    +0.211 C 
ATOM      8  C   UNL     1       5.285  -4.167  24.378  0.00  0.00    +0.256 C 
ATOM      9  O   UNL     1       4.895  -4.204  22.994  0.00  0.00    -0.346 OA
ATOM     10  C   UNL     1       5.093  -5.533  22.476  0.00  0.00    +0.177 C 
ATOM     11  C   UNL     1       5.590  -6.430  23.605  0.00  0.00    +0.179 C 
BRANCH   8  12
ATOM     12  N   UNL     1       4.143  -3.727  25.206  0.00  0.00    -0.270 N 
ATOM     13  C   UNL     1       4.000  -2.397  25.605  0.00  0.00    +0.352 A 
ATOM     14  O   UNL     1       4.813  -1.540  25.283  0.00  0.00    -0.244 OA
ATOM     15  N   UNL     1       2.902  -2.036  26.348  0.00  0.00    -0.178 NA
ATOM     16  C   UNL     1       2.043  -2.924  26.714  0.00  0.00    +0.123 A 
ATOM     17  N   UNL     1       0.978  -2.486  27.449  0.00  0.00    -0.343 N 
ATOM     18  H   UNL     1       0.889  -1.475  27.438  0.00  0.00    +0.144 HD
ATOM     19  H   UNL     1       0.094  -2.968  27.339  0.00  0.00    +0.144 HD
ATOM     20  C   UNL     1       2.170  -4.352  26.366  0.00  0.00    +0.061 A 
ATOM     21  C   UNL     1       3.234  -4.679  25.633  0.00  0.00    +0.096 A 
ENDBRANCH   8  12
BRANCH  11  22
ATOM     22  O   UNL     1       4.573  -7.360  23.992  0.00  0.00    -0.386 OA
ATOM     23  H   UNL     1       4.925  -8.273  23.898  0.00  0.00    +0.210 HD
ENDBRANCH  11  22
BRANCH  10  24
ATOM     24  C   UNL     1       6.081  -5.532  21.295  0.00  0.00    +0.190 C 
BRANCH  24  25
ATOM     25  O   UNL     1       7.425  -5.766  21.716  0.00  0.00    -0.392 OA
ATOM     26  H   UNL     1       7.582  -6.725  21.648  0.00  0.00    +0.210 HD
ENDBRANCH  24  25
ENDBRANCH  10  24
ENDBRANCH   6   7
ENDBRANCH   2   6
ENDBRANCH   1   2
BRANCH   1  27
ATOM     27  C   UNL     1       8.134  -2.643  26.275  0.00  0.00    +0.206 C 
BRANCH  27  31
ATOM     28  C   UNL     1       7.898   0.458  24.363  0.00  0.00    +0.253 C 
ATOM     29  C   UNL     1       7.592  -0.538  23.230  0.00  0.00    +0.195 C 
ATOM     30  C   UNL     1       7.958  -1.912  23.803  0.00  0.00    +0.178 C 
ATOM     31  C   UNL     1       8.499  -1.614  25.198  0.00  0.00    +0.178 C 
ATOM     32  O   UNL     1       8.017  -0.326  25.572  0.00  0.00    -0.346 OA
BRANCH  28  44
ATOM     33  N   UNL     1       7.871   5.727  23.435  0.00  0.00    -0.329 N 
ATOM     34  H   UNL     1       8.075   6.431  22.739  0.00  0.00    +0.145 HD
ATOM     35  H   UNL     1       6.905   5.411  23.420  0.00  0.00    +0.145 HD
ATOM     36  C   UNL     1       8.742   4.697  23.568  0.00  0.00    +0.195 A 
ATOM     37  N   UNL     1      10.072   4.977  23.339  0.00  0.00    -0.293 N 
ATOM     38  H   UNL     1      10.361   5.911  23.105  0.00  0.00    +0.172 HD
ATOM     39  C   UNL     1      11.100   4.052  23.461  0.00  0.00    +0.280 A 
ATOM     40  O   UNL     1      12.269   4.350  23.233  0.00  0.00    -0.265 OA
ATOM     41  C   UNL     1      10.620   2.747  23.856  0.00  0.00    +0.172 A 
ATOM     42  N   UNL     1      11.304   1.580  24.074  0.00  0.00    -0.229 NA
ATOM     43  C   UNL     1      10.362   0.707  24.361  0.00  0.00    +0.203 A 
ATOM     44  N   UNL     1       9.098   1.264  24.327  0.00  0.00    -0.285 N 
ATOM     45  C   UNL     1       9.263   2.584  24.029  0.00  0.00    +0.171 A 
ATOM     46  N   UNL     1       8.297   3.517  23.896  0.00  0.00    -0.196 NA
ENDBRANCH  28  44
BRANCH  29  47
ATOM     47  O   UNL     1       6.183  -0.527  22.905  0.00  0.00    -0.385 OA
ATOM     48  H   UNL     1       5.887  -1.445  22.757  0.00  0.00    +0.210 HD
ENDBRANCH  29  47
BRANCH  30  49
ATOM     49  O   UNL     1       8.952  -2.555  23.000  0.00  0.00    -0.386 OA
ATOM     50  H   UNL     1       9.784  -2.581  23.500  0.00  0.00    +0.210 HD
ENDBRANCH  30  49
ENDBRANCH  27  31
ENDBRANCH   1  27
TORSDOF 13
ENDMDL
MODEL 8
REMARK VINA RESULT:      -8.1      3.157      4.890
REMARK  Name = 
REMARK  13 active torsions:
REMARK  status: ('A' for Active; 'I' for Inactive)
REMARK    1  A    between atoms: N_8  and  C_9
REMARK    2  A    between atoms: C_12  and  C_14
REMARK    3  A    between atoms: C_14  and  O_15
REMARK    4  A    between atoms: O_15  and  P_16
REMARK    5  A    between atoms: P_16  and  O_17
REMARK    6  A    between atoms: P_16  and  O_19
REMARK    7  A    between atoms: O_19  and  C_20
REMARK    8  A    between atoms: C_22  and  O_24
REMARK    9  A    between atoms: C_25  and  C_27
REMARK   10  A    between atoms: C_27  and  O_28
REMARK   11  A    between atoms: C_30  and  N_32
REMARK   12  A    between atoms: C_40  and  O_42
REMARK   13  A    between atoms: C_43  and  O_45
REMARK                            x       y       z     vdW  Elec       q    Type
REMARK                         _______ _______ _______ _____ _____    ______ ____
ROOT
ATOM      1  O   UNL     1       8.438  -4.474  26.245  0.00  0.00    -0.284 OA
ENDROOT
BRANCH   1   2
ATOM      2  P   UNL     1       9.271  -4.870  24.926  0.00  0.00    +0.475 P 
ATOM      3  O   UNL     1       8.569  -5.810  24.004  0.00  0.00    -0.227 OA
BRANCH   2   4
ATOM      4  O   UNL     1      10.632  -5.487  25.510  0.00  0.00    -0.302 OA
ATOM      5  H   UNL     1      10.643  -6.448  25.355  0.00  0.00    +0.222 HD
ENDBRANCH   2   4
BRANCH   2   6
ATOM      6  O   UNL     1       9.798  -3.520  24.261  0.00  0.00    -0.276 OA
BRANCH   6   7
ATOM      7  C   UNL     1       9.010  -2.325  24.228  0.00  0.00    +0.211 C 
ATOM      8  C   UNL     1       9.419  -1.586  22.930  0.00  0.00    +0.256 C 
ATOM      9  O   UNL     1       8.407  -1.794  21.929  0.00  0.00    -0.346 OA
ATOM     10  C   UNL     1       7.257  -2.416  22.532  0.00  0.00    +0.177 C 
ATOM     11  C   UNL     1       7.514  -2.574  24.028  0.00  0.00    +0.179 C 
BRANCH   8  12
ATOM     12  N   UNL     1       9.759  -0.150  23.004  0.00  0.00    -0.270 N 
ATOM     13  C   UNL     1      10.155   0.446  24.202  0.00  0.00    +0.352 A 
ATOM     14  O   UNL     1      10.241  -0.198  25.241  0.00  0.00    -0.244 OA
ATOM     15  N   UNL     1      10.491   1.777  24.209  0.00  0.00    -0.178 NA
ATOM     16  C   UNL     1      10.391   2.480  23.132  0.00  0.00    +0.123 A 
ATOM     17  N   UNL     1      10.746   3.796  23.219  0.00  0.00    -0.343 N 
ATOM     18  H   UNL     1      11.243   4.007  24.079  0.00  0.00    +0.144 HD
ATOM     19  H   UNL     1      11.152   4.233  22.402  0.00  0.00    +0.144 HD
ATOM     20  C   UNL     1       9.929   1.916  21.850  0.00  0.00    +0.061 A 
ATOM     21  C   UNL     1       9.622   0.619  21.862  0.00  0.00    +0.096 A 
ENDBRANCH   8  12
BRANCH  11  22
ATOM     22  O   UNL     1       6.692  -1.672  24.776  0.00  0.00    -0.386 OA
ATOM     23  H   UNL     1       5.936  -2.172  25.157  0.00  0.00    +0.210 HD
ENDBRANCH  11  22
BRANCH  10  24
ATOM     24  C   UNL     1       6.949  -3.775  21.878  0.00  0.00    +0.190 C 
BRANCH  24  25
ATOM     25  O   UNL     1       5.597  -3.863  21.426  0.00  0.00    -0.392 OA
ATOM     26  H   UNL     1       5.545  -4.633  20.832  0.00  0.00    +0.210 HD
ENDBRANCH  24  25
ENDBRANCH  10  24
ENDBRANCH   6   7
ENDBRANCH   2   6
ENDBRANCH   1   2
BRANCH   1  27
ATOM     27  C   UNL     1       7.827  -5.513  27.012  0.00  0.00    +0.206 C 
BRANCH  27  31
ATOM     28  C   UNL     1       4.373  -4.359  26.758  0.00  0.00    +0.253 C 
ATOM     29  C   UNL     1       4.248  -5.183  28.053  0.00  0.00    +0.195 C 
ATOM     30  C   UNL     1       5.548  -5.993  28.131  0.00  0.00    +0.178 C 
ATOM     31  C   UNL     1       6.305  -5.627  26.858  0.00  0.00    +0.178 C 
ATOM     32  O   UNL     1       5.770  -4.392  26.387  0.00  0.00    -0.346 OA
BRANCH  28  44
ATOM     33  N   UNL     1       1.517  -8.869  26.415  0.00  0.00    -0.329 N 
ATOM     34  H   UNL     1       1.516  -9.804  26.030  0.00  0.00    +0.145 HD
ATOM     35  H   UNL     1       1.896  -8.821  27.357  0.00  0.00    +0.145 HD
ATOM     36  C   UNL     1       1.970  -7.862  25.631  0.00  0.00    +0.195 A 
ATOM     37  N   UNL     1       1.733  -7.975  24.278  0.00  0.00    -0.293 N 
ATOM     38  H   UNL     1       1.229  -8.765  23.915  0.00  0.00    +0.172 HD
ATOM     39  C   UNL     1       2.099  -7.023  23.335  0.00  0.00    +0.280 A 
ATOM     40  O   UNL     1       1.875  -7.179  22.139  0.00  0.00    -0.265 OA
ATOM     41  C   UNL     1       2.766  -5.887  23.932  0.00  0.00    +0.172 A 
ATOM     42  N   UNL     1       3.280  -4.757  23.353  0.00  0.00    -0.229 NA
ATOM     43  C   UNL     1       3.809  -4.096  24.361  0.00  0.00    +0.203 A 
ATOM     44  N   UNL     1       3.665  -4.761  25.562  0.00  0.00    -0.285 N 
ATOM     45  C   UNL     1       2.969  -5.902  25.294  0.00  0.00    +0.171 A 
ATOM     46  N   UNL     1       2.596  -6.855  26.174  0.00  0.00    -0.196 NA
ENDBRANCH  28  44
BRANCH  29  47
ATOM     47  O   UNL     1       4.168  -4.315  29.206  0.00  0.00    -0.385 OA
ATOM     48  H   UNL     1       3.264  -3.952  29.265  0.00  0.00    +0.210 HD
ENDBRANCH  29  47
BRANCH  30  49
ATOM     49  O   UNL     1       5.277  -7.396  28.174  0.00  0.00    -0.386 OA
ATOM     50  H   UNL     1       6.080  -7.857  28.466  0.00  0.00    +0.210 HD
ENDBRANCH  30  49
ENDBRANCH  27  31
ENDBRANCH   1  27
TORSDOF 13
ENDMDL
MODEL 9
REMARK VINA RESULT:      -7.9      2.373      9.554
REMARK  Name = 
REMARK  13 active torsions:
REMARK  status: ('A' for Active; 'I' for Inactive)
REMARK    1  A    between atoms: N_8  and  C_9
REMARK    2  A    between atoms: C_12  and  C_14
REMARK    3  A    between atoms: C_14  and  O_15
REMARK    4  A    between atoms: O_15  and  P_16
REMARK    5  A    between atoms: P_16  and  O_17
REMARK    6  A    between atoms: P_16  and  O_19
REMARK    7  A    between atoms: O_19  and  C_20
REMARK    8  A    between atoms: C_22  and  O_24
REMARK    9  A    between atoms: C_25  and  C_27
REMARK   10  A    between atoms: C_27  and  O_28
REMARK   11  A    between atoms: C_30  and  N_32
REMARK   12  A    between atoms: C_40  and  O_42
REMARK   13  A    between atoms: C_43  and  O_45
REMARK                            x       y       z     vdW  Elec       q    Type
REMARK                         _______ _______ _______ _____ _____    ______ ____
ROOT
ATOM      1  O   UNL     1       7.628  -1.250  26.665  0.00  0.00    -0.284 OA
ENDROOT
BRANCH   1   2
ATOM      2  P   UNL     1       6.045  -1.542  26.691  0.00  0.00    +0.475 P 
ATOM      3  O   UNL     1       5.338  -1.260  25.408  0.00  0.00    -0.227 OA
BRANCH   2   4
ATOM      4  O   UNL     1       5.512  -0.628  27.898  0.00  0.00    -0.302 OA
ATOM      5  H   UNL     1       4.947   0.079  27.541  0.00  0.00    +0.222 HD
ENDBRANCH   2   4
BRANCH   2   6
ATOM      6  O   UNL     1       5.830  -3.005  27.286  0.00  0.00    -0.276 OA
BRANCH   6   7
ATOM      7  C   UNL     1       5.227  -4.060  26.527  0.00  0.00    +0.211 C 
ATOM      8  C   UNL     1       6.398  -4.826  25.864  0.00  0.00    +0.256 C 
ATOM      9  O   UNL     1       6.640  -6.042  26.593  0.00  0.00    -0.346 OA
ATOM     10  C   UNL     1       5.576  -6.251  27.541  0.00  0.00    +0.177 C 
ATOM     11  C   UNL     1       4.551  -5.132  27.383  0.00  0.00    +0.179 C 
BRANCH   8  12
ATOM     12  N   UNL     1       6.331  -5.117  24.417  0.00  0.00    -0.270 N 
ATOM     13  C   UNL     1       7.481  -5.171  23.628  0.00  0.00    +0.352 A 
ATOM     14  O   UNL     1       8.594  -4.983  24.104  0.00  0.00    -0.244 OA
ATOM     15  N   UNL     1       7.364  -5.477  22.295  0.00  0.00    -0.178 NA
ATOM     16  C   UNL     1       6.202  -5.661  21.768  0.00  0.00    +0.123 A 
ATOM     17  N   UNL     1       6.169  -5.964  20.436  0.00  0.00    -0.343 N 
ATOM     18  H   UNL     1       7.084  -6.211  20.072  0.00  0.00    +0.144 HD
ATOM     19  H   UNL     1       5.428  -6.569  20.105  0.00  0.00    +0.144 HD
ATOM     20  C   UNL     1       4.949  -5.565  22.541  0.00  0.00    +0.061 A 
ATOM     21  C   UNL     1       5.085  -5.282  23.836  0.00  0.00    +0.096 A 
ENDBRANCH   8  12
BRANCH  11  22
ATOM     22  O   UNL     1       3.345  -5.635  26.800  0.00  0.00    -0.386 OA
ATOM     23  H   UNL     1       2.637  -5.634  27.482  0.00  0.00    +0.210 HD
ENDBRANCH  11  22
BRANCH  10  24
ATOM     24  C   UNL     1       6.115  -6.307  28.983  0.00  0.00    +0.190 C 
BRANCH  24  25
ATOM     25  O   UNL     1       6.698  -7.572  29.292  0.00  0.00    -0.392 OA
ATOM     26  H   UNL     1       7.500  -7.657  28.746  0.00  0.00    +0.210 HD
ENDBRANCH  24  25
ENDBRANCH  10  24
ENDBRANCH   6   7
ENDBRANCH   2   6
ENDBRANCH   1   2
BRANCH   1  27
ATOM     27  C   UNL     1       8.396  -1.719  25.556  0.00  0.00    +0.206 C 
BRANCH  27  31
ATOM     28  C   UNL     1       8.447  -0.021  22.325  0.00  0.00    +0.253 C 
ATOM     29  C   UNL     1       9.942  -0.377  22.425  0.00  0.00    +0.195 C 
ATOM     30  C   UNL     1      10.145  -0.826  23.877  0.00  0.00    +0.178 C 
ATOM     31  C   UNL     1       8.777  -0.646  24.528  0.00  0.00    +0.178 C 
ATOM     32  O   UNL     1       7.810  -0.613  23.480  0.00  0.00    -0.346 OA
BRANCH  28  44
ATOM     33  N   UNL     1      11.715   4.048  23.500  0.00  0.00    -0.329 N 
ATOM     34  H   UNL     1      11.951   4.720  24.217  0.00  0.00    +0.145 HD
ATOM     35  H   UNL     1      12.263   3.194  23.550  0.00  0.00    +0.145 HD
ATOM     36  C   UNL     1      10.403   3.799  23.274  0.00  0.00    +0.195 A 
ATOM     37  N   UNL     1       9.532   4.853  23.448  0.00  0.00    -0.293 N 
ATOM     38  H   UNL     1       9.878   5.760  23.709  0.00  0.00    +0.172 HD
ATOM     39  C   UNL     1       8.162   4.784  23.230  0.00  0.00    +0.280 A 
ATOM     40  O   UNL     1       7.429   5.751  23.411  0.00  0.00    -0.265 OA
ATOM     41  C   UNL     1       7.741   3.469  22.799  0.00  0.00    +0.172 A 
ATOM     42  N   UNL     1       6.493   2.995  22.491  0.00  0.00    -0.229 NA
ATOM     43  C   UNL     1       6.694   1.725  22.212  0.00  0.00    +0.203 A 
ATOM     44  N   UNL     1       8.021   1.361  22.338  0.00  0.00    -0.285 N 
ATOM     45  C   UNL     1       8.702   2.489  22.688  0.00  0.00    +0.171 A 
ATOM     46  N   UNL     1      10.028   2.603  22.915  0.00  0.00    -0.196 NA
ENDBRANCH  28  44
BRANCH  29  47
ATOM     47  O   UNL     1      10.265  -1.479  21.545  0.00  0.00    -0.385 OA
ATOM     48  H   UNL     1      10.157  -2.315  22.036  0.00  0.00    +0.210 HD
ENDBRANCH  29  47
BRANCH  30  49
ATOM     49  O   UNL     1      11.127  -0.018  24.531  0.00  0.00    -0.386 OA
ATOM     50  H   UNL     1      11.067  -0.173  25.488  0.00  0.00    +0.210 HD
ENDBRANCH  30  49
ENDBRANCH  27  31
ENDBRANCH   1  27
TORSDOF 13
ENDMDL
