MODEL 1
REMARK VINA RESULT:      -7.6      0.000      0.000
REMARK  Name = 
REMARK  12 active torsions:
REMARK  status: ('A' for Active; 'I' for Inactive)
REMARK    1  A    between atoms: N_14  and  C_15
REMARK    2  A    between atoms: N_14  and  C_16
REMARK    3  A    between atoms: C_25  and  O_26
REMARK    4  A    between atoms: O_26  and  C_27
REMARK    5  A    between atoms: N_32  and  C_33
REMARK    6  A    between atoms: N_32  and  C_34
REMARK    7  A    between atoms: C_37  and  O_38
REMARK    8  A    between atoms: O_38  and  C_39
REMARK    9  A    between atoms: C_43  and  O_44
REMARK   10  A    between atoms: O_44  and  C_45
REMARK   11  A    between atoms: C_46  and  O_47
REMARK   12  A    between atoms: O_47  and  C_48
REMARK                            x       y       z     vdW  Elec       q    Type
REMARK                         _______ _______ _______ _____ _____    ______ ____
ROOT
ATOM      1  C   UNL     1       2.726  -7.188  26.041  0.00  0.00    +0.101 C 
ATOM      2  C   UNL     1       3.226  -6.186  27.091  0.00  0.00    +0.008 A 
ATOM      3  C   UNL     1       4.034  -5.049  26.922  0.00  0.00    +0.059 A 
ATOM      4  C   UNL     1       4.348  -4.207  28.013  0.00  0.00    +0.170 A 
ATOM      5  C   UNL     1       4.518  -4.935  29.190  0.00  0.00    +0.162 A 
ATOM      6  C   UNL     1       3.596  -5.948  29.457  0.00  0.00    +0.053 A 
ATOM      7  O   UNL     1       3.228  -3.159  28.167  0.00  0.00    -0.449 OA
ATOM      8  C   UNL     1       3.620  -1.833  28.010  0.00  0.00    +0.170 A 
ATOM      9  C   UNL     1       3.117  -0.709  28.694  0.00  0.00    +0.162 A 
ATOM     10  C   UNL     1       3.984   0.362  28.969  0.00  0.00    +0.050 A 
ATOM     11  C   UNL     1       5.192   0.450  28.300  0.00  0.00    +0.007 A 
ATOM     12  C   UNL     1       5.436  -0.459  27.274  0.00  0.00    -0.038 A 
ATOM     13  C   UNL     1       6.710  -0.451  26.503  0.00  0.00    +0.095 C 
ATOM     14  C   UNL     1       6.549  -0.254  24.971  0.00  0.00    +0.105 C 
ATOM     15  C   UNL     1       7.499  -1.288  24.339  0.00  0.00    +0.050 A 
ATOM     16  C   UNL     1       8.867  -0.946  24.286  0.00  0.00    -0.027 A 
ATOM     17  C   UNL     1       9.812  -1.952  24.257  0.00  0.00    +0.054 A 
ATOM     18  C   UNL     1       9.448  -3.293  24.272  0.00  0.00    +0.165 A 
ATOM     19  C   UNL     1       8.073  -3.646  24.151  0.00  0.00    +0.205 A 
ATOM     20  C   UNL     1       9.335   0.471  24.265  0.00  0.00    +0.087 C 
ATOM     21  C   UNL     1       8.361   1.507  24.781  0.00  0.00    +0.138 C 
ATOM     22  C   UNL     1       7.091  -2.628  24.089  0.00  0.00    +0.182 A 
ATOM     23  O   UNL     1       5.729  -2.680  23.813  0.00  0.00    -0.452 OA
ATOM     24  C   UNL     1       5.016  -3.781  23.431  0.00  0.00    +0.129 A 
ATOM     25  C   UNL     1       5.498  -4.896  22.785  0.00  0.00    +0.046 A 
ATOM     26  C   UNL     1       4.896  -6.134  23.071  0.00  0.00    +0.007 A 
ATOM     27  C   UNL     1       3.712  -6.173  23.808  0.00  0.00    -0.041 A 
ATOM     28  C   UNL     1       2.989  -4.994  23.878  0.00  0.00    +0.007 A 
ATOM     29  C   UNL     1       3.670  -3.779  23.788  0.00  0.00    +0.046 A 
ATOM     30  N   UNL     1       6.886   1.202  24.513  0.00  0.00    +0.245 N 
ATOM     31  C   UNL     1       6.489   1.284  23.032  0.00  0.00    +0.193 C 
ATOM     32  C   UNL     1       6.102   2.317  25.219  0.00  0.00    +0.193 C 
ATOM     33  C   UNL     1       4.583  -1.546  27.078  0.00  0.00    +0.054 A 
ATOM     34  C   UNL     1       2.811  -6.439  28.407  0.00  0.00    -0.030 A 
ATOM     35  C   UNL     1       1.474  -7.077  28.669  0.00  0.00    +0.086 C 
ATOM     36  C   UNL     1       0.840  -7.873  27.516  0.00  0.00    +0.138 C 
ATOM     37  N   UNL     1       1.155  -7.292  26.106  0.00  0.00    +0.245 N 
ATOM     38  C   UNL     1       0.568  -8.254  25.073  0.00  0.00    +0.193 C 
ATOM     39  C   UNL     1       0.446  -5.949  25.951  0.00  0.00    +0.193 C 
ATOM     40  C   UNL     1       3.364  -7.379  24.620  0.00  0.00    +0.094 C 
ENDROOT
BRANCH   5  41
ATOM     41  O   UNL     1       5.700  -5.080  29.886  0.00  0.00    -0.491 OA
ATOM     42  C   UNL     1       6.052  -6.391  30.333  0.00  0.00    +0.277 C 
ENDBRANCH   5  41
BRANCH   9  43
ATOM     43  O   UNL     1       1.751  -0.561  28.815  0.00  0.00    -0.491 OA
ATOM     44  C   UNL     1       1.025  -0.362  27.581  0.00  0.00    +0.277 C 
ENDBRANCH   9  43
BRANCH  18  45
ATOM     45  O   UNL     1      10.362  -4.287  24.491  0.00  0.00    -0.491 OA
ATOM     46  C   UNL     1      10.371  -4.895  25.780  0.00  0.00    +0.277 C 
ENDBRANCH  18  45
BRANCH  19  47
ATOM     47  O   UNL     1       7.726  -4.975  24.206  0.00  0.00    -0.488 OA
ATOM     48  C   UNL     1       7.350  -5.438  25.518  0.00  0.00    +0.277 C 
ENDBRANCH  19  47
TORSDOF 4
ENDMDL
MODEL 2
REMARK VINA RESULT:      -6.9      2.655      8.356
REMARK  Name = 
REMARK  12 active torsions:
REMARK  status: ('A' for Active; 'I' for Inactive)
REMARK    1  A    between atoms: N_14  and  C_15
REMARK    2  A    between atoms: N_14  and  C_16
REMARK    3  A    between atoms: C_25  and  O_26
REMARK    4  A    between atoms: O_26  and  C_27
REMARK    5  A    between atoms: N_32  and  C_33
REMARK    6  A    between atoms: N_32  and  C_34
REMARK    7  A    between atoms: C_37  and  O_38
REMARK    8  A    between atoms: O_38  and  C_39
REMARK    9  A    between atoms: C_43  and  O_44
REMARK   10  A    between atoms: O_44  and  C_45
REMARK   11  A    between atoms: C_46  and  O_47
REMARK   12  A    between atoms: O_47  and  C_48
REMARK                            x       y       z     vdW  Elec       q    Type
REMARK                         _______ _______ _______ _____ _____    ______ ____
ROOT
ATOM      1  C   UNL     1       9.135   3.055  22.906  0.00  0.00    +0.101 C 
ATOM      2  C   UNL     1       7.651   2.945  23.285  0.00  0.00    +0.008 A 
ATOM      3  C   UNL     1       6.942   1.845  23.795  0.00  0.00    +0.059 A 
ATOM      4  C   UNL     1       5.575   1.953  24.139  0.00  0.00    +0.170 A 
ATOM      5  C   UNL     1       4.891   2.795  23.263  0.00  0.00    +0.162 A 
ATOM      6  C   UNL     1       5.516   3.989  22.902  0.00  0.00    +0.053 A 
ATOM      7  O   UNL     1       5.469   2.459  25.591  0.00  0.00    -0.449 OA
ATOM      8  C   UNL     1       4.844   1.595  26.485  0.00  0.00    +0.170 A 
ATOM      9  C   UNL     1       4.022   1.943  27.574  0.00  0.00    +0.162 A 
ATOM     10  C   UNL     1       2.965   1.088  27.929  0.00  0.00    +0.050 A 
ATOM     11  C   UNL     1       2.943  -0.206  27.439  0.00  0.00    +0.007 A 
ATOM     12  C   UNL     1       4.051  -0.650  26.722  0.00  0.00    -0.038 A 
ATOM     13  C   UNL     1       4.116  -2.022  26.146  0.00  0.00    +0.095 C 
ATOM     14  C   UNL     1       5.310  -2.885  26.639  0.00  0.00    +0.105 C 
ATOM     15  C   UNL     1       5.861  -3.557  25.368  0.00  0.00    +0.050 A 
ATOM     16  C   UNL     1       5.171  -4.696  24.900  0.00  0.00    -0.027 A 
ATOM     17  C   UNL     1       5.234  -5.018  23.559  0.00  0.00    +0.054 A 
ATOM     18  C   UNL     1       5.966  -4.252  22.661  0.00  0.00    +0.165 A 
ATOM     19  C   UNL     1       6.802  -3.207  23.150  0.00  0.00    +0.205 A 
ATOM     20  C   UNL     1       4.366  -5.568  25.805  0.00  0.00    +0.087 C 
ATOM     21  C   UNL     1       3.917  -4.948  27.110  0.00  0.00    +0.138 C 
ATOM     22  C   UNL     1       6.821  -2.916  24.535  0.00  0.00    +0.182 A 
ATOM     23  O   UNL     1       7.641  -2.083  25.289  0.00  0.00    -0.452 OA
ATOM     24  C   UNL     1       8.730  -1.390  24.842  0.00  0.00    +0.129 A 
ATOM     25  C   UNL     1       9.527  -1.704  23.765  0.00  0.00    +0.046 A 
ATOM     26  C   UNL     1      10.100  -0.645  23.039  0.00  0.00    +0.007 A 
ATOM     27  C   UNL     1      10.037   0.654  23.545  0.00  0.00    -0.041 A 
ATOM     28  C   UNL     1       9.771   0.776  24.899  0.00  0.00    +0.007 A 
ATOM     29  C   UNL     1       9.019  -0.214  25.531  0.00  0.00    +0.046 A 
ATOM     30  N   UNL     1       4.889  -3.936  27.717  0.00  0.00    +0.245 N 
ATOM     31  C   UNL     1       6.193  -4.556  28.237  0.00  0.00    +0.193 C 
ATOM     32  C   UNL     1       4.174  -3.369  28.950  0.00  0.00    +0.193 C 
ATOM     33  C   UNL     1       5.046   0.247  26.335  0.00  0.00    +0.054 A 
ATOM     34  C   UNL     1       6.897   4.114  23.099  0.00  0.00    -0.030 A 
ATOM     35  C   UNL     1       7.538   5.464  23.274  0.00  0.00    +0.086 C 
ATOM     36  C   UNL     1       9.070   5.532  23.155  0.00  0.00    +0.138 C 
ATOM     37  N   UNL     1       9.796   4.258  23.679  0.00  0.00    +0.245 N 
ATOM     38  C   UNL     1      11.286   4.425  23.379  0.00  0.00    +0.193 C 
ATOM     39  C   UNL     1       9.631   4.178  25.194  0.00  0.00    +0.193 C 
ATOM     40  C   UNL     1      10.072   1.829  22.622  0.00  0.00    +0.094 C 
ENDROOT
BRANCH   5  41
ATOM     41  O   UNL     1       3.903   2.413  22.382  0.00  0.00    -0.491 OA
ATOM     42  C   UNL     1       3.057   3.433  21.847  0.00  0.00    +0.277 C 
ENDBRANCH   5  41
BRANCH   9  43
ATOM     43  O   UNL     1       4.442   2.940  28.432  0.00  0.00    -0.491 OA
ATOM     44  C   UNL     1       5.628   2.650  29.204  0.00  0.00    +0.277 C 
ENDBRANCH   9  43
BRANCH  18  45
ATOM     45  O   UNL     1       5.842  -4.410  21.307  0.00  0.00    -0.491 OA
ATOM     46  C   UNL     1       6.168  -5.688  20.766  0.00  0.00    +0.277 C 
ENDBRANCH  18  45
BRANCH  19  47
ATOM     47  O   UNL     1       7.489  -2.433  22.245  0.00  0.00    -0.488 OA
ATOM     48  C   UNL     1       6.817  -1.215  21.871  0.00  0.00    +0.277 C 
ENDBRANCH  19  47
TORSDOF 4
ENDMDL
MODEL 3
REMARK VINA RESULT:      -6.1      2.729      8.330
REMARK  Name = 
REMARK  12 active torsions:
REMARK  status: ('A' for Active; 'I' for Inactive)
REMARK    1  A    between atoms: N_14  and  C_15
REMARK    2  A    between atoms: N_14  and  C_16
REMARK    3  A    between atoms: C_25  and  O_26
REMARK    4  A    between atoms: O_26  and  C_27
REMARK    5  A    between atoms: N_32  and  C_33
REMARK    6  A    between atoms: N_32  and  C_34
REMARK    7  A    between atoms: C_37  and  O_38
REMARK    8  A    between atoms: O_38  and  C_39
REMARK    9  A    between atoms: C_43  and  O_44
REMARK   10  A    between atoms: O_44  and  C_45
REMARK   11  A    between atoms: C_46  and  O_47
REMARK   12  A    between atoms: O_47  and  C_48
REMARK                            x       y       z     vdW  Elec       q    Type
REMARK                         _______ _______ _______ _____ _____    ______ ____
ROOT
ATOM      1  C   UNL     1       8.279   3.612  23.281  0.00  0.00    +0.101 C 
ATOM      2  C   UNL     1       6.793   3.400  23.610  0.00  0.00    +0.008 A 
ATOM      3  C   UNL     1       6.146   2.254  24.099  0.00  0.00    +0.059 A 
ATOM      4  C   UNL     1       4.764   2.267  24.397  0.00  0.00    +0.170 A 
ATOM      5  C   UNL     1       4.053   3.060  23.497  0.00  0.00    +0.162 A 
ATOM      6  C   UNL     1       4.606   4.295  23.154  0.00  0.00    +0.053 A 
ATOM      7  O   UNL     1       4.575   2.764  25.844  0.00  0.00    -0.449 OA
ATOM      8  C   UNL     1       3.982   1.858  26.719  0.00  0.00    +0.170 A 
ATOM      9  C   UNL     1       3.102   2.149  27.779  0.00  0.00    +0.162 A 
ATOM     10  C   UNL     1       2.096   1.222  28.100  0.00  0.00    +0.050 A 
ATOM     11  C   UNL     1       2.179  -0.070  27.612  0.00  0.00    +0.007 A 
ATOM     12  C   UNL     1       3.339  -0.437  26.933  0.00  0.00    -0.038 A 
ATOM     13  C   UNL     1       3.518  -1.801  26.363  0.00  0.00    +0.095 C 
ATOM     14  C   UNL     1       4.751  -2.578  26.896  0.00  0.00    +0.105 C 
ATOM     15  C   UNL     1       5.389  -3.210  25.646  0.00  0.00    +0.050 A 
ATOM     16  C   UNL     1       4.796  -4.394  25.158  0.00  0.00    -0.027 A 
ATOM     17  C   UNL     1       4.926  -4.711  23.820  0.00  0.00    +0.054 A 
ATOM     18  C   UNL     1       5.633  -3.896  22.945  0.00  0.00    +0.165 A 
ATOM     19  C   UNL     1       6.377  -2.796  23.459  0.00  0.00    +0.205 A 
ATOM     20  C   UNL     1       4.024  -5.320  26.037  0.00  0.00    +0.087 C 
ATOM     21  C   UNL     1       3.489  -4.734  27.325  0.00  0.00    +0.138 C 
ATOM     22  C   UNL     1       6.330  -2.504  24.844  0.00  0.00    +0.182 A 
ATOM     23  O   UNL     1       7.065  -1.617  25.623  0.00  0.00    -0.452 OA
ATOM     24  C   UNL     1       8.118  -0.850  25.211  0.00  0.00    +0.129 A 
ATOM     25  C   UNL     1       8.970  -1.108  24.161  0.00  0.00    +0.046 A 
ATOM     26  C   UNL     1       9.492  -0.012  23.453  0.00  0.00    +0.007 A 
ATOM     27  C   UNL     1       9.323   1.279  23.954  0.00  0.00    -0.041 A 
ATOM     28  C   UNL     1       9.004   1.383  25.298  0.00  0.00    +0.007 A 
ATOM     29  C   UNL     1       8.302   0.343  25.907  0.00  0.00    +0.046 A 
ATOM     30  N   UNL     1       4.369  -3.657  27.962  0.00  0.00    +0.245 N 
ATOM     31  C   UNL     1       5.695  -4.185  28.526  0.00  0.00    +0.193 C 
ATOM     32  C   UNL     1       3.575  -3.141  29.170  0.00  0.00    +0.193 C 
ATOM     33  C   UNL     1       4.281   0.528  26.578  0.00  0.00    +0.054 A 
ATOM     34  C   UNL     1       5.968   4.515  23.397  0.00  0.00    -0.030 A 
ATOM     35  C   UNL     1       6.508   5.905  23.590  0.00  0.00    +0.086 C 
ATOM     36  C   UNL     1       8.034   6.079  23.522  0.00  0.00    +0.138 C 
ATOM     37  N   UNL     1       8.829   4.858  24.072  0.00  0.00    +0.245 N 
ATOM     38  C   UNL     1      10.313   5.128  23.821  0.00  0.00    +0.193 C 
ATOM     39  C   UNL     1       8.619   4.767  25.581  0.00  0.00    +0.193 C 
ATOM     40  C   UNL     1       9.307   2.454  23.030  0.00  0.00    +0.094 C 
ENDROOT
BRANCH   5  41
ATOM     41  O   UNL     1       3.123   2.610  22.584  0.00  0.00    -0.491 OA
ATOM     42  C   UNL     1       1.797   3.135  22.672  0.00  0.00    +0.277 C 
ENDBRANCH   5  41
BRANCH   9  43
ATOM     43  O   UNL     1       3.424   3.171  28.648  0.00  0.00    -0.491 OA
ATOM     44  C   UNL     1       2.738   4.425  28.430  0.00  0.00    +0.277 C 
ENDBRANCH   9  43
BRANCH  18  45
ATOM     45  O   UNL     1       5.565  -4.062  21.588  0.00  0.00    -0.491 OA
ATOM     46  C   UNL     1       6.065  -5.284  21.054  0.00  0.00    +0.277 C 
ENDBRANCH  18  45
BRANCH  19  47
ATOM     47  O   UNL     1       7.039  -1.976  22.577  0.00  0.00    -0.488 OA
ATOM     48  C   UNL     1       8.117  -2.614  21.865  0.00  0.00    +0.277 C 
ENDBRANCH  19  47
TORSDOF 4
ENDMDL
MODEL 4
REMARK VINA RESULT:      -5.8      3.695      6.192
REMARK  Name = 
REMARK  12 active torsions:
REMARK  status: ('A' for Active; 'I' for Inactive)
REMARK    1  A    between atoms: N_14  and  C_15
REMARK    2  A    between atoms: N_14  and  C_16
REMARK    3  A    between atoms: C_25  and  O_26
REMARK    4  A    between atoms: O_26  and  C_27
REMARK    5  A    between atoms: N_32  and  C_33
REMARK    6  A    between atoms: N_32  and  C_34
REMARK    7  A    between atoms: C_37  and  O_38
REMARK    8  A    between atoms: O_38  and  C_39
REMARK    9  A    between atoms: C_43  and  O_44
REMARK   10  A    between atoms: O_44  and  C_45
REMARK   11  A    between atoms: C_46  and  O_47
REMARK   12  A    between atoms: O_47  and  C_48
REMARK                            x       y       z     vdW  Elec       q    Type
REMARK                         _______ _______ _______ _____ _____    ______ ____
ROOT
ATOM      1  C   UNL     1       8.226  -3.153  23.947  0.00  0.00    +0.101 C 
ATOM      2  C   UNL     1       7.735  -2.251  25.089  0.00  0.00    +0.008 A 
ATOM      3  C   UNL     1       7.536  -0.861  25.101  0.00  0.00    +0.059 A 
ATOM      4  C   UNL     1       7.019  -0.207  26.243  0.00  0.00    +0.170 A 
ATOM      5  C   UNL     1       7.483  -0.790  27.421  0.00  0.00    +0.162 A 
ATOM      6  C   UNL     1       7.502  -2.184  27.483  0.00  0.00    +0.053 A 
ATOM      7  O   UNL     1       5.479  -0.239  26.177  0.00  0.00    -0.449 OA
ATOM      8  C   UNL     1       4.853   1.002  26.119  0.00  0.00    +0.170 A 
ATOM      9  C   UNL     1       3.622   1.364  26.700  0.00  0.00    +0.162 A 
ATOM     10  C   UNL     1       3.449   2.681  27.158  0.00  0.00    +0.050 A 
ATOM     11  C   UNL     1       4.331   3.666  26.750  0.00  0.00    +0.007 A 
ATOM     12  C   UNL     1       5.278   3.333  25.785  0.00  0.00    -0.038 A 
ATOM     13  C   UNL     1       6.276   4.321  25.290  0.00  0.00    +0.095 C 
ATOM     14  C   UNL     1       6.237   4.583  23.760  0.00  0.00    +0.105 C 
ATOM     15  C   UNL     1       7.713   4.582  23.322  0.00  0.00    +0.050 A 
ATOM     16  C   UNL     1       8.446   5.766  23.554  0.00  0.00    -0.027 A 
ATOM     17  C   UNL     1       9.816   5.691  23.706  0.00  0.00    +0.054 A 
ATOM     18  C   UNL     1      10.491   4.479  23.631  0.00  0.00    +0.165 A 
ATOM     19  C   UNL     1       9.786   3.309  23.228  0.00  0.00    +0.205 A 
ATOM     20  C   UNL     1       7.792   7.104  23.645  0.00  0.00    +0.087 C 
ATOM     21  C   UNL     1       6.313   7.108  23.963  0.00  0.00    +0.138 C 
ATOM     22  C   UNL     1       8.395   3.381  22.980  0.00  0.00    +0.182 A 
ATOM     23  O   UNL     1       7.509   2.459  22.431  0.00  0.00    -0.452 OA
ATOM     24  C   UNL     1       7.827   1.241  21.899  0.00  0.00    +0.129 A 
ATOM     25  C   UNL     1       9.033   0.865  21.352  0.00  0.00    +0.046 A 
ATOM     26  C   UNL     1       9.431  -0.475  21.495  0.00  0.00    +0.007 A 
ATOM     27  C   UNL     1       8.522  -1.419  21.974  0.00  0.00    -0.041 A 
ATOM     28  C   UNL     1       7.182  -1.075  21.909  0.00  0.00    +0.007 A 
ATOM     29  C   UNL     1       6.828   0.273  21.974  0.00  0.00    +0.046 A 
ATOM     30  N   UNL     1       5.524   5.926  23.397  0.00  0.00    +0.245 N 
ATOM     31  C   UNL     1       5.392   5.938  21.867  0.00  0.00    +0.193 C 
ATOM     32  C   UNL     1       4.098   6.087  23.941  0.00  0.00    +0.193 C 
ATOM     33  C   UNL     1       5.461   2.003  25.406  0.00  0.00    +0.054 A 
ATOM     34  C   UNL     1       7.436  -2.913  26.290  0.00  0.00    -0.030 A 
ATOM     35  C   UNL     1       6.903  -4.320  26.267  0.00  0.00    +0.086 C 
ATOM     36  C   UNL     1       7.170  -5.149  24.999  0.00  0.00    +0.138 C 
ATOM     37  N   UNL     1       7.183  -4.305  23.690  0.00  0.00    +0.245 N 
ATOM     38  C   UNL     1       7.582  -5.240  22.548  0.00  0.00    +0.193 C 
ATOM     39  C   UNL     1       5.770  -3.801  23.409  0.00  0.00    +0.193 C 
ATOM     40  C   UNL     1       9.004  -2.643  22.684  0.00  0.00    +0.094 C 
ENDROOT
BRANCH   5  41
ATOM     41  O   UNL     1       8.320  -0.195  28.341  0.00  0.00    -0.491 OA
ATOM     42  C   UNL     1       7.828   0.946  29.048  0.00  0.00    +0.277 C 
ENDBRANCH   5  41
BRANCH   9  43
ATOM     43  O   UNL     1       2.540   0.523  26.541  0.00  0.00    -0.491 OA
ATOM     44  C   UNL     1       2.198  -0.290  27.685  0.00  0.00    +0.277 C 
ENDBRANCH   9  43
BRANCH  18  45
ATOM     45  O   UNL     1      11.797   4.354  24.020  0.00  0.00    -0.491 OA
ATOM     46  C   UNL     1      12.776   5.057  23.258  0.00  0.00    +0.277 C 
ENDBRANCH  18  45
BRANCH  19  47
ATOM     47  O   UNL     1      10.459   2.111  23.196  0.00  0.00    -0.488 OA
ATOM     48  C   UNL     1      10.481   1.407  24.453  0.00  0.00    +0.277 C 
ENDBRANCH  19  47
TORSDOF 4
ENDMDL
MODEL 5
REMARK VINA RESULT:      -5.6      2.740      8.295
REMARK  Name = 
REMARK  12 active torsions:
REMARK  status: ('A' for Active; 'I' for Inactive)
REMARK    1  A    between atoms: N_14  and  C_15
REMARK    2  A    between atoms: N_14  and  C_16
REMARK    3  A    between atoms: C_25  and  O_26
REMARK    4  A    between atoms: O_26  and  C_27
REMARK    5  A    between atoms: N_32  and  C_33
REMARK    6  A    between atoms: N_32  and  C_34
REMARK    7  A    between atoms: C_37  and  O_38
REMARK    8  A    between atoms: O_38  and  C_39
REMARK    9  A    between atoms: C_43  and  O_44
REMARK   10  A    between atoms: O_44  and  C_45
REMARK   11  A    between atoms: C_46  and  O_47
REMARK   12  A    between atoms: O_47  and  C_48
REMARK                            x       y       z     vdW  Elec       q    Type
REMARK                         _______ _______ _______ _____ _____    ______ ____
ROOT
ATOM      1  C   UNL     1       7.941   2.519  23.212  0.00  0.00    +0.101 C 
ATOM      2  C   UNL     1       6.474   2.720  23.623  0.00  0.00    +0.008 A 
ATOM      3  C   UNL     1       5.631   1.866  24.353  0.00  0.00    +0.059 A 
ATOM      4  C   UNL     1       4.312   2.252  24.685  0.00  0.00    +0.170 A 
ATOM      5  C   UNL     1       3.726   3.001  23.666  0.00  0.00    +0.162 A 
ATOM      6  C   UNL     1       4.507   3.988  23.064  0.00  0.00    +0.053 A 
ATOM      7  O   UNL     1       4.346   3.043  26.007  0.00  0.00    -0.449 OA
ATOM      8  C   UNL     1       3.638   2.480  27.064  0.00  0.00    +0.170 A 
ATOM      9  C   UNL     1       2.926   3.160  28.071  0.00  0.00    +0.162 A 
ATOM     10  C   UNL     1       1.769   2.567  28.603  0.00  0.00    +0.050 A 
ATOM     11  C   UNL     1       1.530   1.222  28.384  0.00  0.00    +0.007 A 
ATOM     12  C   UNL     1       2.527   0.477  27.757  0.00  0.00    -0.038 A 
ATOM     13  C   UNL     1       2.360  -0.974  27.468  0.00  0.00    +0.095 C 
ATOM     14  C   UNL     1       3.430  -1.898  28.109  0.00  0.00    +0.105 C 
ATOM     15  C   UNL     1       3.818  -2.885  26.992  0.00  0.00    +0.050 A 
ATOM     16  C   UNL     1       2.945  -3.971  26.772  0.00  0.00    -0.027 A 
ATOM     17  C   UNL     1       2.901  -4.557  25.522  0.00  0.00    +0.054 A 
ATOM     18  C   UNL     1       3.701  -4.107  24.479  0.00  0.00    +0.165 A 
ATOM     19  C   UNL     1       4.704  -3.129  24.738  0.00  0.00    +0.205 A 
ATOM     20  C   UNL     1       2.058  -4.512  27.843  0.00  0.00    +0.087 C 
ATOM     21  C   UNL     1       1.764  -3.586  29.002  0.00  0.00    +0.138 C 
ATOM     22  C   UNL     1       4.827  -2.578  26.036  0.00  0.00    +0.182 A 
ATOM     23  O   UNL     1       5.795  -1.751  26.597  0.00  0.00    -0.452 OA
ATOM     24  C   UNL     1       6.956  -1.339  26.007  0.00  0.00    +0.129 A 
ATOM     25  C   UNL     1       7.648  -1.979  25.004  0.00  0.00    +0.046 A 
ATOM     26  C   UNL     1       8.343  -1.187  24.074  0.00  0.00    +0.007 A 
ATOM     27  C   UNL     1       8.498   0.180  24.309  0.00  0.00    -0.041 A 
ATOM     28  C   UNL     1       8.312   0.607  25.614  0.00  0.00    +0.007 A 
ATOM     29  C   UNL     1       7.448  -0.111  26.441  0.00  0.00    +0.046 A 
ATOM     30  N   UNL     1       2.904  -2.638  29.381  0.00  0.00    +0.245 N 
ATOM     31  C   UNL     1       4.121  -3.340  29.999  0.00  0.00    +0.193 C 
ATOM     32  C   UNL     1       2.336  -1.735  30.485  0.00  0.00    +0.193 C 
ATOM     33  C   UNL     1       3.628   1.115  27.185  0.00  0.00    +0.054 A 
ATOM     34  C   UNL     1       5.898   3.933  23.215  0.00  0.00    -0.030 A 
ATOM     35  C   UNL     1       6.742   5.173  23.107  0.00  0.00    +0.086 C 
ATOM     36  C   UNL     1       8.260   4.977  22.959  0.00  0.00    +0.138 C 
ATOM     37  N   UNL     1       8.809   3.733  23.719  0.00  0.00    +0.245 N 
ATOM     38  C   UNL     1      10.292   3.603  23.373  0.00  0.00    +0.193 C 
ATOM     39  C   UNL     1       8.699   3.979  25.221  0.00  0.00    +0.193 C 
ATOM     40  C   UNL     1       8.669   1.131  23.168  0.00  0.00    +0.094 C 
ENDROOT
BRANCH   5  41
ATOM     41  O   UNL     1       2.653   2.612  22.892  0.00  0.00    -0.491 OA
ATOM     42  C   UNL     1       1.436   3.349  23.023  0.00  0.00    +0.277 C 
ENDBRANCH   5  41
BRANCH   9  43
ATOM     43  O   UNL     1       3.528   4.228  28.705  0.00  0.00    -0.491 OA
ATOM     44  C   UNL     1       4.384   3.898  29.822  0.00  0.00    +0.277 C 
ENDBRANCH   9  43
BRANCH  18  45
ATOM     45  O   UNL     1       3.496  -4.506  23.187  0.00  0.00    -0.491 OA
ATOM     46  C   UNL     1       2.804  -5.736  22.985  0.00  0.00    +0.277 C 
ENDBRANCH  18  45
BRANCH  19  47
ATOM     47  O   UNL     1       5.461  -2.666  23.688  0.00  0.00    -0.488 OA
ATOM     48  C   UNL     1       5.997  -3.698  22.839  0.00  0.00    +0.277 C 
ENDBRANCH  19  47
TORSDOF 4
ENDMDL
MODEL 6
REMARK VINA RESULT:      -5.4      3.547      9.135
REMARK  Name = 
REMARK  12 active torsions:
REMARK  status: ('A' for Active; 'I' for Inactive)
REMARK    1  A    between atoms: N_14  and  C_15
REMARK    2  A    between atoms: N_14  and  C_16
REMARK    3  A    between atoms: C_25  and  O_26
REMARK    4  A    between atoms: O_26  and  C_27
REMARK    5  A    between atoms: N_32  and  C_33
REMARK    6  A    between atoms: N_32  and  C_34
REMARK    7  A    between atoms: C_37  and  O_38
REMARK    8  A    between atoms: O_38  and  C_39
REMARK    9  A    between atoms: C_43  and  O_44
REMARK   10  A    between atoms: O_44  and  C_45
REMARK   11  A    between atoms: C_46  and  O_47
REMARK   12  A    between atoms: O_47  and  C_48
REMARK                            x       y       z     vdW  Elec       q    Type
REMARK                         _______ _______ _______ _____ _____    ______ ____
ROOT
ATOM      1  C   UNL     1       7.476   4.651  23.096  0.00  0.00    +0.101 C 
ATOM      2  C   UNL     1       5.960   4.483  23.273  0.00  0.00    +0.008 A 
ATOM      3  C   UNL     1       5.253   3.525  24.017  0.00  0.00    +0.059 A 
ATOM      4  C   UNL     1       3.842   3.565  24.107  0.00  0.00    +0.170 A 
ATOM      5  C   UNL     1       3.265   3.991  22.911  0.00  0.00    +0.162 A 
ATOM      6  C   UNL     1       3.858   5.075  22.263  0.00  0.00    +0.053 A 
ATOM      7  O   UNL     1       3.447   4.491  25.274  0.00  0.00    -0.449 OA
ATOM      8  C   UNL     1       2.738   3.886  26.308  0.00  0.00    +0.170 A 
ATOM      9  C   UNL     1       1.715   4.459  27.088  0.00  0.00    +0.162 A 
ATOM     10  C   UNL     1       0.676   3.637  27.555  0.00  0.00    +0.050 A 
ATOM     11  C   UNL     1       0.832   2.262  27.530  0.00  0.00    +0.007 A 
ATOM     12  C   UNL     1       2.078   1.754  27.170  0.00  0.00    -0.038 A 
ATOM     13  C   UNL     1       2.340   0.290  27.103  0.00  0.00    +0.095 C 
ATOM     14  C   UNL     1       3.487  -0.214  28.021  0.00  0.00    +0.105 C 
ATOM     15  C   UNL     1       4.299  -1.182  27.141  0.00  0.00    +0.050 A 
ATOM     16  C   UNL     1       3.785  -2.488  26.990  0.00  0.00    -0.027 A 
ATOM     17  C   UNL     1       4.105  -3.211  25.859  0.00  0.00    +0.054 A 
ATOM     18  C   UNL     1       4.927  -2.687  24.869  0.00  0.00    +0.165 A 
ATOM     19  C   UNL     1       5.588  -1.445  25.093  0.00  0.00    +0.205 A 
ATOM     20  C   UNL     1       2.898  -3.119  28.011  0.00  0.00    +0.087 C 
ATOM     21  C   UNL     1       2.183  -2.176  28.954  0.00  0.00    +0.138 C 
ATOM     22  C   UNL     1       5.342  -0.726  26.287  0.00  0.00    +0.182 A 
ATOM     23  O   UNL     1       5.956   0.400  26.827  0.00  0.00    -0.452 OA
ATOM     24  C   UNL     1       7.055   1.044  26.332  0.00  0.00    +0.129 A 
ATOM     25  C   UNL     1       8.048   0.504  25.548  0.00  0.00    +0.046 A 
ATOM     26  C   UNL     1       8.664   1.339  24.598  0.00  0.00    +0.007 A 
ATOM     27  C   UNL     1       8.421   2.713  24.624  0.00  0.00    -0.041 A 
ATOM     28  C   UNL     1       7.913   3.227  25.806  0.00  0.00    +0.007 A 
ATOM     29  C   UNL     1       7.134   2.405  26.620  0.00  0.00    +0.046 A 
ATOM     30  N   UNL     1       2.960  -0.910  29.318  0.00  0.00    +0.245 N 
ATOM     31  C   UNL     1       4.193  -1.163  30.196  0.00  0.00    +0.193 C 
ATOM     32  C   UNL     1       2.000  -0.072  30.175  0.00  0.00    +0.193 C 
ATOM     33  C   UNL     1       3.059   2.598  26.649  0.00  0.00    +0.054 A 
ATOM     34  C   UNL     1       5.170   5.428  22.601  0.00  0.00    -0.030 A 
ATOM     35  C   UNL     1       5.673   6.832  22.402  0.00  0.00    +0.086 C 
ATOM     36  C   UNL     1       7.193   7.049  22.486  0.00  0.00    +0.138 C 
ATOM     37  N   UNL     1       7.905   6.111  23.505  0.00  0.00    +0.245 N 
ATOM     38  C   UNL     1       9.408   6.358  23.381  0.00  0.00    +0.193 C 
ATOM     39  C   UNL     1       7.482   6.499  24.919  0.00  0.00    +0.193 C 
ATOM     40  C   UNL     1       8.534   3.526  23.376  0.00  0.00    +0.094 C 
ENDROOT
BRANCH   5  41
ATOM     41  O   UNL     1       2.476   3.226  22.079  0.00  0.00    -0.491 OA
ATOM     42  C   UNL     1       2.260   3.699  20.748  0.00  0.00    +0.277 C 
ENDBRANCH   5  41
BRANCH   9  43
ATOM     43  O   UNL     1       1.906   5.721  27.612  0.00  0.00    -0.491 OA
ATOM     44  C   UNL     1       2.880   5.824  28.675  0.00  0.00    +0.277 C 
ENDBRANCH   9  43
BRANCH  18  45
ATOM     45  O   UNL     1       5.054  -3.283  23.644  0.00  0.00    -0.491 OA
ATOM     46  C   UNL     1       4.267  -4.445  23.398  0.00  0.00    +0.277 C 
ENDBRANCH  18  45
BRANCH  19  47
ATOM     47  O   UNL     1       6.366  -0.921  24.089  0.00  0.00    -0.488 OA
ATOM     48  C   UNL     1       7.295  -1.855  23.506  0.00  0.00    +0.277 C 
ENDBRANCH  19  47
TORSDOF 4
ENDMDL
MODEL 7
REMARK VINA RESULT:      -5.2      2.486      6.530
REMARK  Name = 
REMARK  12 active torsions:
REMARK  status: ('A' for Active; 'I' for Inactive)
REMARK    1  A    between atoms: N_14  and  C_15
REMARK    2  A    between atoms: N_14  and  C_16
REMARK    3  A    between atoms: C_25  and  O_26
REMARK    4  A    between atoms: O_26  and  C_27
REMARK    5  A    between atoms: N_32  and  C_33
REMARK    6  A    between atoms: N_32  and  C_34
REMARK    7  A    between atoms: C_37  and  O_38
REMARK    8  A    between atoms: O_38  and  C_39
REMARK    9  A    between atoms: C_43  and  O_44
REMARK   10  A    between atoms: O_44  and  C_45
REMARK   11  A    between atoms: C_46  and  O_47
REMARK   12  A    between atoms: O_47  and  C_48
REMARK                            x       y       z     vdW  Elec       q    Type
REMARK                         _______ _______ _______ _____ _____    ______ ____
ROOT
ATOM      1  C   UNL     1       2.984  -3.049  27.807  0.00  0.00    +0.101 C 
ATOM      2  C   UNL     1       3.866  -3.234  26.564  0.00  0.00    +0.008 A 
ATOM      3  C   UNL     1       4.601  -2.277  25.844  0.00  0.00    +0.059 A 
ATOM      4  C   UNL     1       5.408  -2.651  24.745  0.00  0.00    +0.170 A 
ATOM      5  C   UNL     1       4.829  -3.687  24.013  0.00  0.00    +0.162 A 
ATOM      6  C   UNL     1       4.264  -4.742  24.730  0.00  0.00    +0.053 A 
ATOM      7  O   UNL     1       6.801  -3.053  25.269  0.00  0.00    -0.449 OA
ATOM      8  C   UNL     1       7.862  -2.277  24.813  0.00  0.00    +0.170 A 
ATOM      9  C   UNL     1       9.171  -2.709  24.524  0.00  0.00    +0.162 A 
ATOM     10  C   UNL     1       9.882  -2.078  23.490  0.00  0.00    +0.050 A 
ATOM     11  C   UNL     1       9.437  -0.861  23.002  0.00  0.00    +0.007 A 
ATOM     12  C   UNL     1       8.375  -0.245  23.658  0.00  0.00    -0.038 A 
ATOM     13  C   UNL     1       7.820   1.059  23.202  0.00  0.00    +0.095 C 
ATOM     14  C   UNL     1       7.859   2.195  24.261  0.00  0.00    +0.105 C 
ATOM     15  C   UNL     1       6.477   2.869  24.166  0.00  0.00    +0.050 A 
ATOM     16  C   UNL     1       6.291   3.792  23.115  0.00  0.00    -0.027 A 
ATOM     17  C   UNL     1       5.016   4.015  22.633  0.00  0.00    +0.054 A 
ATOM     18  C   UNL     1       3.913   3.357  23.162  0.00  0.00    +0.165 A 
ATOM     19  C   UNL     1       4.068   2.559  24.332  0.00  0.00    +0.205 A 
ATOM     20  C   UNL     1       7.426   4.537  22.497  0.00  0.00    +0.087 C 
ATOM     21  C   UNL     1       8.803   3.939  22.683  0.00  0.00    +0.138 C 
ATOM     22  C   UNL     1       5.355   2.388  24.897  0.00  0.00    +0.182 A 
ATOM     23  O   UNL     1       5.765   1.813  26.096  0.00  0.00    -0.452 OA
ATOM     24  C   UNL     1       4.956   1.339  27.090  0.00  0.00    +0.129 A 
ATOM     25  C   UNL     1       3.667   1.733  27.368  0.00  0.00    +0.046 A 
ATOM     26  C   UNL     1       2.780   0.770  27.881  0.00  0.00    +0.007 A 
ATOM     27  C   UNL     1       3.270  -0.468  28.298  0.00  0.00    -0.041 A 
ATOM     28  C   UNL     1       4.629  -0.539  28.554  0.00  0.00    +0.007 A 
ATOM     29  C   UNL     1       5.492   0.311  27.862  0.00  0.00    +0.046 A 
ATOM     30  N   UNL     1       9.020   3.211  24.011  0.00  0.00    +0.245 N 
ATOM     31  C   UNL     1       9.044   4.137  25.235  0.00  0.00    +0.193 C 
ATOM     32  C   UNL     1      10.425   2.601  23.919  0.00  0.00    +0.193 C 
ATOM     33  C   UNL     1       7.655  -0.934  24.635  0.00  0.00    +0.054 A 
ATOM     34  C   UNL     1       3.956  -4.550  26.083  0.00  0.00    -0.030 A 
ATOM     35  C   UNL     1       3.886  -5.711  27.037  0.00  0.00    +0.086 C 
ATOM     36  C   UNL     1       3.229  -5.455  28.404  0.00  0.00    +0.138 C 
ATOM     37  N   UNL     1       3.466  -4.017  28.953  0.00  0.00    +0.245 N 
ATOM     38  C   UNL     1       2.655  -3.881  30.242  0.00  0.00    +0.193 C 
ATOM     39  C   UNL     1       4.941  -3.857  29.311  0.00  0.00    +0.193 C 
ATOM     40  C   UNL     1       2.390  -1.676  28.279  0.00  0.00    +0.094 C 
ENDROOT
BRANCH   5  41
ATOM     41  O   UNL     1       4.359  -3.597  22.720  0.00  0.00    -0.491 OA
ATOM     42  C   UNL     1       5.318  -3.438  21.673  0.00  0.00    +0.277 C 
ENDBRANCH   5  41
BRANCH   9  43
ATOM     43  O   UNL     1       9.819  -3.521  25.432  0.00  0.00    -0.491 OA
ATOM     44  C   UNL     1       9.658  -4.944  25.235  0.00  0.00    +0.277 C 
ENDBRANCH   9  43
BRANCH  18  45
ATOM     45  O   UNL     1       2.693   3.379  22.543  0.00  0.00    -0.491 OA
ATOM     46  C   UNL     1       2.666   3.734  21.164  0.00  0.00    +0.277 C 
ENDBRANCH  18  45
BRANCH  19  47
ATOM     47  O   UNL     1       2.975   1.884  24.821  0.00  0.00    -0.488 OA
ATOM     48  C   UNL     1       1.816   2.710  25.042  0.00  0.00    +0.277 C 
ENDBRANCH  19  47
TORSDOF 4
ENDMDL
MODEL 8
REMARK VINA RESULT:      -4.7      2.448      7.833
REMARK  Name = 
REMARK  12 active torsions:
REMARK  status: ('A' for Active; 'I' for Inactive)
REMARK    1  A    between atoms: N_14  and  C_15
REMARK    2  A    between atoms: N_14  and  C_16
REMARK    3  A    between atoms: C_25  and  O_26
REMARK    4  A    between atoms: O_26  and  C_27
REMARK    5  A    between atoms: N_32  and  C_33
REMARK    6  A    between atoms: N_32  and  C_34
REMARK    7  A    between atoms: C_37  and  O_38
REMARK    8  A    between atoms: O_38  and  C_39
REMARK    9  A    between atoms: C_43  and  O_44
REMARK   10  A    between atoms: O_44  and  C_45
REMARK   11  A    between atoms: C_46  and  O_47
REMARK   12  A    between atoms: O_47  and  C_48
REMARK                            x       y       z     vdW  Elec       q    Type
REMARK                         _______ _______ _______ _____ _____    ______ ____
ROOT
ATOM      1  C   UNL     1       8.754  -0.156  23.321  0.00  0.00    +0.101 C 
ATOM      2  C   UNL     1       7.515   0.601  23.821  0.00  0.00    +0.008 A 
ATOM      3  C   UNL     1       6.397   0.114  24.519  0.00  0.00    +0.059 A 
ATOM      4  C   UNL     1       5.369   0.984  24.949  0.00  0.00    +0.170 A 
ATOM      5  C   UNL     1       5.145   2.006  24.027  0.00  0.00    +0.162 A 
ATOM      6  C   UNL     1       6.265   2.627  23.472  0.00  0.00    +0.053 A 
ATOM      7  O   UNL     1       5.749   1.554  26.329  0.00  0.00    -0.449 OA
ATOM      8  C   UNL     1       4.880   1.241  27.370  0.00  0.00    +0.170 A 
ATOM      9  C   UNL     1       4.533   2.055  28.465  0.00  0.00    +0.162 A 
ATOM     10  C   UNL     1       3.239   1.955  29.003  0.00  0.00    +0.050 A 
ATOM     11  C   UNL     1       2.451   0.863  28.683  0.00  0.00    +0.007 A 
ATOM     12  C   UNL     1       3.033  -0.166  27.947  0.00  0.00    -0.038 A 
ATOM     13  C   UNL     1       2.264  -1.377  27.546  0.00  0.00    +0.095 C 
ATOM     14  C   UNL     1       2.849  -2.723  28.051  0.00  0.00    +0.105 C 
ATOM     15  C   UNL     1       2.771  -3.667  26.837  0.00  0.00    +0.050 A 
ATOM     16  C   UNL     1       1.518  -4.259  26.570  0.00  0.00    -0.027 A 
ATOM     17  C   UNL     1       1.217  -4.647  25.280  0.00  0.00    +0.054 A 
ATOM     18  C   UNL     1       2.121  -4.474  24.239  0.00  0.00    +0.165 A 
ATOM     19  C   UNL     1       3.447  -4.040  24.528  0.00  0.00    +0.205 A 
ATOM     20  C   UNL     1       0.497  -4.479  27.636  0.00  0.00    +0.087 C 
ATOM     21  C   UNL     1       0.634  -3.632  28.883  0.00  0.00    +0.138 C 
ATOM     22  C   UNL     1       3.805  -3.721  25.860  0.00  0.00    +0.182 A 
ATOM     23  O   UNL     1       5.037  -3.437  26.439  0.00  0.00    -0.452 OA
ATOM     24  C   UNL     1       6.258  -3.495  25.827  0.00  0.00    +0.129 A 
ATOM     25  C   UNL     1       6.604  -4.266  24.741  0.00  0.00    +0.046 A 
ATOM     26  C   UNL     1       7.559  -3.752  23.846  0.00  0.00    +0.007 A 
ATOM     27  C   UNL     1       8.280  -2.608  24.188  0.00  0.00    -0.041 A 
ATOM     28  C   UNL     1       8.306  -2.273  25.531  0.00  0.00    +0.007 A 
ATOM     29  C   UNL     1       7.228  -2.637  26.338  0.00  0.00    +0.046 A 
ATOM     30  N   UNL     1       2.071  -3.294  29.282  0.00  0.00    +0.245 N 
ATOM     31  C   UNL     1       2.884  -4.499  29.776  0.00  0.00    +0.193 C 
ATOM     32  C   UNL     1       1.951  -2.348  30.485  0.00  0.00    +0.193 C 
ATOM     33  C   UNL     1       4.294   0.002  27.376  0.00  0.00    +0.054 A 
ATOM     34  C   UNL     1       7.503   1.977  23.547  0.00  0.00    -0.030 A 
ATOM     35  C   UNL     1       8.791   2.752  23.501  0.00  0.00    +0.086 C 
ATOM     36  C   UNL     1      10.082   1.951  23.260  0.00  0.00    +0.138 C 
ATOM     37  N   UNL     1      10.060   0.524  23.883  0.00  0.00    +0.245 N 
ATOM     38  C   UNL     1      11.345  -0.183  23.453  0.00  0.00    +0.193 C 
ATOM     39  C   UNL     1      10.080   0.646  25.405  0.00  0.00    +0.193 C 
ATOM     40  C   UNL     1       8.826  -1.711  23.124  0.00  0.00    +0.094 C 
ENDROOT
BRANCH   5  41
ATOM     41  O   UNL     1       4.001   2.182  23.279  0.00  0.00    -0.491 OA
ATOM     42  C   UNL     1       3.019   3.098  23.768  0.00  0.00    +0.277 C 
ENDBRANCH   5  41
BRANCH   9  43
ATOM     43  O   UNL     1       5.536   2.703  29.155  0.00  0.00    -0.491 OA
ATOM     44  C   UNL     1       6.525   1.853  29.779  0.00  0.00    +0.277 C 
ENDBRANCH   9  43
BRANCH  18  45
ATOM     45  O   UNL     1       1.753  -4.623  22.930  0.00  0.00    -0.491 OA
ATOM     46  C   UNL     1       0.759  -5.601  22.638  0.00  0.00    +0.277 C 
ENDBRANCH  18  45
BRANCH  19  47
ATOM     47  O   UNL     1       4.317  -3.837  23.484  0.00  0.00    -0.488 OA
ATOM     48  C   UNL     1       4.552  -5.002  22.669  0.00  0.00    +0.277 C 
ENDBRANCH  19  47
TORSDOF 4
ENDMDL
