MODEL 1
REMARK VINA RESULT:      -6.4      0.000      0.000
REMARK  Name = 
REMARK  12 active torsions:
REMARK  status: ('A' for Active; 'I' for Inactive)
REMARK    1  A    between atoms: C_1  and  O_2
REMARK    2  A    between atoms: O_2  and  C_3
REMARK    3  A    between atoms: C_8  and  O_9
REMARK    4  A    between atoms: O_9  and  C_10
REMARK    5  A    between atoms: C_10  and  C_11
REMARK    6  A    between atoms: C_11  and  N_12
REMARK    7  A    between atoms: N_12  and  C_13
REMARK    8  A    between atoms: C_13  and  C_14
REMARK    9  A    between atoms: C_14  and  O_15
REMARK   10  A    between atoms: C_14  and  C_16
REMARK   11  A    between atoms: C_16  and  O_17
REMARK   12  A    between atoms: O_17  and  C_18
REMARK                            x       y       z     vdW  Elec       q    Type
REMARK                         _______ _______ _______ _____ _____    ______ ____
ROOT
ATOM      1  C   UNL     1       9.764  -4.711  25.426  0.00  0.00    +0.166 C 
ENDROOT
BRANCH   1   2
ATOM      2  O   UNL     1       9.561  -6.052  24.972  0.00  0.00    -0.387 OA
ATOM      3  H   UNL     1      10.442  -6.472  24.973  0.00  0.00    +0.210 HD
ENDBRANCH   1   2
BRANCH   1   4
ATOM      4  C   UNL     1       8.906  -4.462  26.688  0.00  0.00    +0.115 C 
BRANCH   4   5
ATOM      5  N   UNL     1       8.046  -5.617  27.036  0.00  0.00    -0.310 NA
ATOM      6  H   UNL     1       7.911  -6.215  26.225  0.00  0.00    +0.122 HD
BRANCH   5   7
ATOM      7  C   UNL     1       6.704  -5.199  27.495  0.00  0.00    +0.122 C 
BRANCH   7   8
ATOM      8  C   UNL     1       6.344  -3.766  27.078  0.00  0.00    +0.244 C 
BRANCH   8   9
ATOM      9  O   UNL     1       5.281  -3.748  26.136  0.00  0.00    -0.487 OA
BRANCH   9  11
ATOM     10  C   UNL     1       5.917  -4.819  23.950  0.00  0.00    +0.161 A 
ATOM     11  C   UNL     1       5.642  -3.730  24.805  0.00  0.00    +0.162 A 
ATOM     12  C   UNL     1       5.709  -2.425  24.297  0.00  0.00    +0.049 A 
ATOM     13  C   UNL     1       6.057  -2.187  22.969  0.00  0.00    +0.004 A 
ATOM     14  C   UNL     1       6.350  -3.255  22.132  0.00  0.00    +0.004 A 
ATOM     15  C   UNL     1       6.287  -4.561  22.619  0.00  0.00    +0.049 A 
BRANCH  10  17
ATOM     16  C   UNL     1       4.589  -6.754  24.402  0.00  0.00    +0.277 C 
ATOM     17  O   UNL     1       5.851  -6.097  24.443  0.00  0.00    -0.491 OA
ENDBRANCH  10  17
ENDBRANCH   9  11
ENDBRANCH   8   9
ENDBRANCH   7   8
ENDBRANCH   5   7
ENDBRANCH   4   5
ENDBRANCH   1   4
BRANCH   1  18
ATOM     18  C   UNL     1       9.395  -3.701  24.330  0.00  0.00    +0.261 C 
BRANCH  18  19
ATOM     19  O   UNL     1       9.878  -2.394  24.633  0.00  0.00    -0.489 OA
BRANCH  19  20
ATOM     20  C   UNL     1       9.588  -1.427  23.697  0.00  0.00    +0.130 A 
ATOM     21  C   UNL     1       8.819  -0.314  24.113  0.00  0.00    +0.049 A 
ATOM     22  C   UNL     1       8.239   0.093  25.364  0.00  0.00    +0.011 A 
ATOM     23  C   UNL     1       7.578   1.299  25.149  0.00  0.00    +0.048 A 
ATOM     24  N   UNL     1       7.746   1.622  23.827  0.00  0.00    -0.354 N 
ATOM     25  H   UNL     1       7.369   2.450  23.393  0.00  0.00    +0.166 HD
ATOM     26  C   UNL     1       6.886   1.985  26.157  0.00  0.00    +0.026 A 
ATOM     27  C   UNL     1       6.874   1.417  27.434  0.00  0.00    +0.002 A 
ATOM     28  C   UNL     1       7.532   0.216  27.686  0.00  0.00    +0.001 A 
ATOM     29  C   UNL     1       8.219  -0.453  26.665  0.00  0.00    +0.011 A 
ATOM     30  C   UNL     1       8.494   0.672  23.177  0.00  0.00    +0.051 A 
ATOM     31  C   UNL     1       8.899   0.618  21.839  0.00  0.00    +0.026 A 
ATOM     32  C   UNL     1       9.660  -0.477  21.443  0.00  0.00    +0.006 A 
ATOM     33  C   UNL     1       9.997  -1.480  22.349  0.00  0.00    +0.046 A 
ENDBRANCH  19  20
ENDBRANCH  18  19
ENDBRANCH   1  18
TORSDOF 11
ENDMDL
MODEL 2
REMARK VINA RESULT:      -6.4      2.240      6.815
REMARK  Name = 
REMARK  12 active torsions:
REMARK  status: ('A' for Active; 'I' for Inactive)
REMARK    1  A    between atoms: C_1  and  O_2
REMARK    2  A    between atoms: O_2  and  C_3
REMARK    3  A    between atoms: C_8  and  O_9
REMARK    4  A    between atoms: O_9  and  C_10
REMARK    5  A    between atoms: C_10  and  C_11
REMARK    6  A    between atoms: C_11  and  N_12
REMARK    7  A    between atoms: N_12  and  C_13
REMARK    8  A    between atoms: C_13  and  C_14
REMARK    9  A    between atoms: C_14  and  O_15
REMARK   10  A    between atoms: C_14  and  C_16
REMARK   11  A    between atoms: C_16  and  O_17
REMARK   12  A    between atoms: O_17  and  C_18
REMARK                            x       y       z     vdW  Elec       q    Type
REMARK                         _______ _______ _______ _____ _____    ______ ____
ROOT
ATOM      1  C   UNL     1       9.687  -2.273  23.532  0.00  0.00    +0.166 C 
ENDROOT
BRANCH   1   2
ATOM      2  O   UNL     1      10.161  -1.155  24.286  0.00  0.00    -0.387 OA
ATOM      3  H   UNL     1       9.384  -0.582  24.433  0.00  0.00    +0.210 HD
ENDBRANCH   1   2
BRANCH   1   4
ATOM      4  C   UNL     1       9.075  -1.772  22.203  0.00  0.00    +0.115 C 
BRANCH   4   5
ATOM      5  N   UNL     1       9.917  -0.756  21.529  0.00  0.00    -0.310 NA
ATOM      6  H   UNL     1      10.750  -0.564  22.080  0.00  0.00    +0.122 HD
BRANCH   5   7
ATOM      7  C   UNL     1       9.210   0.530  21.351  0.00  0.00    +0.122 C 
BRANCH   7   8
ATOM      8  C   UNL     1       9.972   1.724  21.947  0.00  0.00    +0.244 C 
BRANCH   8   9
ATOM      9  O   UNL     1      10.148   1.582  23.350  0.00  0.00    -0.487 OA
BRANCH   9  11
ATOM     10  C   UNL     1       8.341   1.987  25.053  0.00  0.00    +0.161 A 
ATOM     11  C   UNL     1       9.354   2.376  24.150  0.00  0.00    +0.162 A 
ATOM     12  C   UNL     1       9.660   3.737  24.008  0.00  0.00    +0.049 A 
ATOM     13  C   UNL     1       8.971   4.709  24.731  0.00  0.00    +0.004 A 
ATOM     14  C   UNL     1       7.959   4.330  25.603  0.00  0.00    +0.004 A 
ATOM     15  C   UNL     1       7.642   2.980  25.759  0.00  0.00    +0.049 A 
BRANCH  10  17
ATOM     16  C   UNL     1       6.854   0.177  24.572  0.00  0.00    +0.277 C 
ATOM     17  O   UNL     1       8.040   0.656  25.196  0.00  0.00    -0.491 OA
ENDBRANCH  10  17
ENDBRANCH   9  11
ENDBRANCH   8   9
ENDBRANCH   7   8
ENDBRANCH   5   7
ENDBRANCH   4   5
ENDBRANCH   1   4
BRANCH   1  18
ATOM     18  C   UNL     1       8.639  -3.066  24.328  0.00  0.00    +0.261 C 
BRANCH  18  19
ATOM     19  O   UNL     1       8.680  -4.456  24.013  0.00  0.00    -0.489 OA
BRANCH  19  20
ATOM     20  C   UNL     1       7.555  -4.952  23.394  0.00  0.00    +0.130 A 
ATOM     21  C   UNL     1       6.539  -5.505  24.211  0.00  0.00    +0.049 A 
ATOM     22  C   UNL     1       6.374  -5.672  25.629  0.00  0.00    +0.011 A 
ATOM     23  C   UNL     1       5.150  -6.300  25.839  0.00  0.00    +0.048 A 
ATOM     24  N   UNL     1       4.585  -6.508  24.606  0.00  0.00    -0.354 N 
ATOM     25  H   UNL     1       3.691  -6.949  24.459  0.00  0.00    +0.166 HD
ATOM     26  C   UNL     1       4.664  -6.630  27.112  0.00  0.00    +0.026 A 
ATOM     27  C   UNL     1       5.462  -6.301  28.212  0.00  0.00    +0.002 A 
ATOM     28  C   UNL     1       6.688  -5.664  28.039  0.00  0.00    +0.001 A 
ATOM     29  C   UNL     1       7.154  -5.343  26.758  0.00  0.00    +0.011 A 
ATOM     30  C   UNL     1       5.397  -6.035  23.605  0.00  0.00    +0.051 A 
ATOM     31  C   UNL     1       5.199  -6.040  22.220  0.00  0.00    +0.026 A 
ATOM     32  C   UNL     1       6.201  -5.489  21.427  0.00  0.00    +0.006 A 
ATOM     33  C   UNL     1       7.355  -4.958  21.998  0.00  0.00    +0.046 A 
ENDBRANCH  19  20
ENDBRANCH  18  19
ENDBRANCH   1  18
TORSDOF 11
ENDMDL
MODEL 3
REMARK VINA RESULT:      -6.1      2.121      3.982
REMARK  Name = 
REMARK  12 active torsions:
REMARK  status: ('A' for Active; 'I' for Inactive)
REMARK    1  A    between atoms: C_1  and  O_2
REMARK    2  A    between atoms: O_2  and  C_3
REMARK    3  A    between atoms: C_8  and  O_9
REMARK    4  A    between atoms: O_9  and  C_10
REMARK    5  A    between atoms: C_10  and  C_11
REMARK    6  A    between atoms: C_11  and  N_12
REMARK    7  A    between atoms: N_12  and  C_13
REMARK    8  A    between atoms: C_13  and  C_14
REMARK    9  A    between atoms: C_14  and  O_15
REMARK   10  A    between atoms: C_14  and  C_16
REMARK   11  A    between atoms: C_16  and  O_17
REMARK   12  A    between atoms: O_17  and  C_18
REMARK                            x       y       z     vdW  Elec       q    Type
REMARK                         _______ _______ _______ _____ _____    ______ ____
ROOT
ATOM      1  C   UNL     1       5.735   0.965  25.053  0.00  0.00    +0.166 C 
ENDROOT
BRANCH   1   2
ATOM      2  O   UNL     1       4.607   1.620  24.467  0.00  0.00    -0.387 OA
ATOM      3  H   UNL     1       3.932   1.671  25.170  0.00  0.00    +0.210 HD
ENDBRANCH   1   2
BRANCH   1   4
ATOM      4  C   UNL     1       5.312   0.318  26.392  0.00  0.00    +0.115 C 
BRANCH   4   5
ATOM      5  N   UNL     1       3.911  -0.164  26.382  0.00  0.00    -0.310 NA
ATOM      6  H   UNL     1       3.316   0.469  26.912  0.00  0.00    +0.122 HD
BRANCH   5   7
ATOM      7  C   UNL     1       3.773  -1.502  26.994  0.00  0.00    +0.122 C 
BRANCH   7   8
ATOM      8  C   UNL     1       3.713  -2.635  25.959  0.00  0.00    +0.244 C 
BRANCH   8   9
ATOM      9  O   UNL     1       4.928  -3.371  25.920  0.00  0.00    -0.487 OA
BRANCH   9  11
ATOM     10  C   UNL     1       5.762  -4.937  24.135  0.00  0.00    +0.161 A 
ATOM     11  C   UNL     1       5.420  -3.674  24.668  0.00  0.00    +0.162 A 
ATOM     12  C   UNL     1       5.559  -2.532  23.867  0.00  0.00    +0.049 A 
ATOM     13  C   UNL     1       6.042  -2.622  22.563  0.00  0.00    +0.004 A 
ATOM     14  C   UNL     1       6.399  -3.859  22.044  0.00  0.00    +0.004 A 
ATOM     15  C   UNL     1       6.265  -5.007  22.826  0.00  0.00    +0.049 A 
BRANCH  10  17
ATOM     16  C   UNL     1       4.527  -6.920  24.641  0.00  0.00    +0.277 C 
ATOM     17  O   UNL     1       5.625  -6.057  24.915  0.00  0.00    -0.491 OA
ENDBRANCH  10  17
ENDBRANCH   9  11
ENDBRANCH   8   9
ENDBRANCH   7   8
ENDBRANCH   5   7
ENDBRANCH   4   5
ENDBRANCH   1   4
BRANCH   1  18
ATOM     18  C   UNL     1       6.883   1.957  25.286  0.00  0.00    +0.261 C 
BRANCH  18  19
ATOM     19  O   UNL     1       8.144   1.294  25.367  0.00  0.00    -0.489 OA
BRANCH  19  20
ATOM     20  C   UNL     1       8.678   0.895  24.163  0.00  0.00    +0.130 A 
ATOM     21  C   UNL     1       8.997  -0.474  24.001  0.00  0.00    +0.049 A 
ATOM     22  C   UNL     1       8.876  -1.637  24.839  0.00  0.00    +0.011 A 
ATOM     23  C   UNL     1       9.373  -2.723  24.124  0.00  0.00    +0.048 A 
ATOM     24  N   UNL     1       9.778  -2.252  22.902  0.00  0.00    -0.354 N 
ATOM     25  H   UNL     1      10.181  -2.826  22.178  0.00  0.00    +0.166 HD
ATOM     26  C   UNL     1       9.419  -4.025  24.641  0.00  0.00    +0.026 A 
ATOM     27  C   UNL     1       8.935  -4.223  25.938  0.00  0.00    +0.002 A 
ATOM     28  C   UNL     1       8.423  -3.160  26.678  0.00  0.00    +0.001 A 
ATOM     29  C   UNL     1       8.385  -1.867  26.142  0.00  0.00    +0.011 A 
ATOM     30  C   UNL     1       9.560  -0.901  22.795  0.00  0.00    +0.051 A 
ATOM     31  C   UNL     1       9.820  -0.038  21.726  0.00  0.00    +0.026 A 
ATOM     32  C   UNL     1       9.497   1.306  21.893  0.00  0.00    +0.006 A 
ATOM     33  C   UNL     1       8.940   1.765  23.084  0.00  0.00    +0.046 A 
ENDBRANCH  19  20
ENDBRANCH  18  19
ENDBRANCH   1  18
TORSDOF 11
ENDMDL
MODEL 4
REMARK VINA RESULT:      -6.0      2.846      4.389
REMARK  Name = 
REMARK  12 active torsions:
REMARK  status: ('A' for Active; 'I' for Inactive)
REMARK    1  A    between atoms: C_1  and  O_2
REMARK    2  A    between atoms: O_2  and  C_3
REMARK    3  A    between atoms: C_8  and  O_9
REMARK    4  A    between atoms: O_9  and  C_10
REMARK    5  A    between atoms: C_10  and  C_11
REMARK    6  A    between atoms: C_11  and  N_12
REMARK    7  A    between atoms: N_12  and  C_13
REMARK    8  A    between atoms: C_13  and  C_14
REMARK    9  A    between atoms: C_14  and  O_15
REMARK   10  A    between atoms: C_14  and  C_16
REMARK   11  A    between atoms: C_16  and  O_17
REMARK   12  A    between atoms: O_17  and  C_18
REMARK                            x       y       z     vdW  Elec       q    Type
REMARK                         _______ _______ _______ _____ _____    ______ ____
ROOT
ATOM      1  C   UNL     1       9.446  -1.478  21.937  0.00  0.00    +0.166 C 
ENDROOT
BRANCH   1   2
ATOM      2  O   UNL     1       8.150  -2.082  21.902  0.00  0.00    -0.387 OA
ATOM      3  H   UNL     1       8.304  -3.045  21.867  0.00  0.00    +0.210 HD
ENDBRANCH   1   2
BRANCH   1   4
ATOM      4  C   UNL     1      10.189  -1.935  23.214  0.00  0.00    +0.115 C 
BRANCH   4   5
ATOM      5  N   UNL     1       9.279  -2.493  24.241  0.00  0.00    -0.310 NA
ATOM      6  H   UNL     1       9.314  -1.930  25.087  0.00  0.00    +0.122 HD
BRANCH   5   7
ATOM      7  C   UNL     1       9.644  -3.874  24.624  0.00  0.00    +0.122 C 
BRANCH   7   8
ATOM      8  C   UNL     1       8.476  -4.863  24.496  0.00  0.00    +0.244 C 
BRANCH   8   9
ATOM      9  O   UNL     1       7.752  -4.662  23.290  0.00  0.00    -0.487 OA
BRANCH   9  11
ATOM     10  C   UNL     1       5.564  -3.575  23.890  0.00  0.00    +0.161 A 
ATOM     11  C   UNL     1       6.379  -4.619  23.400  0.00  0.00    +0.162 A 
ATOM     12  C   UNL     1       5.777  -5.795  22.930  0.00  0.00    +0.049 A 
ATOM     13  C   UNL     1       4.392  -5.954  22.953  0.00  0.00    +0.004 A 
ATOM     14  C   UNL     1       3.591  -4.938  23.455  0.00  0.00    +0.004 A 
ATOM     15  C   UNL     1       4.172  -3.759  23.925  0.00  0.00    +0.049 A 
BRANCH  10  17
ATOM     16  C   UNL     1       6.082  -2.160  25.746  0.00  0.00    +0.277 C 
ATOM     17  O   UNL     1       6.149  -2.422  24.349  0.00  0.00    -0.491 OA
ENDBRANCH  10  17
ENDBRANCH   9  11
ENDBRANCH   8   9
ENDBRANCH   7   8
ENDBRANCH   5   7
ENDBRANCH   4   5
ENDBRANCH   1   4
BRANCH   1  18
ATOM     18  C   UNL     1       9.337   0.053  21.911  0.00  0.00    +0.261 C 
BRANCH  18  19
ATOM     19  O   UNL     1       9.468   0.613  23.216  0.00  0.00    -0.489 OA
BRANCH  19  20
ATOM     20  C   UNL     1       8.414   1.398  23.628  0.00  0.00    +0.130 A 
ATOM     21  C   UNL     1       8.659   2.776  23.842  0.00  0.00    +0.049 A 
ATOM     22  C   UNL     1       9.814   3.620  23.709  0.00  0.00    +0.011 A 
ATOM     23  C   UNL     1       9.438   4.909  24.076  0.00  0.00    +0.048 A 
ATOM     24  N   UNL     1       8.110   4.860  24.416  0.00  0.00    -0.354 N 
ATOM     25  H   UNL     1       7.574   5.657  24.724  0.00  0.00    +0.166 HD
ATOM     26  C   UNL     1      10.322   5.997  24.075  0.00  0.00    +0.026 A 
ATOM     27  C   UNL     1      11.641   5.756  23.680  0.00  0.00    +0.002 A 
ATOM     28  C   UNL     1      12.050   4.481  23.299  0.00  0.00    +0.001 A 
ATOM     29  C   UNL     1      11.150   3.408  23.305  0.00  0.00    +0.011 A 
ATOM     30  C   UNL     1       7.611   3.589  24.281  0.00  0.00    +0.051 A 
ATOM     31  C   UNL     1       6.318   3.110  24.515  0.00  0.00    +0.026 A 
ATOM     32  C   UNL     1       6.086   1.755  24.295  0.00  0.00    +0.006 A 
ATOM     33  C   UNL     1       7.110   0.915  23.863  0.00  0.00    +0.046 A 
ENDBRANCH  19  20
ENDBRANCH  18  19
ENDBRANCH   1  18
TORSDOF 11
ENDMDL
MODEL 5
REMARK VINA RESULT:      -5.9      1.473      2.223
REMARK  Name = 
REMARK  12 active torsions:
REMARK  status: ('A' for Active; 'I' for Inactive)
REMARK    1  A    between atoms: C_1  and  O_2
REMARK    2  A    between atoms: O_2  and  C_3
REMARK    3  A    between atoms: C_8  and  O_9
REMARK    4  A    between atoms: O_9  and  C_10
REMARK    5  A    between atoms: C_10  and  C_11
REMARK    6  A    between atoms: C_11  and  N_12
REMARK    7  A    between atoms: N_12  and  C_13
REMARK    8  A    between atoms: C_13  and  C_14
REMARK    9  A    between atoms: C_14  and  O_15
REMARK   10  A    between atoms: C_14  and  C_16
REMARK   11  A    between atoms: C_16  and  O_17
REMARK   12  A    between atoms: O_17  and  C_18
REMARK                            x       y       z     vdW  Elec       q    Type
REMARK                         _______ _______ _______ _____ _____    ______ ____
ROOT
ATOM      1  C   UNL     1       9.241  -4.633  25.252  0.00  0.00    +0.166 C 
ENDROOT
BRANCH   1   2
ATOM      2  O   UNL     1      10.247  -5.641  25.386  0.00  0.00    -0.387 OA
ATOM      3  H   UNL     1      11.092  -5.208  25.158  0.00  0.00    +0.210 HD
ENDBRANCH   1   2
BRANCH   1   4
ATOM      4  C   UNL     1       8.008  -5.233  24.538  0.00  0.00    +0.115 C 
BRANCH   4   5
ATOM      5  N   UNL     1       8.205  -5.383  23.077  0.00  0.00    -0.310 NA
ATOM      6  H   UNL     1       8.413  -4.482  22.653  0.00  0.00    +0.122 HD
BRANCH   5   7
ATOM      7  C   UNL     1       7.003  -5.913  22.400  0.00  0.00    +0.122 C 
BRANCH   7   8
ATOM      8  C   UNL     1       6.301  -4.871  21.515  0.00  0.00    +0.244 C 
BRANCH   8   9
ATOM      9  O   UNL     1       4.994  -4.580  21.989  0.00  0.00    -0.487 OA
BRANCH   9  11
ATOM     10  C   UNL     1       4.290  -4.394  24.397  0.00  0.00    +0.161 A 
ATOM     11  C   UNL     1       4.912  -3.947  23.211  0.00  0.00    +0.162 A 
ATOM     12  C   UNL     1       5.569  -2.709  23.207  0.00  0.00    +0.049 A 
ATOM     13  C   UNL     1       5.604  -1.908  24.347  0.00  0.00    +0.004 A 
ATOM     14  C   UNL     1       4.974  -2.335  25.507  0.00  0.00    +0.004 A 
ATOM     15  C   UNL     1       4.317  -3.566  25.532  0.00  0.00    +0.049 A 
BRANCH  10  17
ATOM     16  C   UNL     1       4.372  -6.732  24.890  0.00  0.00    +0.277 C 
ATOM     17  O   UNL     1       3.648  -5.606  24.406  0.00  0.00    -0.491 OA
ENDBRANCH  10  17
ENDBRANCH   9  11
ENDBRANCH   8   9
ENDBRANCH   7   8
ENDBRANCH   5   7
ENDBRANCH   4   5
ENDBRANCH   1   4
BRANCH   1  18
ATOM     18  C   UNL     1       9.774  -3.430  24.462  0.00  0.00    +0.261 C 
BRANCH  18  19
ATOM     19  O   UNL     1       9.071  -2.232  24.787  0.00  0.00    -0.489 OA
BRANCH  19  20
ATOM     20  C   UNL     1       9.180  -1.216  23.864  0.00  0.00    +0.130 A 
ATOM     21  C   UNL     1       8.702   0.064  24.231  0.00  0.00    +0.049 A 
ATOM     22  C   UNL     1       8.103   0.608  25.419  0.00  0.00    +0.011 A 
ATOM     23  C   UNL     1       7.833   1.952  25.177  0.00  0.00    +0.048 A 
ATOM     24  N   UNL     1       8.249   2.224  23.899  0.00  0.00    -0.354 N 
ATOM     25  H   UNL     1       8.173   3.127  23.458  0.00  0.00    +0.166 HD
ATOM     26  C   UNL     1       7.236   2.797  26.123  0.00  0.00    +0.026 A 
ATOM     27  C   UNL     1       6.906   2.246  27.364  0.00  0.00    +0.002 A 
ATOM     28  C   UNL     1       7.170   0.908  27.644  0.00  0.00    +0.001 A 
ATOM     29  C   UNL     1       7.769   0.081  26.685  0.00  0.00    +0.011 A 
ATOM     30  C   UNL     1       8.782   1.107  23.304  0.00  0.00    +0.051 A 
ATOM     31  C   UNL     1       9.322   0.952  22.024  0.00  0.00    +0.026 A 
ATOM     32  C   UNL     1       9.796  -0.309  21.676  0.00  0.00    +0.006 A 
ATOM     33  C   UNL     1       9.726  -1.372  22.573  0.00  0.00    +0.046 A 
ENDBRANCH  19  20
ENDBRANCH  18  19
ENDBRANCH   1  18
TORSDOF 11
ENDMDL
MODEL 6
REMARK VINA RESULT:      -5.9      2.153      3.595
REMARK  Name = 
REMARK  12 active torsions:
REMARK  status: ('A' for Active; 'I' for Inactive)
REMARK    1  A    between atoms: C_1  and  O_2
REMARK    2  A    between atoms: O_2  and  C_3
REMARK    3  A    between atoms: C_8  and  O_9
REMARK    4  A    between atoms: O_9  and  C_10
REMARK    5  A    between atoms: C_10  and  C_11
REMARK    6  A    between atoms: C_11  and  N_12
REMARK    7  A    between atoms: N_12  and  C_13
REMARK    8  A    between atoms: C_13  and  C_14
REMARK    9  A    between atoms: C_14  and  O_15
REMARK   10  A    between atoms: C_14  and  C_16
REMARK   11  A    between atoms: C_16  and  O_17
REMARK   12  A    between atoms: O_17  and  C_18
REMARK                            x       y       z     vdW  Elec       q    Type
REMARK                         _______ _______ _______ _____ _____    ______ ____
ROOT
ATOM      1  C   UNL     1       7.770  -0.144  26.747  0.00  0.00    +0.166 C 
ENDROOT
BRANCH   1   2
ATOM      2  O   UNL     1       7.891   0.483  28.027  0.00  0.00    -0.387 OA
ATOM      3  H   UNL     1       8.778   0.891  28.042  0.00  0.00    +0.210 HD
ENDBRANCH   1   2
BRANCH   1   4
ATOM      4  C   UNL     1       6.669  -1.228  26.811  0.00  0.00    +0.115 C 
BRANCH   4   5
ATOM      5  N   UNL     1       5.555  -0.974  25.868  0.00  0.00    -0.310 NA
ATOM      6  H   UNL     1       5.077  -1.843  25.642  0.00  0.00    +0.122 HD
BRANCH   5   7
ATOM      7  C   UNL     1       6.022  -0.393  24.591  0.00  0.00    +0.122 C 
BRANCH   7   8
ATOM      8  C   UNL     1       6.408  -1.456  23.551  0.00  0.00    +0.244 C 
BRANCH   8   9
ATOM      9  O   UNL     1       5.732  -2.684  23.785  0.00  0.00    -0.487 OA
BRANCH   9  11
ATOM     10  C   UNL     1       7.135  -4.767  23.638  0.00  0.00    +0.161 A 
ATOM     11  C   UNL     1       6.240  -3.794  23.144  0.00  0.00    +0.162 A 
ATOM     12  C   UNL     1       5.746  -3.917  21.837  0.00  0.00    +0.049 A 
ATOM     13  C   UNL     1       6.136  -4.974  21.017  0.00  0.00    +0.004 A 
ATOM     14  C   UNL     1       7.033  -5.920  21.493  0.00  0.00    +0.004 A 
ATOM     15  C   UNL     1       7.533  -5.815  22.792  0.00  0.00    +0.049 A 
BRANCH  10  17
ATOM     16  C   UNL     1       8.984  -4.283  25.074  0.00  0.00    +0.277 C 
ATOM     17  O   UNL     1       7.618  -4.651  24.916  0.00  0.00    -0.491 OA
ENDBRANCH  10  17
ENDBRANCH   9  11
ENDBRANCH   8   9
ENDBRANCH   7   8
ENDBRANCH   5   7
ENDBRANCH   4   5
ENDBRANCH   1   4
BRANCH   1  18
ATOM     18  C   UNL     1       9.103  -0.772  26.317  0.00  0.00    +0.261 C 
BRANCH  18  19
ATOM     19  O   UNL     1       9.875   0.123  25.520  0.00  0.00    -0.489 OA
BRANCH  19  20
ATOM     20  C   UNL     1       9.758  -0.048  24.159  0.00  0.00    +0.130 A 
ATOM     21  C   UNL     1       9.178   1.002  23.407  0.00  0.00    +0.049 A 
ATOM     22  C   UNL     1       8.661   2.302  23.736  0.00  0.00    +0.011 A 
ATOM     23  C   UNL     1       8.209   2.886  22.555  0.00  0.00    +0.048 A 
ATOM     24  N   UNL     1       8.441   1.987  21.546  0.00  0.00    -0.354 N 
ATOM     25  H   UNL     1       8.210   2.149  20.578  0.00  0.00    +0.166 HD
ATOM     26  C   UNL     1       7.630   4.161  22.502  0.00  0.00    +0.026 A 
ATOM     27  C   UNL     1       7.511   4.867  23.703  0.00  0.00    +0.002 A 
ATOM     28  C   UNL     1       7.960   4.317  24.901  0.00  0.00    +0.001 A 
ATOM     29  C   UNL     1       8.538   3.041  24.932  0.00  0.00    +0.011 A 
ATOM     30  C   UNL     1       9.029   0.843  22.027  0.00  0.00    +0.051 A 
ATOM     31  C   UNL     1       9.433  -0.307  21.342  0.00  0.00    +0.026 A 
ATOM     32  C   UNL     1      10.008  -1.330  22.089  0.00  0.00    +0.006 A 
ATOM     33  C   UNL     1      10.166  -1.207  23.468  0.00  0.00    +0.046 A 
ENDBRANCH  19  20
ENDBRANCH  18  19
ENDBRANCH   1  18
TORSDOF 11
ENDMDL
MODEL 7
REMARK VINA RESULT:      -5.9      1.939      3.778
REMARK  Name = 
REMARK  12 active torsions:
REMARK  status: ('A' for Active; 'I' for Inactive)
REMARK    1  A    between atoms: C_1  and  O_2
REMARK    2  A    between atoms: O_2  and  C_3
REMARK    3  A    between atoms: C_8  and  O_9
REMARK    4  A    between atoms: O_9  and  C_10
REMARK    5  A    between atoms: C_10  and  C_11
REMARK    6  A    between atoms: C_11  and  N_12
REMARK    7  A    between atoms: N_12  and  C_13
REMARK    8  A    between atoms: C_13  and  C_14
REMARK    9  A    between atoms: C_14  and  O_15
REMARK   10  A    between atoms: C_14  and  C_16
REMARK   11  A    between atoms: C_16  and  O_17
REMARK   12  A    between atoms: O_17  and  C_18
REMARK                            x       y       z     vdW  Elec       q    Type
REMARK                         _______ _______ _______ _____ _____    ______ ____
ROOT
ATOM      1  C   UNL     1       6.569  -0.545  25.377  0.00  0.00    +0.166 C 
ENDROOT
BRANCH   1   2
ATOM      2  O   UNL     1       5.676  -0.070  26.388  0.00  0.00    -0.387 OA
ATOM      3  H   UNL     1       5.487  -0.837  26.961  0.00  0.00    +0.210 HD
ENDBRANCH   1   2
BRANCH   1   4
ATOM      4  C   UNL     1       5.883  -1.679  24.581  0.00  0.00    +0.115 C 
BRANCH   4   5
ATOM      5  N   UNL     1       6.084  -1.559  23.118  0.00  0.00    -0.310 NA
ATOM      6  H   UNL     1       5.449  -0.867  22.729  0.00  0.00    +0.122 HD
BRANCH   5   7
ATOM      7  C   UNL     1       5.825  -2.831  22.410  0.00  0.00    +0.122 C 
BRANCH   7   8
ATOM      8  C   UNL     1       7.098  -3.658  22.172  0.00  0.00    +0.244 C 
BRANCH   8   9
ATOM      9  O   UNL     1       7.005  -4.942  22.774  0.00  0.00    -0.487 OA
BRANCH   9  11
ATOM     10  C   UNL     1       6.409  -5.406  25.174  0.00  0.00    +0.161 A 
ATOM     11  C   UNL     1       7.267  -5.006  24.126  0.00  0.00    +0.162 A 
ATOM     12  C   UNL     1       8.582  -4.624  24.424  0.00  0.00    +0.049 A 
ATOM     13  C   UNL     1       9.050  -4.618  25.737  0.00  0.00    +0.004 A 
ATOM     14  C   UNL     1       8.202  -4.990  26.772  0.00  0.00    +0.004 A 
ATOM     15  C   UNL     1       6.890  -5.375  26.493  0.00  0.00    +0.049 A 
BRANCH  10  17
ATOM     16  C   UNL     1       4.077  -4.884  25.241  0.00  0.00    +0.277 C 
ATOM     17  O   UNL     1       5.123  -5.782  24.885  0.00  0.00    -0.491 OA
ENDBRANCH  10  17
ENDBRANCH   9  11
ENDBRANCH   8   9
ENDBRANCH   7   8
ENDBRANCH   5   7
ENDBRANCH   4   5
ENDBRANCH   1   4
BRANCH   1  18
ATOM     18  C   UNL     1       7.877  -1.054  25.999  0.00  0.00    +0.261 C 
BRANCH  18  19
ATOM     19  O   UNL     1       8.990  -0.249  25.618  0.00  0.00    -0.489 OA
BRANCH  19  20
ATOM     20  C   UNL     1       9.236  -0.186  24.265  0.00  0.00    +0.130 A 
ATOM     21  C   UNL     1       8.992   1.043  23.604  0.00  0.00    +0.049 A 
ATOM     22  C   UNL     1       8.535   2.337  24.032  0.00  0.00    +0.011 A 
ATOM     23  C   UNL     1       8.486   3.158  22.909  0.00  0.00    +0.048 A 
ATOM     24  N   UNL     1       8.898   2.404  21.840  0.00  0.00    -0.354 N 
ATOM     25  H   UNL     1       8.959   2.748  20.894  0.00  0.00    +0.166 HD
ATOM     26  C   UNL     1       8.072   4.496  22.954  0.00  0.00    +0.026 A 
ATOM     27  C   UNL     1       7.697   5.014  24.198  0.00  0.00    +0.002 A 
ATOM     28  C   UNL     1       7.743   4.224  25.343  0.00  0.00    +0.001 A 
ATOM     29  C   UNL     1       8.161   2.889  25.276  0.00  0.00    +0.011 A 
ATOM     30  C   UNL     1       9.215   1.126  22.227  0.00  0.00    +0.051 A 
ATOM     31  C   UNL     1       9.676   0.052  21.461  0.00  0.00    +0.026 A 
ATOM     32  C   UNL     1       9.919  -1.150  22.121  0.00  0.00    +0.006 A 
ATOM     33  C   UNL     1       9.703  -1.269  23.492  0.00  0.00    +0.046 A 
ENDBRANCH  19  20
ENDBRANCH  18  19
ENDBRANCH   1  18
TORSDOF 11
ENDMDL
MODEL 8
REMARK VINA RESULT:      -5.9      1.990      5.456
REMARK  Name = 
REMARK  12 active torsions:
REMARK  status: ('A' for Active; 'I' for Inactive)
REMARK    1  A    between atoms: C_1  and  O_2
REMARK    2  A    between atoms: O_2  and  C_3
REMARK    3  A    between atoms: C_8  and  O_9
REMARK    4  A    between atoms: O_9  and  C_10
REMARK    5  A    between atoms: C_10  and  C_11
REMARK    6  A    between atoms: C_11  and  N_12
REMARK    7  A    between atoms: N_12  and  C_13
REMARK    8  A    between atoms: C_13  and  C_14
REMARK    9  A    between atoms: C_14  and  O_15
REMARK   10  A    between atoms: C_14  and  C_16
REMARK   11  A    between atoms: C_16  and  O_17
REMARK   12  A    between atoms: O_17  and  C_18
REMARK                            x       y       z     vdW  Elec       q    Type
REMARK                         _______ _______ _______ _____ _____    ______ ____
ROOT
ATOM      1  C   UNL     1       6.089   0.553  25.546  0.00  0.00    +0.166 C 
ENDROOT
BRANCH   1   2
ATOM      2  O   UNL     1       5.132  -0.379  25.035  0.00  0.00    -0.387 OA
ATOM      3  H   UNL     1       4.790   0.014  24.210  0.00  0.00    +0.210 HD
ENDBRANCH   1   2
BRANCH   1   4
ATOM      4  C   UNL     1       6.581   1.463  24.397  0.00  0.00    +0.115 C 
BRANCH   4   5
ATOM      5  N   UNL     1       6.432   0.837  23.063  0.00  0.00    -0.310 NA
ATOM      6  H   UNL     1       5.719   0.112  23.089  0.00  0.00    +0.122 HD
BRANCH   5   7
ATOM      7  C   UNL     1       7.682   0.196  22.602  0.00  0.00    +0.122 C 
BRANCH   7   8
ATOM      8  C   UNL     1       7.584  -1.336  22.532  0.00  0.00    +0.244 C 
BRANCH   8   9
ATOM      9  O   UNL     1       6.286  -1.792  22.885  0.00  0.00    -0.487 OA
BRANCH   9  11
ATOM     10  C   UNL     1       5.151  -3.883  23.703  0.00  0.00    +0.161 A 
ATOM     11  C   UNL     1       6.120  -3.157  22.976  0.00  0.00    +0.162 A 
ATOM     12  C   UNL     1       7.064  -3.854  22.208  0.00  0.00    +0.049 A 
ATOM     13  C   UNL     1       7.070  -5.247  22.163  0.00  0.00    +0.004 A 
ATOM     14  C   UNL     1       6.132  -5.963  22.895  0.00  0.00    +0.004 A 
ATOM     15  C   UNL     1       5.183  -5.287  23.664  0.00  0.00    +0.049 A 
BRANCH  10  17
ATOM     16  C   UNL     1       3.070  -3.921  24.879  0.00  0.00    +0.277 C 
ATOM     17  O   UNL     1       4.225  -3.206  24.454  0.00  0.00    -0.491 OA
ENDBRANCH  10  17
ENDBRANCH   9  11
ENDBRANCH   8   9
ENDBRANCH   7   8
ENDBRANCH   5   7
ENDBRANCH   4   5
ENDBRANCH   1   4
BRANCH   1  18
ATOM     18  C   UNL     1       7.278  -0.178  26.185  0.00  0.00    +0.261 C 
BRANCH  18  19
ATOM     19  O   UNL     1       6.886  -1.424  26.758  0.00  0.00    -0.489 OA
BRANCH  19  20
ATOM     20  C   UNL     1       7.571  -2.526  26.299  0.00  0.00    +0.130 A 
ATOM     21  C   UNL     1       7.082  -3.805  26.656  0.00  0.00    +0.049 A 
ATOM     22  C   UNL     1       5.956  -4.271  27.420  0.00  0.00    +0.011 A 
ATOM     23  C   UNL     1       6.002  -5.662  27.431  0.00  0.00    +0.048 A 
ATOM     24  N   UNL     1       7.103  -6.036  26.704  0.00  0.00    -0.354 N 
ATOM     25  H   UNL     1       7.380  -6.992  26.547  0.00  0.00    +0.166 HD
ATOM     26  C   UNL     1       5.056  -6.455  28.095  0.00  0.00    +0.026 A 
ATOM     27  C   UNL     1       4.023  -5.799  28.772  0.00  0.00    +0.002 A 
ATOM     28  C   UNL     1       3.943  -4.409  28.774  0.00  0.00    +0.001 A 
ATOM     29  C   UNL     1       4.897  -3.635  28.103  0.00  0.00    +0.011 A 
ATOM     30  C   UNL     1       7.772  -4.939  26.219  0.00  0.00    +0.051 A 
ATOM     31  C   UNL     1       8.927  -4.876  25.434  0.00  0.00    +0.026 A 
ATOM     32  C   UNL     1       9.396  -3.613  25.084  0.00  0.00    +0.006 A 
ATOM     33  C   UNL     1       8.736  -2.462  25.507  0.00  0.00    +0.046 A 
ENDBRANCH  19  20
ENDBRANCH  18  19
ENDBRANCH   1  18
TORSDOF 11
ENDMDL
MODEL 9
REMARK VINA RESULT:      -5.8      2.381      4.544
REMARK  Name = 
REMARK  12 active torsions:
REMARK  status: ('A' for Active; 'I' for Inactive)
REMARK    1  A    between atoms: C_1  and  O_2
REMARK    2  A    between atoms: O_2  and  C_3
REMARK    3  A    between atoms: C_8  and  O_9
REMARK    4  A    between atoms: O_9  and  C_10
REMARK    5  A    between atoms: C_10  and  C_11
REMARK    6  A    between atoms: C_11  and  N_12
REMARK    7  A    between atoms: N_12  and  C_13
REMARK    8  A    between atoms: C_13  and  C_14
REMARK    9  A    between atoms: C_14  and  O_15
REMARK   10  A    between atoms: C_14  and  C_16
REMARK   11  A    between atoms: C_16  and  O_17
REMARK   12  A    between atoms: O_17  and  C_18
REMARK                            x       y       z     vdW  Elec       q    Type
REMARK                         _______ _______ _______ _____ _____    ______ ____
ROOT
ATOM      1  C   UNL     1       6.743   2.018  28.139  0.00  0.00    +0.166 C 
ENDROOT
BRANCH   1   2
ATOM      2  O   UNL     1       7.726   2.542  29.036  0.00  0.00    -0.387 OA
ATOM      3  H   UNL     1       7.815   3.488  28.813  0.00  0.00    +0.210 HD
ENDBRANCH   1   2
BRANCH   1   4
ATOM      4  C   UNL     1       7.072   0.539  27.827  0.00  0.00    +0.115 C 
BRANCH   4   5
ATOM      5  N   UNL     1       6.226  -0.024  26.750  0.00  0.00    -0.310 NA
ATOM      6  H   UNL     1       5.715   0.717  26.277  0.00  0.00    +0.122 HD
BRANCH   5   7
ATOM      7  C   UNL     1       5.222  -0.980  27.267  0.00  0.00    +0.122 C 
BRANCH   7   8
ATOM      8  C   UNL     1       5.085  -2.238  26.398  0.00  0.00    +0.244 C 
BRANCH   8   9
ATOM      9  O   UNL     1       6.343  -2.862  26.181  0.00  0.00    -0.487 OA
BRANCH   9  11
ATOM     10  C   UNL     1       7.405  -4.269  24.385  0.00  0.00    +0.161 A 
ATOM     11  C   UNL     1       6.653  -3.179  24.876  0.00  0.00    +0.162 A 
ATOM     12  C   UNL     1       6.103  -2.263  23.968  0.00  0.00    +0.049 A 
ATOM     13  C   UNL     1       6.299  -2.403  22.595  0.00  0.00    +0.004 A 
ATOM     14  C   UNL     1       7.056  -3.461  22.113  0.00  0.00    +0.004 A 
ATOM     15  C   UNL     1       7.610  -4.384  23.000  0.00  0.00    +0.049 A 
BRANCH  10  17
ATOM     16  C   UNL     1       9.252  -4.905  25.764  0.00  0.00    +0.277 C 
ATOM     17  O   UNL     1       7.943  -5.168  25.270  0.00  0.00    -0.491 OA
ENDBRANCH  10  17
ENDBRANCH   9  11
ENDBRANCH   8   9
ENDBRANCH   7   8
ENDBRANCH   5   7
ENDBRANCH   4   5
ENDBRANCH   1   4
BRANCH   1  18
ATOM     18  C   UNL     1       6.701   2.833  26.838  0.00  0.00    +0.261 C 
BRANCH  18  19
ATOM     19  O   UNL     1       7.705   2.411  25.918  0.00  0.00    -0.489 OA
BRANCH  19  20
ATOM     20  C   UNL     1       7.539   2.848  24.623  0.00  0.00    +0.130 A 
ATOM     21  C   UNL     1       8.057   2.042  23.581  0.00  0.00    +0.049 A 
ATOM     22  C   UNL     1       8.747   0.781  23.538  0.00  0.00    +0.011 A 
ATOM     23  C   UNL     1       9.013   0.493  22.202  0.00  0.00    +0.048 A 
ATOM     24  N   UNL     1       8.506   1.527  21.457  0.00  0.00    -0.354 N 
ATOM     25  H   UNL     1       8.559   1.580  20.452  0.00  0.00    +0.166 HD
ATOM     26  C   UNL     1       9.687  -0.664  21.786  0.00  0.00    +0.026 A 
ATOM     27  C   UNL     1      10.102  -1.561  22.775  0.00  0.00    +0.002 A 
ATOM     28  C   UNL     1       9.845  -1.308  24.120  0.00  0.00    +0.001 A 
ATOM     29  C   UNL     1       9.168  -0.147  24.514  0.00  0.00    +0.011 A 
ATOM     30  C   UNL     1       7.919   2.474  22.259  0.00  0.00    +0.051 A 
ATOM     31  C   UNL     1       7.285   3.669  21.908  0.00  0.00    +0.026 A 
ATOM     32  C   UNL     1       6.774   4.451  22.940  0.00  0.00    +0.006 A 
ATOM     33  C   UNL     1       6.899   4.053  24.269  0.00  0.00    +0.046 A 
ENDBRANCH  19  20
ENDBRANCH  18  19
ENDBRANCH   1  18
TORSDOF 11
ENDMDL
