MODEL 1
REMARK VINA RESULT:      -7.2      0.000      0.000
REMARK  Name = 
REMARK  16 active torsions:
REMARK  status: ('A' for Active; 'I' for Inactive)
REMARK    1  A    between atoms: CA_2  and  N_3
REMARK    2  A    between atoms: CA_2  and  C_15
REMARK    3  A    between atoms: CA_2  and  C_18
REMARK    4  A    between atoms: N_3  and  C_4
REMARK    5  A    between atoms: C_5  and  C_6
REMARK    6  A    between atoms: C_15  and  O_16
REMARK    7  A    between atoms: C_18  and  C_19
REMARK    8  A    between atoms: C_18  and  C_20
REMARK    9  A    between atoms: C_18  and  S_33
REMARK   10  A    between atoms: C_20  and  O_21
REMARK   11  A    between atoms: O_21  and  C_22
REMARK   12  A    between atoms: C_22  and  C_24
REMARK   13  A    between atoms: C_24  and  C_25
REMARK   14  A    between atoms: C_27  and  O_28
REMARK   15  A    between atoms: C_29  and  O_30
REMARK   16  A    between atoms: S_33  and  O_34
REMARK                            x       y       z     vdW  Elec       q    Type
REMARK                         _______ _______ _______ _____ _____    ______ ____
ROOT
ATOM      1  C   UNL     1       7.957  -0.891  23.555  0.00  0.00    +0.154 C 
ATOM      2  C   UNL     1       9.210  -1.542  24.164  0.00  0.00    +0.042 C 
ENDROOT
BRANCH   1   3
ATOM      3  S   UNL     1       6.596  -0.802  24.885  0.00  0.00    +0.006 S 
ATOM      4  O   UNL     1       7.093   0.021  26.038  0.00  0.00    -0.166 OA
BRANCH   3   5
ATOM      5  O   UNL     1       5.651   0.215  24.080  0.00  0.00    -0.269 OA
ATOM      6  H   UNL     1       4.738  -0.163  24.140  0.00  0.00    +0.243 HD
ENDBRANCH   3   5
ENDBRANCH   1   3
BRANCH   1   7
ATOM      7  CA  UNL     1       8.176   0.553  22.988  0.00  0.00    +0.212 C 
BRANCH   7   8
ATOM      8  N   UNL     1       8.704   1.531  23.965  0.00  0.00    -0.315 N 
ATOM      9  H   UNL     1       9.271   1.090  24.690  0.00  0.00    +0.148 HD
BRANCH   8  10
ATOM     10  C   UNL     1       8.534   2.890  23.973  0.00  0.00    +0.114 A 
ATOM     11  N   UNL     1       9.672   3.701  23.781  0.00  0.00    -0.304 N 
ATOM     12  C   UNL     1       9.298   5.037  23.858  0.00  0.00    +0.048 A 
ATOM     13  C   UNL     1      10.300   6.037  23.708  0.00  0.00    +0.026 A 
ATOM     14  C   UNL     1      11.569   5.674  23.447  0.00  0.00    +0.003 A 
ATOM     15  C   UNL     1      11.939   4.276  23.319  0.00  0.00    +0.018 A 
ATOM     16  C   UNL     1       7.944   5.091  24.053  0.00  0.00    +0.040 A 
ATOM     17  C   UNL     1      10.999   3.332  23.495  0.00  0.00    +0.093 A 
ATOM     18  C   UNL     1       7.441   3.755  24.122  0.00  0.00    +0.054 A 
BRANCH  18  19
ATOM     19  C   UNL     1       6.024   3.499  24.347  0.00  0.00    +0.262 C 
ATOM     20  O   UNL     1       5.265   2.878  23.611  0.00  0.00    -0.296 OA
ENDBRANCH  18  19
ENDBRANCH   8  10
ENDBRANCH   7   8
BRANCH   7  21
ATOM     21  C   UNL     1       9.109   0.610  21.756  0.00  0.00    +0.328 C 
ATOM     22  OXT UNL     1      10.165   0.014  21.616  0.00  0.00    -0.249 OA
BRANCH  21  23
ATOM     23  O   UNL     1       8.615   1.418  20.779  0.00  0.00    -0.479 OA
ATOM     24  H   UNL     1       8.104   2.152  21.187  0.00  0.00    +0.295 HD
ENDBRANCH  21  23
ENDBRANCH   7  21
ENDBRANCH   1   7
BRANCH   1  25
ATOM     25  C   UNL     1       7.367  -1.782  22.415  0.00  0.00    +0.264 C 
BRANCH  25  26
ATOM     26  O   UNL     1       6.044  -2.261  22.723  0.00  0.00    -0.462 OA
BRANCH  26  27
ATOM     27  C   UNL     1       5.699  -3.470  22.194  0.00  0.00    +0.312 C 
ATOM     28  O   UNL     1       5.724  -3.758  21.002  0.00  0.00    -0.250 OA
BRANCH  27  29
ATOM     29  C   UNL     1       5.326  -4.445  23.285  0.00  0.00    +0.155 C 
BRANCH  29  30
ATOM     30  C   UNL     1       6.408  -4.594  24.326  0.00  0.00    -0.033 A 
ATOM     31  C   UNL     1       6.160  -4.230  25.660  0.00  0.00    +0.008 A 
ATOM     32  C   UNL     1       7.167  -4.329  26.623  0.00  0.00    +0.049 A 
ATOM     33  C   UNL     1       8.418  -4.796  26.250  0.00  0.00    +0.158 A 
ATOM     34  C   UNL     1       8.672  -5.181  24.937  0.00  0.00    +0.158 A 
ATOM     35  C   UNL     1       7.676  -5.087  23.971  0.00  0.00    +0.053 A 
BRANCH  33  36
ATOM     36  O   UNL     1       9.408  -4.872  27.187  0.00  0.00    -0.503 OA
ATOM     37  H   UNL     1       9.882  -4.021  27.107  0.00  0.00    +0.292 HD
ENDBRANCH  33  36
BRANCH  34  38
ATOM     38  O   UNL     1       9.925  -5.642  24.640  0.00  0.00    -0.503 OA
ATOM     39  H   UNL     1      10.360  -4.981  24.074  0.00  0.00    +0.292 HD
ENDBRANCH  34  38
ENDBRANCH  29  30
ENDBRANCH  27  29
ENDBRANCH  26  27
ENDBRANCH  25  26
ENDBRANCH   1  25
TORSDOF 15
ENDMDL
MODEL 2
REMARK VINA RESULT:      -6.9      1.051      1.374
REMARK  Name = 
REMARK  16 active torsions:
REMARK  status: ('A' for Active; 'I' for Inactive)
REMARK    1  A    between atoms: CA_2  and  N_3
REMARK    2  A    between atoms: CA_2  and  C_15
REMARK    3  A    between atoms: CA_2  and  C_18
REMARK    4  A    between atoms: N_3  and  C_4
REMARK    5  A    between atoms: C_5  and  C_6
REMARK    6  A    between atoms: C_15  and  O_16
REMARK    7  A    between atoms: C_18  and  C_19
REMARK    8  A    between atoms: C_18  and  C_20
REMARK    9  A    between atoms: C_18  and  S_33
REMARK   10  A    between atoms: C_20  and  O_21
REMARK   11  A    between atoms: O_21  and  C_22
REMARK   12  A    between atoms: C_22  and  C_24
REMARK   13  A    between atoms: C_24  and  C_25
REMARK   14  A    between atoms: C_27  and  O_28
REMARK   15  A    between atoms: C_29  and  O_30
REMARK   16  A    between atoms: S_33  and  O_34
REMARK                            x       y       z     vdW  Elec       q    Type
REMARK                         _______ _______ _______ _____ _____    ______ ____
ROOT
ATOM      1  C   UNL     1       8.038  -0.727  23.781  0.00  0.00    +0.154 C 
ATOM      2  C   UNL     1       9.244  -1.327  24.524  0.00  0.00    +0.042 C 
ENDROOT
BRANCH   1   3
ATOM      3  S   UNL     1       6.528  -0.735  24.943  0.00  0.00    +0.006 S 
ATOM      4  O   UNL     1       6.864   0.037  26.185  0.00  0.00    -0.166 OA
BRANCH   3   5
ATOM      5  O   UNL     1       5.658   0.302  24.082  0.00  0.00    -0.269 OA
ATOM      6  H   UNL     1       4.734  -0.054  24.086  0.00  0.00    +0.243 HD
ENDBRANCH   3   5
ENDBRANCH   1   3
BRANCH   1   7
ATOM      7  CA  UNL     1       8.245   0.738  23.265  0.00  0.00    +0.212 C 
BRANCH   7   8
ATOM      8  N   UNL     1       8.853   1.662  24.248  0.00  0.00    -0.315 N 
ATOM      9  H   UNL     1       9.469   1.183  24.905  0.00  0.00    +0.148 HD
BRANCH   8  10
ATOM     10  C   UNL     1       8.692   3.020  24.338  0.00  0.00    +0.114 A 
ATOM     11  N   UNL     1       9.796   3.839  24.019  0.00  0.00    -0.304 N 
ATOM     12  C   UNL     1       9.444   5.170  24.204  0.00  0.00    +0.048 A 
ATOM     13  C   UNL     1      10.419   6.176  23.955  0.00  0.00    +0.026 A 
ATOM     14  C   UNL     1      11.636   5.825  23.499  0.00  0.00    +0.003 A 
ATOM     15  C   UNL     1      11.975   4.435  23.260  0.00  0.00    +0.018 A 
ATOM     16  C   UNL     1       8.132   5.215  24.595  0.00  0.00    +0.040 A 
ATOM     17  C   UNL     1      11.066   3.483  23.529  0.00  0.00    +0.093 A 
ATOM     18  C   UNL     1       7.637   3.876  24.678  0.00  0.00    +0.054 A 
BRANCH  18  19
ATOM     19  C   UNL     1       6.265   3.610  25.094  0.00  0.00    +0.262 C 
ATOM     20  O   UNL     1       5.350   3.206  24.385  0.00  0.00    -0.296 OA
ENDBRANCH  18  19
ENDBRANCH   8  10
ENDBRANCH   7   8
BRANCH   7  21
ATOM     21  C   UNL     1       9.099   0.836  21.979  0.00  0.00    +0.328 C 
ATOM     22  OXT UNL     1      10.197   0.336  21.795  0.00  0.00    -0.249 OA
BRANCH  21  23
ATOM     23  O   UNL     1       8.476   1.558  21.008  0.00  0.00    -0.479 OA
ATOM     24  H   UNL     1       8.258   0.971  20.250  0.00  0.00    +0.295 HD
ENDBRANCH  21  23
ENDBRANCH   7  21
ENDBRANCH   1   7
BRANCH   1  25
ATOM     25  C   UNL     1       7.633  -1.623  22.567  0.00  0.00    +0.264 C 
BRANCH  25  26
ATOM     26  O   UNL     1       6.346  -2.244  22.748  0.00  0.00    -0.462 OA
BRANCH  26  27
ATOM     27  C   UNL     1       6.192  -3.487  22.207  0.00  0.00    +0.312 C 
ATOM     28  O   UNL     1       5.248  -3.845  21.509  0.00  0.00    -0.250 OA
BRANCH  27  29
ATOM     29  C   UNL     1       7.373  -4.367  22.537  0.00  0.00    +0.155 C 
BRANCH  29  30
ATOM     30  C   UNL     1       7.398  -4.785  23.986  0.00  0.00    -0.033 A 
ATOM     31  C   UNL     1       8.600  -4.744  24.713  0.00  0.00    +0.008 A 
ATOM     32  C   UNL     1       8.640  -5.164  26.045  0.00  0.00    +0.049 A 
ATOM     33  C   UNL     1       7.477  -5.619  26.647  0.00  0.00    +0.158 A 
ATOM     34  C   UNL     1       6.275  -5.645  25.947  0.00  0.00    +0.158 A 
ATOM     35  C   UNL     1       6.224  -5.228  24.621  0.00  0.00    +0.053 A 
BRANCH  33  36
ATOM     36  O   UNL     1       7.522  -6.050  27.942  0.00  0.00    -0.503 OA
ATOM     37  H   UNL     1       8.458  -6.296  28.082  0.00  0.00    +0.292 HD
ENDBRANCH  33  36
BRANCH  34  38
ATOM     38  O   UNL     1       5.164  -6.097  26.605  0.00  0.00    -0.503 OA
ATOM     39  H   UNL     1       5.055  -5.560  27.409  0.00  0.00    +0.292 HD
ENDBRANCH  34  38
ENDBRANCH  29  30
ENDBRANCH  27  29
ENDBRANCH  26  27
ENDBRANCH  25  26
ENDBRANCH   1  25
TORSDOF 15
ENDMDL
MODEL 3
REMARK VINA RESULT:      -6.8      2.988      8.830
REMARK  Name = 
REMARK  16 active torsions:
REMARK  status: ('A' for Active; 'I' for Inactive)
REMARK    1  A    between atoms: CA_2  and  N_3
REMARK    2  A    between atoms: CA_2  and  C_15
REMARK    3  A    between atoms: CA_2  and  C_18
REMARK    4  A    between atoms: N_3  and  C_4
REMARK    5  A    between atoms: C_5  and  C_6
REMARK    6  A    between atoms: C_15  and  O_16
REMARK    7  A    between atoms: C_18  and  C_19
REMARK    8  A    between atoms: C_18  and  C_20
REMARK    9  A    between atoms: C_18  and  S_33
REMARK   10  A    between atoms: C_20  and  O_21
REMARK   11  A    between atoms: O_21  and  C_22
REMARK   12  A    between atoms: C_22  and  C_24
REMARK   13  A    between atoms: C_24  and  C_25
REMARK   14  A    between atoms: C_27  and  O_28
REMARK   15  A    between atoms: C_29  and  O_30
REMARK   16  A    between atoms: S_33  and  O_34
REMARK                            x       y       z     vdW  Elec       q    Type
REMARK                         _______ _______ _______ _____ _____    ______ ____
ROOT
ATOM      1  C   UNL     1       7.369  -3.528  24.035  0.00  0.00    +0.154 C 
ATOM      2  C   UNL     1       7.414  -4.248  22.677  0.00  0.00    +0.042 C 
ENDROOT
BRANCH   1   3
ATOM      3  S   UNL     1       5.748  -2.533  24.155  0.00  0.00    +0.006 S 
ATOM      4  O   UNL     1       5.965  -1.353  25.056  0.00  0.00    -0.166 OA
BRANCH   3   5
ATOM      5  O   UNL     1       5.838  -1.901  22.683  0.00  0.00    -0.269 OA
ATOM      6  H   UNL     1       5.885  -0.921  22.814  0.00  0.00    +0.243 HD
ENDBRANCH   3   5
ENDBRANCH   1   3
BRANCH   1   7
ATOM      7  CA  UNL     1       7.452  -4.471  25.283  0.00  0.00    +0.212 C 
BRANCH   7   8
ATOM      8  N   UNL     1       6.637  -5.702  25.187  0.00  0.00    -0.315 N 
ATOM      9  H   UNL     1       7.054  -6.399  24.569  0.00  0.00    +0.148 HD
BRANCH   8  10
ATOM     10  C   UNL     1       5.460  -5.986  25.828  0.00  0.00    +0.114 A 
ATOM     11  N   UNL     1       4.279  -6.019  25.057  0.00  0.00    -0.304 N 
ATOM     12  C   UNL     1       3.199  -6.287  25.889  0.00  0.00    +0.048 A 
ATOM     13  C   UNL     1       1.896  -6.350  25.320  0.00  0.00    +0.026 A 
ATOM     14  C   UNL     1       1.743  -6.202  23.991  0.00  0.00    +0.003 A 
ATOM     15  C   UNL     1       2.884  -5.973  23.125  0.00  0.00    +0.018 A 
ATOM     16  C   UNL     1       3.674  -6.463  27.161  0.00  0.00    +0.040 A 
ATOM     17  C   UNL     1       4.110  -5.879  23.668  0.00  0.00    +0.093 A 
ATOM     18  C   UNL     1       5.092  -6.286  27.146  0.00  0.00    +0.054 A 
BRANCH  18  19
ATOM     19  C   UNL     1       5.874  -6.394  28.371  0.00  0.00    +0.262 C 
ATOM     20  O   UNL     1       7.062  -6.127  28.509  0.00  0.00    -0.296 OA
ENDBRANCH  18  19
ENDBRANCH   8  10
ENDBRANCH   7   8
BRANCH   7  21
ATOM     21  C   UNL     1       8.890  -4.919  25.638  0.00  0.00    +0.328 C 
ATOM     22  OXT UNL     1       9.709  -5.404  24.874  0.00  0.00    -0.249 OA
BRANCH  21  23
ATOM     23  O   UNL     1       9.184  -4.699  26.948  0.00  0.00    -0.479 OA
ATOM     24  H   UNL     1      10.151  -4.807  27.090  0.00  0.00    +0.295 HD
ENDBRANCH  21  23
ENDBRANCH   7  21
ENDBRANCH   1   7
BRANCH   1  25
ATOM     25  C   UNL     1       8.514  -2.470  24.141  0.00  0.00    +0.264 C 
BRANCH  25  26
ATOM     26  O   UNL     1       8.487  -1.520  23.059  0.00  0.00    -0.462 OA
BRANCH  26  27
ATOM     27  C   UNL     1       9.663  -1.320  22.398  0.00  0.00    +0.312 C 
ATOM     28  O   UNL     1      10.700  -1.949  22.587  0.00  0.00    -0.250 OA
BRANCH  27  29
ATOM     29  C   UNL     1       9.514  -0.242  21.352  0.00  0.00    +0.155 C 
BRANCH  29  30
ATOM     30  C   UNL     1       9.197   1.107  21.949  0.00  0.00    -0.033 A 
ATOM     31  C   UNL     1      10.061   1.680  22.897  0.00  0.00    +0.008 A 
ATOM     32  C   UNL     1       9.756   2.911  23.483  0.00  0.00    +0.049 A 
ATOM     33  C   UNL     1       8.592   3.567  23.115  0.00  0.00    +0.158 A 
ATOM     34  C   UNL     1       7.737   3.022  22.162  0.00  0.00    +0.158 A 
ATOM     35  C   UNL     1       8.032   1.798  21.572  0.00  0.00    +0.053 A 
BRANCH  33  36
ATOM     36  O   UNL     1       8.284   4.760  23.704  0.00  0.00    -0.503 OA
ATOM     37  H   UNL     1       7.661   5.183  23.080  0.00  0.00    +0.292 HD
ENDBRANCH  33  36
BRANCH  34  38
ATOM     38  O   UNL     1       6.611   3.727  21.839  0.00  0.00    -0.503 OA
ATOM     39  H   UNL     1       6.688   4.005  20.910  0.00  0.00    +0.292 HD
ENDBRANCH  34  38
ENDBRANCH  29  30
ENDBRANCH  27  29
ENDBRANCH  26  27
ENDBRANCH  25  26
ENDBRANCH   1  25
TORSDOF 15
ENDMDL
MODEL 4
REMARK VINA RESULT:      -6.8      1.461      2.167
REMARK  Name = 
REMARK  16 active torsions:
REMARK  status: ('A' for Active; 'I' for Inactive)
REMARK    1  A    between atoms: CA_2  and  N_3
REMARK    2  A    between atoms: CA_2  and  C_15
REMARK    3  A    between atoms: CA_2  and  C_18
REMARK    4  A    between atoms: N_3  and  C_4
REMARK    5  A    between atoms: C_5  and  C_6
REMARK    6  A    between atoms: C_15  and  O_16
REMARK    7  A    between atoms: C_18  and  C_19
REMARK    8  A    between atoms: C_18  and  C_20
REMARK    9  A    between atoms: C_18  and  S_33
REMARK   10  A    between atoms: C_20  and  O_21
REMARK   11  A    between atoms: O_21  and  C_22
REMARK   12  A    between atoms: C_22  and  C_24
REMARK   13  A    between atoms: C_24  and  C_25
REMARK   14  A    between atoms: C_27  and  O_28
REMARK   15  A    between atoms: C_29  and  O_30
REMARK   16  A    between atoms: S_33  and  O_34
REMARK                            x       y       z     vdW  Elec       q    Type
REMARK                         _______ _______ _______ _____ _____    ______ ____
ROOT
ATOM      1  C   UNL     1       8.409  -0.185  23.085  0.00  0.00    +0.154 C 
ATOM      2  C   UNL     1       9.064   0.052  21.713  0.00  0.00    +0.042 C 
ENDROOT
BRANCH   1   3
ATOM      3  S   UNL     1       9.694  -0.956  24.261  0.00  0.00    +0.006 S 
ATOM      4  O   UNL     1       8.976  -1.715  25.338  0.00  0.00    -0.166 OA
BRANCH   3   5
ATOM      5  O   UNL     1      10.169  -2.106  23.247  0.00  0.00    -0.269 OA
ATOM      6  H   UNL     1      10.850  -1.684  22.664  0.00  0.00    +0.243 HD
ENDBRANCH   3   5
ENDBRANCH   1   3
BRANCH   1   7
ATOM      7  CA  UNL     1       7.834   1.101  23.770  0.00  0.00    +0.212 C 
BRANCH   7   8
ATOM      8  N   UNL     1       7.650   2.258  22.866  0.00  0.00    -0.315 N 
ATOM      9  H   UNL     1       7.322   1.981  21.940  0.00  0.00    +0.148 HD
BRANCH   8  10
ATOM     10  C   UNL     1       7.845   3.585  23.145  0.00  0.00    +0.114 A 
ATOM     11  N   UNL     1       9.170   4.035  23.326  0.00  0.00    -0.304 N 
ATOM     12  C   UNL     1       9.153   5.391  23.631  0.00  0.00    +0.048 A 
ATOM     13  C   UNL     1      10.389   6.053  23.872  0.00  0.00    +0.026 A 
ATOM     14  C   UNL     1      11.543   5.372  23.750  0.00  0.00    +0.003 A 
ATOM     15  C   UNL     1      11.552   3.969  23.381  0.00  0.00    +0.018 A 
ATOM     16  C   UNL     1       7.851   5.817  23.608  0.00  0.00    +0.040 A 
ATOM     17  C   UNL     1      10.382   3.336  23.187  0.00  0.00    +0.093 A 
ATOM     18  C   UNL     1       7.013   4.702  23.297  0.00  0.00    +0.054 A 
BRANCH  18  19
ATOM     19  C   UNL     1       5.565   4.851  23.224  0.00  0.00    +0.262 C 
ATOM     20  O   UNL     1       4.748   3.968  22.994  0.00  0.00    -0.296 OA
ENDBRANCH  18  19
ENDBRANCH   8  10
ENDBRANCH   7   8
BRANCH   7  21
ATOM     21  C   UNL     1       6.482   0.881  24.488  0.00  0.00    +0.328 C 
ATOM     22  OXT UNL     1       6.320   0.430  25.611  0.00  0.00    -0.249 OA
BRANCH  21  23
ATOM     23  O   UNL     1       5.428   1.271  23.720  0.00  0.00    -0.479 OA
ATOM     24  H   UNL     1       5.616   1.069  22.777  0.00  0.00    +0.295 HD
ENDBRANCH  21  23
ENDBRANCH   7  21
ENDBRANCH   1   7
BRANCH   1  25
ATOM     25  C   UNL     1       7.259  -1.238  22.976  0.00  0.00    +0.264 C 
BRANCH  25  26
ATOM     26  O   UNL     1       7.636  -2.382  22.186  0.00  0.00    -0.462 OA
BRANCH  26  27
ATOM     27  C   UNL     1       6.669  -3.323  21.983  0.00  0.00    +0.312 C 
ATOM     28  O   UNL     1       5.524  -3.094  21.606  0.00  0.00    -0.250 OA
BRANCH  27  29
ATOM     29  C   UNL     1       7.209  -4.710  22.235  0.00  0.00    +0.155 C 
BRANCH  29  30
ATOM     30  C   UNL     1       7.332  -5.026  23.705  0.00  0.00    -0.033 A 
ATOM     31  C   UNL     1       6.188  -5.337  24.460  0.00  0.00    +0.008 A 
ATOM     32  C   UNL     1       6.288  -5.594  25.829  0.00  0.00    +0.049 A 
ATOM     33  C   UNL     1       7.532  -5.544  26.439  0.00  0.00    +0.158 A 
ATOM     34  C   UNL     1       8.677  -5.259  25.701  0.00  0.00    +0.158 A 
ATOM     35  C   UNL     1       8.588  -5.003  24.337  0.00  0.00    +0.053 A 
BRANCH  33  36
ATOM     36  O   UNL     1       7.626  -5.775  27.781  0.00  0.00    -0.503 OA
ATOM     37  H   UNL     1       8.403  -5.251  28.062  0.00  0.00    +0.292 HD
ENDBRANCH  33  36
BRANCH  34  38
ATOM     38  O   UNL     1       9.872  -5.236  26.364  0.00  0.00    -0.503 OA
ATOM     39  H   UNL     1       9.830  -5.894  27.079  0.00  0.00    +0.292 HD
ENDBRANCH  34  38
ENDBRANCH  29  30
ENDBRANCH  27  29
ENDBRANCH  26  27
ENDBRANCH  25  26
ENDBRANCH   1  25
TORSDOF 15
ENDMDL
MODEL 5
REMARK VINA RESULT:      -6.7      1.829      3.169
REMARK  Name = 
REMARK  16 active torsions:
REMARK  status: ('A' for Active; 'I' for Inactive)
REMARK    1  A    between atoms: CA_2  and  N_3
REMARK    2  A    between atoms: CA_2  and  C_15
REMARK    3  A    between atoms: CA_2  and  C_18
REMARK    4  A    between atoms: N_3  and  C_4
REMARK    5  A    between atoms: C_5  and  C_6
REMARK    6  A    between atoms: C_15  and  O_16
REMARK    7  A    between atoms: C_18  and  C_19
REMARK    8  A    between atoms: C_18  and  C_20
REMARK    9  A    between atoms: C_18  and  S_33
REMARK   10  A    between atoms: C_20  and  O_21
REMARK   11  A    between atoms: O_21  and  C_22
REMARK   12  A    between atoms: C_22  and  C_24
REMARK   13  A    between atoms: C_24  and  C_25
REMARK   14  A    between atoms: C_27  and  O_28
REMARK   15  A    between atoms: C_29  and  O_30
REMARK   16  A    between atoms: S_33  and  O_34
REMARK                            x       y       z     vdW  Elec       q    Type
REMARK                         _______ _______ _______ _____ _____    ______ ____
ROOT
ATOM      1  C   UNL     1       8.517  -0.973  23.513  0.00  0.00    +0.154 C 
ATOM      2  C   UNL     1       7.617  -1.856  22.631  0.00  0.00    +0.042 C 
ENDROOT
BRANCH   1   3
ATOM      3  S   UNL     1      10.242  -0.853  22.714  0.00  0.00    +0.006 S 
ATOM      4  O   UNL     1      10.895  -2.202  22.756  0.00  0.00    -0.166 OA
BRANCH   3   5
ATOM      5  O   UNL     1       9.712  -0.740  21.204  0.00  0.00    -0.269 OA
ATOM      6  H   UNL     1       9.853  -1.634  20.803  0.00  0.00    +0.243 HD
ENDBRANCH   3   5
ENDBRANCH   1   3
BRANCH   1   7
ATOM      7  CA  UNL     1       7.986   0.483  23.744  0.00  0.00    +0.212 C 
BRANCH   7   8
ATOM      8  N   UNL     1       8.996   1.439  24.248  0.00  0.00    -0.315 N 
ATOM      9  H   UNL     1       9.916   1.011  24.363  0.00  0.00    +0.148 HD
BRANCH   8  10
ATOM     10  C   UNL     1       8.829   2.768  24.535  0.00  0.00    +0.114 A 
ATOM     11  N   UNL     1       9.855   3.661  24.161  0.00  0.00    -0.304 N 
ATOM     12  C   UNL     1       9.514   4.944  24.567  0.00  0.00    +0.048 A 
ATOM     13  C   UNL     1      10.421   6.009  24.304  0.00  0.00    +0.026 A 
ATOM     14  C   UNL     1      11.558   5.762  23.627  0.00  0.00    +0.003 A 
ATOM     15  C   UNL     1      11.880   4.426  23.163  0.00  0.00    +0.018 A 
ATOM     16  C   UNL     1       8.278   4.892  25.155  0.00  0.00    +0.040 A 
ATOM     17  C   UNL     1      11.039   3.415  23.442  0.00  0.00    +0.093 A 
ATOM     18  C   UNL     1       7.825   3.536  25.139  0.00  0.00    +0.054 A 
BRANCH  18  19
ATOM     19  C   UNL     1       6.539   3.170  25.720  0.00  0.00    +0.262 C 
ATOM     20  O   UNL     1       5.573   2.705  25.128  0.00  0.00    -0.296 OA
ENDBRANCH  18  19
ENDBRANCH   8  10
ENDBRANCH   7   8
BRANCH   7  21
ATOM     21  C   UNL     1       7.353   1.128  22.489  0.00  0.00    +0.328 C 
ATOM     22  OXT UNL     1       7.942   1.493  21.484  0.00  0.00    -0.249 OA
BRANCH  21  23
ATOM     23  O   UNL     1       6.002   1.247  22.603  0.00  0.00    -0.479 OA
ATOM     24  H   UNL     1       5.675   1.910  21.956  0.00  0.00    +0.295 HD
ENDBRANCH  21  23
ENDBRANCH   7  21
ENDBRANCH   1   7
BRANCH   1  25
ATOM     25  C   UNL     1       8.750  -1.638  24.908  0.00  0.00    +0.264 C 
BRANCH  25  26
ATOM     26  O   UNL     1       8.929  -3.064  24.813  0.00  0.00    -0.462 OA
BRANCH  26  27
ATOM     27  C   UNL     1       8.445  -3.806  25.851  0.00  0.00    +0.312 C 
ATOM     28  O   UNL     1       9.110  -4.551  26.562  0.00  0.00    -0.250 OA
BRANCH  27  29
ATOM     29  C   UNL     1       6.970  -3.551  26.050  0.00  0.00    +0.155 C 
BRANCH  29  30
ATOM     30  C   UNL     1       6.112  -4.686  25.549  0.00  0.00    -0.033 A 
ATOM     31  C   UNL     1       5.525  -5.583  26.457  0.00  0.00    +0.008 A 
ATOM     32  C   UNL     1       4.760  -6.659  26.001  0.00  0.00    +0.049 A 
ATOM     33  C   UNL     1       4.580  -6.832  24.637  0.00  0.00    +0.158 A 
ATOM     34  C   UNL     1       5.137  -5.939  23.726  0.00  0.00    +0.158 A 
ATOM     35  C   UNL     1       5.899  -4.865  24.170  0.00  0.00    +0.053 A 
BRANCH  33  36
ATOM     36  O   UNL     1       3.850  -7.896  24.191  0.00  0.00    -0.503 OA
ATOM     37  H   UNL     1       4.020  -7.918  23.228  0.00  0.00    +0.292 HD
ENDBRANCH  33  36
BRANCH  34  38
ATOM     38  O   UNL     1       4.911  -6.164  22.396  0.00  0.00    -0.503 OA
ATOM     39  H   UNL     1       5.762  -6.091  21.931  0.00  0.00    +0.292 HD
ENDBRANCH  34  38
ENDBRANCH  29  30
ENDBRANCH  27  29
ENDBRANCH  26  27
ENDBRANCH  25  26
ENDBRANCH   1  25
TORSDOF 15
ENDMDL
MODEL 6
REMARK VINA RESULT:      -6.7      3.266      8.229
REMARK  Name = 
REMARK  16 active torsions:
REMARK  status: ('A' for Active; 'I' for Inactive)
REMARK    1  A    between atoms: CA_2  and  N_3
REMARK    2  A    between atoms: CA_2  and  C_15
REMARK    3  A    between atoms: CA_2  and  C_18
REMARK    4  A    between atoms: N_3  and  C_4
REMARK    5  A    between atoms: C_5  and  C_6
REMARK    6  A    between atoms: C_15  and  O_16
REMARK    7  A    between atoms: C_18  and  C_19
REMARK    8  A    between atoms: C_18  and  C_20
REMARK    9  A    between atoms: C_18  and  S_33
REMARK   10  A    between atoms: C_20  and  O_21
REMARK   11  A    between atoms: O_21  and  C_22
REMARK   12  A    between atoms: C_22  and  C_24
REMARK   13  A    between atoms: C_24  and  C_25
REMARK   14  A    between atoms: C_27  and  O_28
REMARK   15  A    between atoms: C_29  and  O_30
REMARK   16  A    between atoms: S_33  and  O_34
REMARK                            x       y       z     vdW  Elec       q    Type
REMARK                         _______ _______ _______ _____ _____    ______ ____
ROOT
ATOM      1  C   UNL     1       6.854  -5.109  23.050  0.00  0.00    +0.154 C 
ATOM      2  C   UNL     1       7.006  -6.139  21.918  0.00  0.00    +0.042 C 
ENDROOT
BRANCH   1   3
ATOM      3  S   UNL     1       6.479  -3.403  22.289  0.00  0.00    +0.006 S 
ATOM      4  O   UNL     1       7.719  -2.879  21.629  0.00  0.00    -0.166 OA
BRANCH   3   5
ATOM      5  O   UNL     1       5.609  -3.962  21.062  0.00  0.00    -0.269 OA
ATOM      6  H   UNL     1       5.230  -3.163  20.616  0.00  0.00    +0.243 HD
ENDBRANCH   3   5
ENDBRANCH   1   3
BRANCH   1   7
ATOM      7  CA  UNL     1       5.727  -5.435  24.089  0.00  0.00    +0.212 C 
BRANCH   7   8
ATOM      8  N   UNL     1       5.224  -4.268  24.846  0.00  0.00    -0.315 N 
ATOM      9  H   UNL     1       5.152  -3.429  24.269  0.00  0.00    +0.148 HD
BRANCH   8  10
ATOM     10  C   UNL     1       4.846  -4.217  26.162  0.00  0.00    +0.114 A 
ATOM     11  N   UNL     1       3.552  -3.742  26.461  0.00  0.00    -0.304 N 
ATOM     12  C   UNL     1       3.377  -3.735  27.839  0.00  0.00    +0.048 A 
ATOM     13  C   UNL     1       2.139  -3.273  28.369  0.00  0.00    +0.026 A 
ATOM     14  C   UNL     1       1.153  -2.904  27.530  0.00  0.00    +0.003 A 
ATOM     15  C   UNL     1       1.330  -2.963  26.091  0.00  0.00    +0.018 A 
ATOM     16  C   UNL     1       4.514  -4.232  28.417  0.00  0.00    +0.040 A 
ATOM     17  C   UNL     1       2.511  -3.367  25.593  0.00  0.00    +0.093 A 
ATOM     18  C   UNL     1       5.449  -4.549  27.383  0.00  0.00    +0.054 A 
BRANCH  18  19
ATOM     19  C   UNL     1       6.767  -5.081  27.703  0.00  0.00    +0.262 C 
ATOM     20  O   UNL     1       7.323  -6.033  27.167  0.00  0.00    -0.296 OA
ENDBRANCH  18  19
ENDBRANCH   8  10
ENDBRANCH   7   8
BRANCH   7  21
ATOM     21  C   UNL     1       4.490  -6.132  23.476  0.00  0.00    +0.328 C 
ATOM     22  OXT UNL     1       3.669  -5.629  22.725  0.00  0.00    -0.249 OA
BRANCH  21  23
ATOM     23  O   UNL     1       4.397  -7.435  23.858  0.00  0.00    -0.479 OA
ATOM     24  H   UNL     1       4.606  -8.017  23.094  0.00  0.00    +0.295 HD
ENDBRANCH  21  23
ENDBRANCH   7  21
ENDBRANCH   1   7
BRANCH   1  25
ATOM     25  C   UNL     1       8.199  -4.932  23.824  0.00  0.00    +0.264 C 
BRANCH  25  26
ATOM     26  O   UNL     1       8.169  -3.811  24.729  0.00  0.00    -0.462 OA
BRANCH  26  27
ATOM     27  C   UNL     1       9.133  -2.863  24.552  0.00  0.00    +0.312 C 
ATOM     28  O   UNL     1      10.209  -3.041  23.990  0.00  0.00    -0.250 OA
BRANCH  27  29
ATOM     29  C   UNL     1       8.682  -1.530  25.099  0.00  0.00    +0.155 C 
BRANCH  29  30
ATOM     30  C   UNL     1       9.228  -0.365  24.312  0.00  0.00    -0.033 A 
ATOM     31  C   UNL     1      10.310   0.380  24.810  0.00  0.00    +0.008 A 
ATOM     32  C   UNL     1      10.798   1.483  24.106  0.00  0.00    +0.049 A 
ATOM     33  C   UNL     1      10.205   1.836  22.904  0.00  0.00    +0.158 A 
ATOM     34  C   UNL     1       9.147   1.095  22.387  0.00  0.00    +0.158 A 
ATOM     35  C   UNL     1       8.655  -0.005  23.079  0.00  0.00    +0.053 A 
BRANCH  33  36
ATOM     36  O   UNL     1      10.669   2.927  22.227  0.00  0.00    -0.503 OA
ATOM     37  H   UNL     1       9.885   3.269  21.754  0.00  0.00    +0.292 HD
ENDBRANCH  33  36
BRANCH  34  38
ATOM     38  O   UNL     1       8.616   1.493  21.191  0.00  0.00    -0.503 OA
ATOM     39  H   UNL     1       8.025   2.247  21.362  0.00  0.00    +0.292 HD
ENDBRANCH  34  38
ENDBRANCH  29  30
ENDBRANCH  27  29
ENDBRANCH  26  27
ENDBRANCH  25  26
ENDBRANCH   1  25
TORSDOF 15
ENDMDL
MODEL 7
REMARK VINA RESULT:      -6.6      3.225      9.145
REMARK  Name = 
REMARK  16 active torsions:
REMARK  status: ('A' for Active; 'I' for Inactive)
REMARK    1  A    between atoms: CA_2  and  N_3
REMARK    2  A    between atoms: CA_2  and  C_15
REMARK    3  A    between atoms: CA_2  and  C_18
REMARK    4  A    between atoms: N_3  and  C_4
REMARK    5  A    between atoms: C_5  and  C_6
REMARK    6  A    between atoms: C_15  and  O_16
REMARK    7  A    between atoms: C_18  and  C_19
REMARK    8  A    between atoms: C_18  and  C_20
REMARK    9  A    between atoms: C_18  and  S_33
REMARK   10  A    between atoms: C_20  and  O_21
REMARK   11  A    between atoms: O_21  and  C_22
REMARK   12  A    between atoms: C_22  and  C_24
REMARK   13  A    between atoms: C_24  and  C_25
REMARK   14  A    between atoms: C_27  and  O_28
REMARK   15  A    between atoms: C_29  and  O_30
REMARK   16  A    between atoms: S_33  and  O_34
REMARK                            x       y       z     vdW  Elec       q    Type
REMARK                         _______ _______ _______ _____ _____    ______ ____
ROOT
ATOM      1  C   UNL     1       7.583  -3.471  23.823  0.00  0.00    +0.154 C 
ATOM      2  C   UNL     1       6.890  -2.352  24.620  0.00  0.00    +0.042 C 
ENDROOT
BRANCH   1   3
ATOM      3  S   UNL     1       8.992  -4.202  24.876  0.00  0.00    +0.006 S 
ATOM      4  O   UNL     1       9.193  -5.639  24.492  0.00  0.00    -0.166 OA
BRANCH   3   5
ATOM      5  O   UNL     1      10.177  -3.441  24.109  0.00  0.00    -0.269 OA
ATOM      6  H   UNL     1       9.899  -2.492  24.059  0.00  0.00    +0.243 HD
ENDBRANCH   3   5
ENDBRANCH   1   3
BRANCH   1   7
ATOM      7  CA  UNL     1       6.643  -4.646  23.387  0.00  0.00    +0.212 C 
BRANCH   7   8
ATOM      8  N   UNL     1       5.311  -4.648  24.030  0.00  0.00    -0.315 N 
ATOM      9  H   UNL     1       4.732  -3.862  23.732  0.00  0.00    +0.148 HD
BRANCH   8  10
ATOM     10  C   UNL     1       4.805  -5.561  24.917  0.00  0.00    +0.114 A 
ATOM     11  N   UNL     1       3.681  -6.316  24.520  0.00  0.00    -0.304 N 
ATOM     12  C   UNL     1       3.303  -7.153  25.562  0.00  0.00    +0.048 A 
ATOM     13  C   UNL     1       2.173  -7.999  25.385  0.00  0.00    +0.026 A 
ATOM     14  C   UNL     1       1.529  -8.009  24.203  0.00  0.00    +0.003 A 
ATOM     15  C   UNL     1       1.963  -7.167  23.104  0.00  0.00    +0.018 A 
ATOM     16  C   UNL     1       4.185  -6.975  26.595  0.00  0.00    +0.040 A 
ATOM     17  C   UNL     1       3.010  -6.344  23.284  0.00  0.00    +0.093 A 
ATOM     18  C   UNL     1       5.142  -5.985  26.209  0.00  0.00    +0.054 A 
BRANCH  18  19
ATOM     19  C   UNL     1       6.199  -5.570  27.123  0.00  0.00    +0.262 C 
ATOM     20  O   UNL     1       6.874  -6.298  27.842  0.00  0.00    -0.296 OA
ENDBRANCH  18  19
ENDBRANCH   8  10
ENDBRANCH   7   8
BRANCH   7  21
ATOM     21  C   UNL     1       6.397  -4.722  21.861  0.00  0.00    +0.328 C 
ATOM     22  OXT UNL     1       5.650  -4.010  21.209  0.00  0.00    -0.249 OA
BRANCH  21  23
ATOM     23  O   UNL     1       7.140  -5.699  21.273  0.00  0.00    -0.479 OA
ATOM     24  H   UNL     1       6.550  -6.299  20.765  0.00  0.00    +0.295 HD
ENDBRANCH  21  23
ENDBRANCH   7  21
ENDBRANCH   1   7
BRANCH   1  25
ATOM     25  C   UNL     1       8.274  -2.895  22.545  0.00  0.00    +0.264 C 
BRANCH  25  26
ATOM     26  O   UNL     1       8.564  -1.489  22.664  0.00  0.00    -0.462 OA
BRANCH  26  27
ATOM     27  C   UNL     1       9.693  -1.048  22.038  0.00  0.00    +0.312 C 
ATOM     28  O   UNL     1      10.814  -1.528  22.173  0.00  0.00    -0.250 OA
BRANCH  27  29
ATOM     29  C   UNL     1       9.376   0.094  21.103  0.00  0.00    +0.155 C 
BRANCH  29  30
ATOM     30  C   UNL     1       9.046   1.370  21.836  0.00  0.00    -0.033 A 
ATOM     31  C   UNL     1       9.899   1.846  22.846  0.00  0.00    +0.008 A 
ATOM     32  C   UNL     1       9.583   3.006  23.556  0.00  0.00    +0.049 A 
ATOM     33  C   UNL     1       8.416   3.690  23.251  0.00  0.00    +0.158 A 
ATOM     34  C   UNL     1       7.572   3.244  22.238  0.00  0.00    +0.158 A 
ATOM     35  C   UNL     1       7.880   2.090  21.525  0.00  0.00    +0.053 A 
BRANCH  33  36
ATOM     36  O   UNL     1       8.097   4.813  23.959  0.00  0.00    -0.503 OA
ATOM     37  H   UNL     1       8.164   5.538  23.306  0.00  0.00    +0.292 HD
ENDBRANCH  33  36
BRANCH  34  38
ATOM     38  O   UNL     1       6.444   3.973  21.983  0.00  0.00    -0.503 OA
ATOM     39  H   UNL     1       6.177   4.409  22.810  0.00  0.00    +0.292 HD
ENDBRANCH  34  38
ENDBRANCH  29  30
ENDBRANCH  27  29
ENDBRANCH  26  27
ENDBRANCH  25  26
ENDBRANCH   1  25
TORSDOF 15
ENDMDL
MODEL 8
REMARK VINA RESULT:      -6.6      3.432      9.121
REMARK  Name = 
REMARK  16 active torsions:
REMARK  status: ('A' for Active; 'I' for Inactive)
REMARK    1  A    between atoms: CA_2  and  N_3
REMARK    2  A    between atoms: CA_2  and  C_15
REMARK    3  A    between atoms: CA_2  and  C_18
REMARK    4  A    between atoms: N_3  and  C_4
REMARK    5  A    between atoms: C_5  and  C_6
REMARK    6  A    between atoms: C_15  and  O_16
REMARK    7  A    between atoms: C_18  and  C_19
REMARK    8  A    between atoms: C_18  and  C_20
REMARK    9  A    between atoms: C_18  and  S_33
REMARK   10  A    between atoms: C_20  and  O_21
REMARK   11  A    between atoms: O_21  and  C_22
REMARK   12  A    between atoms: C_22  and  C_24
REMARK   13  A    between atoms: C_24  and  C_25
REMARK   14  A    between atoms: C_27  and  O_28
REMARK   15  A    between atoms: C_29  and  O_30
REMARK   16  A    between atoms: S_33  and  O_34
REMARK                            x       y       z     vdW  Elec       q    Type
REMARK                         _______ _______ _______ _____ _____    ______ ____
ROOT
ATOM      1  C   UNL     1       7.106  -4.144  23.859  0.00  0.00    +0.154 C 
ATOM      2  C   UNL     1       7.524  -5.222  22.845  0.00  0.00    +0.042 C 
ENDROOT
BRANCH   1   3
ATOM      3  S   UNL     1       5.864  -2.961  23.031  0.00  0.00    +0.006 S 
ATOM      4  O   UNL     1       5.054  -3.728  22.028  0.00  0.00    -0.166 OA
BRANCH   3   5
ATOM      5  O   UNL     1       4.882  -2.848  24.295  0.00  0.00    -0.269 OA
ATOM      6  H   UNL     1       5.416  -2.417  25.010  0.00  0.00    +0.243 HD
ENDBRANCH   3   5
ENDBRANCH   1   3
BRANCH   1   7
ATOM      7  CA  UNL     1       6.451  -4.694  25.172  0.00  0.00    +0.212 C 
BRANCH   7   8
ATOM      8  N   UNL     1       5.581  -5.876  24.984  0.00  0.00    -0.315 N 
ATOM      9  H   UNL     1       5.949  -6.524  24.286  0.00  0.00    +0.148 HD
BRANCH   8  10
ATOM     10  C   UNL     1       4.413  -6.176  25.635  0.00  0.00    +0.114 A 
ATOM     11  N   UNL     1       3.219  -6.174  24.885  0.00  0.00    -0.304 N 
ATOM     12  C   UNL     1       2.152  -6.466  25.726  0.00  0.00    +0.048 A 
ATOM     13  C   UNL     1       0.839  -6.501  25.178  0.00  0.00    +0.026 A 
ATOM     14  C   UNL     1       0.664  -6.304  23.858  0.00  0.00    +0.003 A 
ATOM     15  C   UNL     1       1.791  -6.051  22.980  0.00  0.00    +0.018 A 
ATOM     16  C   UNL     1       2.648  -6.690  26.982  0.00  0.00    +0.040 A 
ATOM     17  C   UNL     1       3.026  -5.984  23.504  0.00  0.00    +0.093 A 
ATOM     18  C   UNL     1       4.067  -6.521  26.948  0.00  0.00    +0.054 A 
BRANCH  18  19
ATOM     19  C   UNL     1       4.869  -6.678  28.155  0.00  0.00    +0.262 C 
ATOM     20  O   UNL     1       5.713  -7.541  28.367  0.00  0.00    -0.296 OA
ENDBRANCH  18  19
ENDBRANCH   8  10
ENDBRANCH   7   8
BRANCH   7  21
ATOM     21  C   UNL     1       7.469  -5.065  26.276  0.00  0.00    +0.328 C 
ATOM     22  OXT UNL     1       8.353  -5.904  26.198  0.00  0.00    -0.249 OA
BRANCH  21  23
ATOM     23  O   UNL     1       7.293  -4.321  27.402  0.00  0.00    -0.479 OA
ATOM     24  H   UNL     1       7.378  -4.899  28.194  0.00  0.00    +0.295 HD
ENDBRANCH  21  23
ENDBRANCH   7  21
ENDBRANCH   1   7
BRANCH   1  25
ATOM     25  C   UNL     1       8.327  -3.253  24.256  0.00  0.00    +0.264 C 
BRANCH  25  26
ATOM     26  O   UNL     1       7.965  -1.869  24.423  0.00  0.00    -0.462 OA
BRANCH  26  27
ATOM     27  C   UNL     1       8.208  -1.322  25.649  0.00  0.00    +0.312 C 
ATOM     28  O   UNL     1       7.576  -1.564  26.672  0.00  0.00    -0.250 OA
BRANCH  27  29
ATOM     29  C   UNL     1       9.405  -0.404  25.599  0.00  0.00    +0.155 C 
BRANCH  29  30
ATOM     30  C   UNL     1       9.166   0.815  24.741  0.00  0.00    -0.033 A 
ATOM     31  C   UNL     1       8.234   1.788  25.140  0.00  0.00    +0.008 A 
ATOM     32  C   UNL     1       7.980   2.900  24.334  0.00  0.00    +0.049 A 
ATOM     33  C   UNL     1       8.661   3.038  23.135  0.00  0.00    +0.158 A 
ATOM     34  C   UNL     1       9.603   2.094  22.737  0.00  0.00    +0.158 A 
ATOM     35  C   UNL     1       9.865   0.984  23.533  0.00  0.00    +0.053 A 
BRANCH  33  36
ATOM     36  O   UNL     1       8.396   4.114  22.338  0.00  0.00    -0.503 OA
ATOM     37  H   UNL     1       7.512   3.927  21.964  0.00  0.00    +0.292 HD
ENDBRANCH  33  36
BRANCH  34  38
ATOM     38  O   UNL     1      10.246   2.298  21.547  0.00  0.00    -0.503 OA
ATOM     39  H   UNL     1      11.080   1.799  21.569  0.00  0.00    +0.292 HD
ENDBRANCH  34  38
ENDBRANCH  29  30
ENDBRANCH  27  29
ENDBRANCH  26  27
ENDBRANCH  25  26
ENDBRANCH   1  25
TORSDOF 15
ENDMDL
MODEL 9
REMARK VINA RESULT:      -6.5      1.599      3.350
REMARK  Name = 
REMARK  16 active torsions:
REMARK  status: ('A' for Active; 'I' for Inactive)
REMARK    1  A    between atoms: CA_2  and  N_3
REMARK    2  A    between atoms: CA_2  and  C_15
REMARK    3  A    between atoms: CA_2  and  C_18
REMARK    4  A    between atoms: N_3  and  C_4
REMARK    5  A    between atoms: C_5  and  C_6
REMARK    6  A    between atoms: C_15  and  O_16
REMARK    7  A    between atoms: C_18  and  C_19
REMARK    8  A    between atoms: C_18  and  C_20
REMARK    9  A    between atoms: C_18  and  S_33
REMARK   10  A    between atoms: C_20  and  O_21
REMARK   11  A    between atoms: O_21  and  C_22
REMARK   12  A    between atoms: C_22  and  C_24
REMARK   13  A    between atoms: C_24  and  C_25
REMARK   14  A    between atoms: C_27  and  O_28
REMARK   15  A    between atoms: C_29  and  O_30
REMARK   16  A    between atoms: S_33  and  O_34
REMARK                            x       y       z     vdW  Elec       q    Type
REMARK                         _______ _______ _______ _____ _____    ______ ____
ROOT
ATOM      1  C   UNL     1       8.615  -0.720  23.559  0.00  0.00    +0.154 C 
ATOM      2  C   UNL     1       7.552  -1.481  22.748  0.00  0.00    +0.042 C 
ENDROOT
BRANCH   1   3
ATOM      3  S   UNL     1      10.182  -0.519  22.495  0.00  0.00    +0.006 S 
ATOM      4  O   UNL     1      10.822  -1.863  22.310  0.00  0.00    -0.166 OA
BRANCH   3   5
ATOM      5  O   UNL     1       9.406  -0.281  21.111  0.00  0.00    -0.269 OA
ATOM      6  H   UNL     1       8.447  -0.423  21.313  0.00  0.00    +0.243 HD
ENDBRANCH   3   5
ENDBRANCH   1   3
BRANCH   1   7
ATOM      7  CA  UNL     1       8.175   0.702  24.048  0.00  0.00    +0.212 C 
BRANCH   7   8
ATOM      8  N   UNL     1       8.076   1.723  22.981  0.00  0.00    -0.315 N 
ATOM      9  H   UNL     1       8.013   1.309  22.050  0.00  0.00    +0.148 HD
BRANCH   8  10
ATOM     10  C   UNL     1       8.041   3.085  23.118  0.00  0.00    +0.114 A 
ATOM     11  N   UNL     1       9.264   3.763  23.305  0.00  0.00    -0.304 N 
ATOM     12  C   UNL     1       9.015   5.121  23.456  0.00  0.00    +0.048 A 
ATOM     13  C   UNL     1      10.113   5.998  23.675  0.00  0.00    +0.026 A 
ATOM     14  C   UNL     1      11.366   5.507  23.680  0.00  0.00    +0.003 A 
ATOM     15  C   UNL     1      11.619   4.093  23.470  0.00  0.00    +0.018 A 
ATOM     16  C   UNL     1       7.666   5.324  23.330  0.00  0.00    +0.040 A 
ATOM     17  C   UNL     1      10.578   3.261  23.298  0.00  0.00    +0.093 A 
ATOM     18  C   UNL     1       7.035   4.060  23.109  0.00  0.00    +0.054 A 
BRANCH  18  19
ATOM     19  C   UNL     1       5.589   3.962  22.957  0.00  0.00    +0.262 C 
ATOM     20  O   UNL     1       4.947   2.954  22.684  0.00  0.00    -0.296 OA
ENDBRANCH  18  19
ENDBRANCH   8  10
ENDBRANCH   7   8
BRANCH   7  21
ATOM     21  C   UNL     1       6.824   0.719  24.802  0.00  0.00    +0.328 C 
ATOM     22  OXT UNL     1       6.667   0.813  26.009  0.00  0.00    -0.249 OA
BRANCH  21  23
ATOM     23  O   UNL     1       5.765   0.629  23.953  0.00  0.00    -0.479 OA
ATOM     24  H   UNL     1       5.938   1.172  23.152  0.00  0.00    +0.295 HD
ENDBRANCH  21  23
ENDBRANCH   7  21
ENDBRANCH   1   7
BRANCH   1  25
ATOM     25  C   UNL     1       9.062  -1.550  24.806  0.00  0.00    +0.264 C 
BRANCH  25  26
ATOM     26  O   UNL     1       8.249  -2.723  25.004  0.00  0.00    -0.462 OA
BRANCH  26  27
ATOM     27  C   UNL     1       8.893  -3.924  24.938  0.00  0.00    +0.312 C 
ATOM     28  O   UNL     1      10.022  -4.101  24.494  0.00  0.00    -0.250 OA
BRANCH  27  29
ATOM     29  C   UNL     1       8.045  -5.020  25.538  0.00  0.00    +0.155 C 
BRANCH  29  30
ATOM     30  C   UNL     1       6.813  -5.316  24.718  0.00  0.00    -0.033 A 
ATOM     31  C   UNL     1       5.600  -5.631  25.353  0.00  0.00    +0.008 A 
ATOM     32  C   UNL     1       4.465  -5.943  24.602  0.00  0.00    +0.049 A 
ATOM     33  C   UNL     1       4.544  -5.933  23.218  0.00  0.00    +0.158 A 
ATOM     34  C   UNL     1       5.733  -5.602  22.574  0.00  0.00    +0.158 A 
ATOM     35  C   UNL     1       6.868  -5.289  23.313  0.00  0.00    +0.053 A 
BRANCH  33  36
ATOM     36  O   UNL     1       3.440  -6.259  22.484  0.00  0.00    -0.503 OA
ATOM     37  H   UNL     1       3.038  -5.396  22.258  0.00  0.00    +0.292 HD
ENDBRANCH  33  36
BRANCH  34  38
ATOM     38  O   UNL     1       5.738  -5.602  21.207  0.00  0.00    -0.503 OA
ATOM     39  H   UNL     1       5.233  -4.827  20.906  0.00  0.00    +0.292 HD
ENDBRANCH  34  38
ENDBRANCH  29  30
ENDBRANCH  27  29
ENDBRANCH  26  27
ENDBRANCH  25  26
ENDBRANCH   1  25
TORSDOF 15
ENDMDL
