MODEL 1
REMARK VINA RESULT:      -6.2      0.000      0.000
REMARK  Name = 
REMARK  12 active torsions:
REMARK  status: ('A' for Active; 'I' for Inactive)
REMARK    1  A    between atoms: C_1  and  O_2
REMARK    2  A    between atoms: O_2  and  C_3
REMARK    3  A    between atoms: C_3  and  C_5
REMARK    4  A    between atoms: C_6  and  C_7
REMARK    5  A    between atoms: C_9  and  C_10
REMARK    6  A    between atoms: C_11  and  C_22
REMARK    7  A    between atoms: C_12  and  C_13
REMARK    8  A    between atoms: C_18  and  N_19
REMARK    9  A    between atoms: C_22  and  O_24
REMARK   10  A    between atoms: O_24  and  C_25
REMARK   11  A    between atoms: C_25  and  C_26
REMARK   12  A    between atoms: C_26  and  C_27
REMARK                            x       y       z     vdW  Elec       q    Type
REMARK                         _______ _______ _______ _____ _____    ______ ____
ROOT
ATOM      1  C   UNL     1       9.008  -0.750  23.897  0.00  0.00    +0.065 C 
ATOM      2  C   UNL     1       7.671  -1.429  24.291  0.00  0.00    +0.102 C 
ATOM      3  C   UNL     1       7.105  -0.940  25.648  0.00  0.00    +0.065 C 
ATOM      4  C   UNL     1       7.742   0.034  26.344  0.00  0.00    +0.016 C 
ATOM      5  C   UNL     1       7.296   0.597  27.673  0.00  0.00    +0.061 C 
ATOM      6  N   UNL     1       8.898   0.597  25.841  0.00  0.00    -0.321 N 
ATOM      7  H   UNL     1       9.348   1.319  26.398  0.00  0.00    +0.152 HD
ATOM      8  C   UNL     1       9.556   0.207  24.688  0.00  0.00    +0.016 C 
ATOM      9  C   UNL     1      10.867   0.928  24.478  0.00  0.00    +0.061 C 
ENDROOT
BRANCH   2  10
ATOM     10  C   UNL     1       7.852  -2.958  24.295  0.00  0.00    +0.042 A 
ATOM     11  C   UNL     1       7.145  -3.897  23.504  0.00  0.00    +0.277 A 
ATOM     12  C   UNL     1       7.535  -5.256  23.516  0.00  0.00    +0.084 A 
ATOM     13  C   UNL     1       8.584  -5.698  24.319  0.00  0.00    +0.007 A 
ATOM     14  C   UNL     1       9.249  -4.801  25.140  0.00  0.00    +0.001 A 
ATOM     15  C   UNL     1       8.891  -3.452  25.126  0.00  0.00    +0.011 A 
BRANCH  11  16
ATOM     16  N   UNL     1       6.008  -3.563  22.611  0.00  0.00    +0.080 N 
ATOM     17  O   UNL     1       4.866  -3.609  23.098  0.00  0.00    +0.041 OA
ATOM     18  O   UNL     1       6.225  -3.259  21.433  0.00  0.00    -0.576 OA
ENDBRANCH  11  16
ENDBRANCH   2  10
BRANCH   1  19
ATOM     19  C   UNL     1       9.720  -1.245  22.683  0.00  0.00    +0.337 C 
ATOM     20  O   UNL     1      10.740  -1.916  22.701  0.00  0.00    -0.245 OA
BRANCH  19  22
ATOM     21  C   UNL     1       9.133   0.512  21.266  0.00  0.00    +0.280 C 
ATOM     22  O   UNL     1       9.065  -0.890  21.550  0.00  0.00    -0.465 OA
ENDBRANCH  19  22
ENDBRANCH   1  19
BRANCH   3  23
ATOM     23  C   UNL     1       5.837  -1.601  26.087  0.00  0.00    +0.338 C 
ATOM     24  O   UNL     1       4.751  -1.390  25.568  0.00  0.00    -0.245 OA
BRANCH  23  25
ATOM     25  O   UNL     1       6.045  -2.466  27.108  0.00  0.00    -0.454 OA
BRANCH  25  26
ATOM     26  C   UNL     1       5.241  -3.644  27.107  0.00  0.00    +0.306 C 
BRANCH  26  27
ATOM     27  C   UNL     1       6.044  -4.938  27.165  0.00  0.00    +0.167 C 
ATOM     28  O   UNL     1       7.057  -5.064  27.854  0.00  0.00    -0.294 OA
ATOM     29  C   UNL     1       5.500  -6.099  26.372  0.00  0.00    +0.089 C 
ENDBRANCH  26  27
ENDBRANCH  25  26
ENDBRANCH  23  25
ENDBRANCH   3  23
TORSDOF 8
ENDMDL
MODEL 2
REMARK VINA RESULT:      -6.1      1.857      5.610
REMARK  Name = 
REMARK  12 active torsions:
REMARK  status: ('A' for Active; 'I' for Inactive)
REMARK    1  A    between atoms: C_1  and  O_2
REMARK    2  A    between atoms: O_2  and  C_3
REMARK    3  A    between atoms: C_3  and  C_5
REMARK    4  A    between atoms: C_6  and  C_7
REMARK    5  A    between atoms: C_9  and  C_10
REMARK    6  A    between atoms: C_11  and  C_22
REMARK    7  A    between atoms: C_12  and  C_13
REMARK    8  A    between atoms: C_18  and  N_19
REMARK    9  A    between atoms: C_22  and  O_24
REMARK   10  A    between atoms: O_24  and  C_25
REMARK   11  A    between atoms: C_25  and  C_26
REMARK   12  A    between atoms: C_26  and  C_27
REMARK                            x       y       z     vdW  Elec       q    Type
REMARK                         _______ _______ _______ _____ _____    ______ ____
ROOT
ATOM      1  C   UNL     1       6.222  -4.500  26.164  0.00  0.00    +0.065 C 
ATOM      2  C   UNL     1       7.410  -4.496  25.166  0.00  0.00    +0.102 C 
ATOM      3  C   UNL     1       8.270  -3.209  25.235  0.00  0.00    +0.065 C 
ATOM      4  C   UNL     1       7.987  -2.244  26.145  0.00  0.00    +0.016 C 
ATOM      5  C   UNL     1       8.746  -0.949  26.315  0.00  0.00    +0.061 C 
ATOM      6  N   UNL     1       6.931  -2.410  27.019  0.00  0.00    -0.321 N 
ATOM      7  H   UNL     1       6.749  -1.659  27.681  0.00  0.00    +0.152 HD
ATOM      8  C   UNL     1       6.036  -3.465  27.020  0.00  0.00    +0.016 C 
ATOM      9  C   UNL     1       4.910  -3.290  28.013  0.00  0.00    +0.061 C 
ENDROOT
BRANCH   2  10
ATOM     10  C   UNL     1       6.882  -4.723  23.737  0.00  0.00    +0.042 A 
ATOM     11  C   UNL     1       6.100  -3.824  22.970  0.00  0.00    +0.277 A 
ATOM     12  C   UNL     1       5.822  -4.120  21.616  0.00  0.00    +0.084 A 
ATOM     13  C   UNL     1       6.275  -5.299  21.028  0.00  0.00    +0.007 A 
ATOM     14  C   UNL     1       6.993  -6.214  21.781  0.00  0.00    +0.001 A 
ATOM     15  C   UNL     1       7.295  -5.929  23.114  0.00  0.00    +0.011 A 
BRANCH  11  16
ATOM     16  N   UNL     1       5.551  -2.541  23.474  0.00  0.00    +0.080 N 
ATOM     17  O   UNL     1       4.512  -2.590  24.152  0.00  0.00    +0.041 OA
ATOM     18  O   UNL     1       6.129  -1.482  23.205  0.00  0.00    -0.576 OA
ENDBRANCH  11  16
ENDBRANCH   2  10
BRANCH   1  19
ATOM     19  C   UNL     1       5.241  -5.621  26.087  0.00  0.00    +0.337 C 
ATOM     20  O   UNL     1       4.188  -5.582  25.471  0.00  0.00    -0.245 OA
BRANCH  19  22
ATOM     21  C   UNL     1       4.997  -6.950  27.989  0.00  0.00    +0.280 C 
ATOM     22  O   UNL     1       5.688  -6.713  26.757  0.00  0.00    -0.465 OA
ENDBRANCH  19  22
ENDBRANCH   1  19
BRANCH   3  23
ATOM     23  C   UNL     1       9.402  -3.145  24.260  0.00  0.00    +0.338 C 
ATOM     24  O   UNL     1      10.399  -3.847  24.334  0.00  0.00    -0.245 OA
BRANCH  23  25
ATOM     25  O   UNL     1       9.177  -2.234  23.283  0.00  0.00    -0.454 OA
BRANCH  25  26
ATOM     26  C   UNL     1      10.330  -1.591  22.745  0.00  0.00    +0.306 C 
BRANCH  26  27
ATOM     27  C   UNL     1      10.334  -0.078  22.927  0.00  0.00    +0.167 C 
ATOM     28  O   UNL     1      10.865   0.476  23.891  0.00  0.00    -0.294 OA
ATOM     29  C   UNL     1       9.698   0.732  21.826  0.00  0.00    +0.089 C 
ENDBRANCH  26  27
ENDBRANCH  25  26
ENDBRANCH  23  25
ENDBRANCH   3  23
TORSDOF 8
ENDMDL
MODEL 3
REMARK VINA RESULT:      -6.0      1.598      2.153
REMARK  Name = 
REMARK  12 active torsions:
REMARK  status: ('A' for Active; 'I' for Inactive)
REMARK    1  A    between atoms: C_1  and  O_2
REMARK    2  A    between atoms: O_2  and  C_3
REMARK    3  A    between atoms: C_3  and  C_5
REMARK    4  A    between atoms: C_6  and  C_7
REMARK    5  A    between atoms: C_9  and  C_10
REMARK    6  A    between atoms: C_11  and  C_22
REMARK    7  A    between atoms: C_12  and  C_13
REMARK    8  A    between atoms: C_18  and  N_19
REMARK    9  A    between atoms: C_22  and  O_24
REMARK   10  A    between atoms: O_24  and  C_25
REMARK   11  A    between atoms: C_25  and  C_26
REMARK   12  A    between atoms: C_26  and  C_27
REMARK                            x       y       z     vdW  Elec       q    Type
REMARK                         _______ _______ _______ _____ _____    ______ ____
ROOT
ATOM      1  C   UNL     1       8.965  -0.649  23.541  0.00  0.00    +0.065 C 
ATOM      2  C   UNL     1       7.505  -1.111  23.790  0.00  0.00    +0.102 C 
ATOM      3  C   UNL     1       7.056  -0.971  25.266  0.00  0.00    +0.065 C 
ATOM      4  C   UNL     1       7.893  -0.434  26.188  0.00  0.00    +0.016 C 
ATOM      5  C   UNL     1       7.576  -0.242  27.653  0.00  0.00    +0.061 C 
ATOM      6  N   UNL     1       9.149  -0.004  25.811  0.00  0.00    -0.321 N 
ATOM      7  H   UNL     1       9.748   0.386  26.535  0.00  0.00    +0.152 HD
ATOM      8  C   UNL     1       9.710  -0.139  24.553  0.00  0.00    +0.016 C 
ATOM      9  C   UNL     1      11.152   0.308  24.492  0.00  0.00    +0.061 C 
ENDROOT
BRANCH   2  10
ATOM     10  C   UNL     1       7.335  -2.562  23.303  0.00  0.00    +0.042 A 
ATOM     11  C   UNL     1       8.031  -3.702  23.778  0.00  0.00    +0.277 A 
ATOM     12  C   UNL     1       7.651  -4.988  23.332  0.00  0.00    +0.084 A 
ATOM     13  C   UNL     1       6.624  -5.156  22.405  0.00  0.00    +0.007 A 
ATOM     14  C   UNL     1       5.972  -4.047  21.890  0.00  0.00    +0.001 A 
ATOM     15  C   UNL     1       6.320  -2.770  22.334  0.00  0.00    +0.011 A 
BRANCH  11  16
ATOM     16  N   UNL     1       9.144  -3.664  24.757  0.00  0.00    +0.080 N 
ATOM     17  O   UNL     1       8.846  -3.655  25.963  0.00  0.00    +0.041 OA
ATOM     18  O   UNL     1      10.312  -3.637  24.354  0.00  0.00    -0.576 OA
ENDBRANCH  11  16
ENDBRANCH   2  10
BRANCH   1  19
ATOM     19  C   UNL     1       9.554  -0.873  22.188  0.00  0.00    +0.337 C 
ATOM     20  O   UNL     1      10.424  -1.692  21.936  0.00  0.00    -0.245 OA
BRANCH  19  22
ATOM     21  C   UNL     1       9.191   1.321  21.483  0.00  0.00    +0.280 C 
ATOM     22  O   UNL     1       8.969  -0.076  21.259  0.00  0.00    -0.465 OA
ENDBRANCH  19  22
ENDBRANCH   1  19
BRANCH   3  23
ATOM     23  C   UNL     1       5.668  -1.445  25.558  0.00  0.00    +0.338 C 
ATOM     24  O   UNL     1       4.664  -0.803  25.289  0.00  0.00    -0.245 OA
BRANCH  23  25
ATOM     25  O   UNL     1       5.663  -2.670  26.136  0.00  0.00    -0.454 OA
BRANCH  25  26
ATOM     26  C   UNL     1       4.665  -3.578  25.677  0.00  0.00    +0.306 C 
BRANCH  26  27
ATOM     27  C   UNL     1       5.061  -5.044  25.800  0.00  0.00    +0.167 C 
ATOM     28  O   UNL     1       5.999  -5.425  26.503  0.00  0.00    -0.294 OA
ATOM     29  C   UNL     1       4.203  -6.035  25.055  0.00  0.00    +0.089 C 
ENDBRANCH  26  27
ENDBRANCH  25  26
ENDBRANCH  23  25
ENDBRANCH   3  23
TORSDOF 8
ENDMDL
MODEL 4
REMARK VINA RESULT:      -5.9      2.045      5.648
REMARK  Name = 
REMARK  12 active torsions:
REMARK  status: ('A' for Active; 'I' for Inactive)
REMARK    1  A    between atoms: C_1  and  O_2
REMARK    2  A    between atoms: O_2  and  C_3
REMARK    3  A    between atoms: C_3  and  C_5
REMARK    4  A    between atoms: C_6  and  C_7
REMARK    5  A    between atoms: C_9  and  C_10
REMARK    6  A    between atoms: C_11  and  C_22
REMARK    7  A    between atoms: C_12  and  C_13
REMARK    8  A    between atoms: C_18  and  N_19
REMARK    9  A    between atoms: C_22  and  O_24
REMARK   10  A    between atoms: O_24  and  C_25
REMARK   11  A    between atoms: C_25  and  C_26
REMARK   12  A    between atoms: C_26  and  C_27
REMARK                            x       y       z     vdW  Elec       q    Type
REMARK                         _______ _______ _______ _____ _____    ______ ____
ROOT
ATOM      1  C   UNL     1       5.751  -2.791  25.886  0.00  0.00    +0.065 C 
ATOM      2  C   UNL     1       7.074  -2.655  25.089  0.00  0.00    +0.102 C 
ATOM      3  C   UNL     1       7.312  -1.233  24.522  0.00  0.00    +0.065 C 
ATOM      4  C   UNL     1       6.433  -0.235  24.787  0.00  0.00    +0.016 C 
ATOM      5  C   UNL     1       6.550   1.190  24.298  0.00  0.00    +0.061 C 
ATOM      6  N   UNL     1       5.323  -0.485  25.569  0.00  0.00    -0.321 N 
ATOM      7  H   UNL     1       4.685   0.290  25.737  0.00  0.00    +0.152 HD
ATOM      8  C   UNL     1       4.944  -1.716  26.072  0.00  0.00    +0.016 C 
ATOM      9  C   UNL     1       3.607  -1.687  26.776  0.00  0.00    +0.061 C 
ENDROOT
BRANCH   2  10
ATOM     10  C   UNL     1       7.105  -3.703  23.960  0.00  0.00    +0.042 A 
ATOM     11  C   UNL     1       7.902  -4.874  23.913  0.00  0.00    +0.277 A 
ATOM     12  C   UNL     1       7.703  -5.814  22.876  0.00  0.00    +0.084 A 
ATOM     13  C   UNL     1       6.757  -5.594  21.876  0.00  0.00    +0.007 A 
ATOM     14  C   UNL     1       6.009  -4.427  21.878  0.00  0.00    +0.001 A 
ATOM     15  C   UNL     1       6.178  -3.498  22.906  0.00  0.00    +0.011 A 
BRANCH  11  16
ATOM     16  N   UNL     1       8.945  -5.226  24.908  0.00  0.00    +0.080 N 
ATOM     17  O   UNL     1       8.593  -5.894  25.894  0.00  0.00    +0.041 OA
ATOM     18  O   UNL     1      10.108  -4.848  24.732  0.00  0.00    -0.576 OA
ENDBRANCH  11  16
ENDBRANCH   2  10
BRANCH   1  19
ATOM     19  C   UNL     1       5.345  -4.148  26.354  0.00  0.00    +0.337 C 
ATOM     20  O   UNL     1       5.789  -4.701  27.348  0.00  0.00    -0.245 OA
BRANCH  19  22
ATOM     21  C   UNL     1       4.585  -6.065  25.264  0.00  0.00    +0.280 C 
ATOM     22  O   UNL     1       4.385  -4.677  25.555  0.00  0.00    -0.465 OA
ENDBRANCH  19  22
ENDBRANCH   1  19
BRANCH   3  23
ATOM     23  C   UNL     1       8.557  -1.068  23.711  0.00  0.00    +0.338 C 
ATOM     24  O   UNL     1       9.680  -1.047  24.191  0.00  0.00    -0.245 OA
BRANCH  23  25
ATOM     25  O   UNL     1       8.288  -0.967  22.387  0.00  0.00    -0.454 OA
BRANCH  25  26
ATOM     26  C   UNL     1       9.248  -0.264  21.602  0.00  0.00    +0.306 C 
BRANCH  26  27
ATOM     27  C   UNL     1       9.086   1.250  21.640  0.00  0.00    +0.167 C 
ATOM     28  O   UNL     1       8.074   1.824  21.233  0.00  0.00    -0.294 OA
ATOM     29  C   UNL     1      10.217   2.030  22.262  0.00  0.00    +0.089 C 
ENDBRANCH  26  27
ENDBRANCH  25  26
ENDBRANCH  23  25
ENDBRANCH   3  23
TORSDOF 8
ENDMDL
MODEL 5
REMARK VINA RESULT:      -5.9      2.721      5.507
REMARK  Name = 
REMARK  12 active torsions:
REMARK  status: ('A' for Active; 'I' for Inactive)
REMARK    1  A    between atoms: C_1  and  O_2
REMARK    2  A    between atoms: O_2  and  C_3
REMARK    3  A    between atoms: C_3  and  C_5
REMARK    4  A    between atoms: C_6  and  C_7
REMARK    5  A    between atoms: C_9  and  C_10
REMARK    6  A    between atoms: C_11  and  C_22
REMARK    7  A    between atoms: C_12  and  C_13
REMARK    8  A    between atoms: C_18  and  N_19
REMARK    9  A    between atoms: C_22  and  O_24
REMARK   10  A    between atoms: O_24  and  C_25
REMARK   11  A    between atoms: C_25  and  C_26
REMARK   12  A    between atoms: C_26  and  C_27
REMARK                            x       y       z     vdW  Elec       q    Type
REMARK                         _______ _______ _______ _____ _____    ______ ____
ROOT
ATOM      1  C   UNL     1       6.382  -5.486  23.450  0.00  0.00    +0.065 C 
ATOM      2  C   UNL     1       5.698  -5.515  24.842  0.00  0.00    +0.102 C 
ATOM      3  C   UNL     1       4.207  -5.931  24.790  0.00  0.00    +0.065 C 
ATOM      4  C   UNL     1       3.635  -6.280  23.611  0.00  0.00    +0.016 C 
ATOM      5  C   UNL     1       2.196  -6.704  23.426  0.00  0.00    +0.061 C 
ATOM      6  N   UNL     1       4.384  -6.268  22.452  0.00  0.00    -0.321 N 
ATOM      7  H   UNL     1       3.914  -6.530  21.588  0.00  0.00    +0.152 HD
ATOM      8  C   UNL     1       5.696  -5.846  22.337  0.00  0.00    +0.016 C 
ATOM      9  C   UNL     1       6.193  -5.826  20.910  0.00  0.00    +0.061 C 
ENDROOT
BRANCH   2  10
ATOM     10  C   UNL     1       5.858  -4.142  25.523  0.00  0.00    +0.042 A 
ATOM     11  C   UNL     1       6.847  -3.776  26.469  0.00  0.00    +0.277 A 
ATOM     12  C   UNL     1       6.949  -2.430  26.887  0.00  0.00    +0.084 A 
ATOM     13  C   UNL     1       6.071  -1.457  26.410  0.00  0.00    +0.007 A 
ATOM     14  C   UNL     1       5.064  -1.812  25.527  0.00  0.00    +0.001 A 
ATOM     15  C   UNL     1       4.960  -3.133  25.088  0.00  0.00    +0.011 A 
BRANCH  11  16
ATOM     16  N   UNL     1       7.837  -4.710  27.060  0.00  0.00    +0.080 N 
ATOM     17  O   UNL     1       9.040  -4.443  26.903  0.00  0.00    +0.041 OA
ATOM     18  O   UNL     1       7.445  -5.708  27.674  0.00  0.00    -0.576 OA
ENDBRANCH  11  16
ENDBRANCH   2  10
BRANCH   1  19
ATOM     19  C   UNL     1       7.775  -4.960  23.360  0.00  0.00    +0.337 C 
ATOM     20  O   UNL     1       8.766  -5.545  23.768  0.00  0.00    -0.245 OA
BRANCH  19  22
ATOM     21  C   UNL     1       8.609  -2.782  23.397  0.00  0.00    +0.280 C 
ATOM     22  O   UNL     1       7.808  -3.761  22.726  0.00  0.00    -0.465 OA
ENDBRANCH  19  22
ENDBRANCH   1  19
BRANCH   3  23
ATOM     23  C   UNL     1       3.498  -5.932  26.106  0.00  0.00    +0.338 C 
ATOM     24  O   UNL     1       2.510  -5.253  26.343  0.00  0.00    -0.245 OA
BRANCH  23  25
ATOM     25  O   UNL     1       4.070  -6.786  26.989  0.00  0.00    -0.454 OA
BRANCH  25  26
ATOM     26  C   UNL     1       3.539  -6.772  28.312  0.00  0.00    +0.306 C 
BRANCH  26  27
ATOM     27  C   UNL     1       4.484  -6.179  29.350  0.00  0.00    +0.167 C 
ATOM     28  O   UNL     1       5.171  -6.873  30.101  0.00  0.00    -0.294 OA
ATOM     29  C   UNL     1       4.589  -4.675  29.379  0.00  0.00    +0.089 C 
ENDBRANCH  26  27
ENDBRANCH  25  26
ENDBRANCH  23  25
ENDBRANCH   3  23
TORSDOF 8
ENDMDL
MODEL 6
REMARK VINA RESULT:      -5.8      2.267      5.641
REMARK  Name = 
REMARK  12 active torsions:
REMARK  status: ('A' for Active; 'I' for Inactive)
REMARK    1  A    between atoms: C_1  and  O_2
REMARK    2  A    between atoms: O_2  and  C_3
REMARK    3  A    between atoms: C_3  and  C_5
REMARK    4  A    between atoms: C_6  and  C_7
REMARK    5  A    between atoms: C_9  and  C_10
REMARK    6  A    between atoms: C_11  and  C_22
REMARK    7  A    between atoms: C_12  and  C_13
REMARK    8  A    between atoms: C_18  and  N_19
REMARK    9  A    between atoms: C_22  and  O_24
REMARK   10  A    between atoms: O_24  and  C_25
REMARK   11  A    between atoms: C_25  and  C_26
REMARK   12  A    between atoms: C_26  and  C_27
REMARK                            x       y       z     vdW  Elec       q    Type
REMARK                         _______ _______ _______ _____ _____    ______ ____
ROOT
ATOM      1  C   UNL     1       5.857  -4.229  27.090  0.00  0.00    +0.065 C 
ATOM      2  C   UNL     1       6.710  -3.427  26.073  0.00  0.00    +0.102 C 
ATOM      3  C   UNL     1       6.276  -1.946  25.935  0.00  0.00    +0.065 C 
ATOM      4  C   UNL     1       5.276  -1.451  26.705  0.00  0.00    +0.016 C 
ATOM      5  C   UNL     1       4.762  -0.031  26.667  0.00  0.00    +0.061 C 
ATOM      6  N   UNL     1       4.642  -2.268  27.619  0.00  0.00    -0.321 N 
ATOM      7  H   UNL     1       3.892  -1.859  28.172  0.00  0.00    +0.152 HD
ATOM      8  C   UNL     1       4.870  -3.621  27.794  0.00  0.00    +0.016 C 
ATOM      9  C   UNL     1       3.921  -4.263  28.780  0.00  0.00    +0.061 C 
ENDROOT
BRANCH   2  10
ATOM     10  C   UNL     1       6.678  -4.134  24.705  0.00  0.00    +0.042 A 
ATOM     11  C   UNL     1       7.771  -4.748  24.043  0.00  0.00    +0.277 A 
ATOM     12  C   UNL     1       7.545  -5.488  22.860  0.00  0.00    +0.084 A 
ATOM     13  C   UNL     1       6.268  -5.598  22.310  0.00  0.00    +0.007 A 
ATOM     14  C   UNL     1       5.199  -4.957  22.916  0.00  0.00    +0.001 A 
ATOM     15  C   UNL     1       5.400  -4.239  24.097  0.00  0.00    +0.011 A 
BRANCH  11  16
ATOM     16  N   UNL     1       9.176  -4.703  24.515  0.00  0.00    +0.080 N 
ATOM     17  O   UNL     1       9.608  -5.696  25.123  0.00  0.00    +0.041 OA
ATOM     18  O   UNL     1       9.862  -3.698  24.297  0.00  0.00    -0.576 OA
ENDBRANCH  11  16
ENDBRANCH   2  10
BRANCH   1  19
ATOM     19  C   UNL     1       6.088  -5.699  27.200  0.00  0.00    +0.337 C 
ATOM     20  O   UNL     1       5.532  -6.543  26.514  0.00  0.00    -0.245 OA
BRANCH  19  22
ATOM     21  C   UNL     1       6.518  -6.697  29.264  0.00  0.00    +0.280 C 
ATOM     22  O   UNL     1       7.030  -5.981  28.135  0.00  0.00    -0.465 OA
ENDBRANCH  19  22
ENDBRANCH   1  19
BRANCH   3  23
ATOM     23  C   UNL     1       7.045  -1.147  24.932  0.00  0.00    +0.338 C 
ATOM     24  O   UNL     1       6.556  -0.697  23.907  0.00  0.00    -0.245 OA
BRANCH  23  25
ATOM     25  O   UNL     1       8.334  -0.969  25.308  0.00  0.00    -0.454 OA
BRANCH  25  26
ATOM     26  C   UNL     1       8.892   0.318  25.055  0.00  0.00    +0.306 C 
BRANCH  26  27
ATOM     27  C   UNL     1      10.177   0.284  24.237  0.00  0.00    +0.167 C 
ATOM     28  O   UNL     1      11.248   0.724  24.658  0.00  0.00    -0.294 OA
ATOM     29  C   UNL     1      10.092  -0.377  22.884  0.00  0.00    +0.089 C 
ENDBRANCH  26  27
ENDBRANCH  25  26
ENDBRANCH  23  25
ENDBRANCH   3  23
TORSDOF 8
ENDMDL
MODEL 7
REMARK VINA RESULT:      -5.7      2.699      5.625
REMARK  Name = 
REMARK  12 active torsions:
REMARK  status: ('A' for Active; 'I' for Inactive)
REMARK    1  A    between atoms: C_1  and  O_2
REMARK    2  A    between atoms: O_2  and  C_3
REMARK    3  A    between atoms: C_3  and  C_5
REMARK    4  A    between atoms: C_6  and  C_7
REMARK    5  A    between atoms: C_9  and  C_10
REMARK    6  A    between atoms: C_11  and  C_22
REMARK    7  A    between atoms: C_12  and  C_13
REMARK    8  A    between atoms: C_18  and  N_19
REMARK    9  A    between atoms: C_22  and  O_24
REMARK   10  A    between atoms: O_24  and  C_25
REMARK   11  A    between atoms: C_25  and  C_26
REMARK   12  A    between atoms: C_26  and  C_27
REMARK                            x       y       z     vdW  Elec       q    Type
REMARK                         _______ _______ _______ _____ _____    ______ ____
ROOT
ATOM      1  C   UNL     1       6.357  -5.406  23.423  0.00  0.00    +0.065 C 
ATOM      2  C   UNL     1       5.544  -5.321  24.741  0.00  0.00    +0.102 C 
ATOM      3  C   UNL     1       4.045  -5.668  24.567  0.00  0.00    +0.065 C 
ATOM      4  C   UNL     1       3.568  -6.058  23.358  0.00  0.00    +0.016 C 
ATOM      5  C   UNL     1       2.134  -6.423  23.058  0.00  0.00    +0.061 C 
ATOM      6  N   UNL     1       4.423  -6.150  22.278  0.00  0.00    -0.321 N 
ATOM      7  H   UNL     1       4.024  -6.439  21.388  0.00  0.00    +0.152 HD
ATOM      8  C   UNL     1       5.761  -5.798  22.269  0.00  0.00    +0.016 C 
ATOM      9  C   UNL     1       6.391  -5.886  20.898  0.00  0.00    +0.061 C 
ENDROOT
BRANCH   2  10
ATOM     10  C   UNL     1       5.711  -3.920  25.359  0.00  0.00    +0.042 A 
ATOM     11  C   UNL     1       6.427  -3.594  26.538  0.00  0.00    +0.277 A 
ATOM     12  C   UNL     1       6.612  -2.237  26.890  0.00  0.00    +0.084 A 
ATOM     13  C   UNL     1       6.074  -1.211  26.116  0.00  0.00    +0.007 A 
ATOM     14  C   UNL     1       5.325  -1.517  24.991  0.00  0.00    +0.001 A 
ATOM     15  C   UNL     1       5.148  -2.850  24.616  0.00  0.00    +0.011 A 
BRANCH  11  16
ATOM     16  N   UNL     1       7.044  -4.586  27.452  0.00  0.00    +0.080 N 
ATOM     17  O   UNL     1       6.372  -4.963  28.425  0.00  0.00    +0.041 OA
ATOM     18  O   UNL     1       8.189  -4.995  27.227  0.00  0.00    -0.576 OA
ENDBRANCH  11  16
ENDBRANCH   2  10
BRANCH   1  19
ATOM     19  C   UNL     1       7.778  -4.953  23.440  0.00  0.00    +0.337 C 
ATOM     20  O   UNL     1       8.705  -5.590  23.917  0.00  0.00    -0.245 OA
BRANCH  19  22
ATOM     21  C   UNL     1       8.732  -2.827  23.546  0.00  0.00    +0.280 C 
ATOM     22  O   UNL     1       7.921  -3.756  22.818  0.00  0.00    -0.465 OA
ENDBRANCH  19  22
ENDBRANCH   1  19
BRANCH   3  23
ATOM     23  C   UNL     1       3.215  -5.558  25.806  0.00  0.00    +0.338 C 
ATOM     24  O   UNL     1       3.388  -6.248  26.800  0.00  0.00    -0.245 OA
BRANCH  23  25
ATOM     25  O   UNL     1       2.270  -4.594  25.697  0.00  0.00    -0.454 OA
BRANCH  25  26
ATOM     26  C   UNL     1       1.825  -4.009  26.919  0.00  0.00    +0.306 C 
BRANCH  26  27
ATOM     27  C   UNL     1       2.462  -2.659  27.224  0.00  0.00    +0.167 C 
ATOM     28  O   UNL     1       2.246  -1.651  26.550  0.00  0.00    -0.294 OA
ATOM     29  C   UNL     1       3.341  -2.595  28.448  0.00  0.00    +0.089 C 
ENDBRANCH  26  27
ENDBRANCH  25  26
ENDBRANCH  23  25
ENDBRANCH   3  23
TORSDOF 8
ENDMDL
MODEL 8
REMARK VINA RESULT:      -5.7      2.602      5.717
REMARK  Name = 
REMARK  12 active torsions:
REMARK  status: ('A' for Active; 'I' for Inactive)
REMARK    1  A    between atoms: C_1  and  O_2
REMARK    2  A    between atoms: O_2  and  C_3
REMARK    3  A    between atoms: C_3  and  C_5
REMARK    4  A    between atoms: C_6  and  C_7
REMARK    5  A    between atoms: C_9  and  C_10
REMARK    6  A    between atoms: C_11  and  C_22
REMARK    7  A    between atoms: C_12  and  C_13
REMARK    8  A    between atoms: C_18  and  N_19
REMARK    9  A    between atoms: C_22  and  O_24
REMARK   10  A    between atoms: O_24  and  C_25
REMARK   11  A    between atoms: C_25  and  C_26
REMARK   12  A    between atoms: C_26  and  C_27
REMARK                            x       y       z     vdW  Elec       q    Type
REMARK                         _______ _______ _______ _____ _____    ______ ____
ROOT
ATOM      1  C   UNL     1       5.320  -4.339  22.936  0.00  0.00    +0.065 C 
ATOM      2  C   UNL     1       5.382  -3.087  23.850  0.00  0.00    +0.102 C 
ATOM      3  C   UNL     1       6.591  -2.165  23.555  0.00  0.00    +0.065 C 
ATOM      4  C   UNL     1       7.442  -2.456  22.540  0.00  0.00    +0.016 C 
ATOM      5  C   UNL     1       8.652  -1.640  22.150  0.00  0.00    +0.061 C 
ATOM      6  N   UNL     1       7.228  -3.576  21.762  0.00  0.00    -0.321 N 
ATOM      7  H   UNL     1       7.895  -3.761  21.016  0.00  0.00    +0.152 HD
ATOM      8  C   UNL     1       6.242  -4.526  21.959  0.00  0.00    +0.016 C 
ATOM      9  C   UNL     1       6.354  -5.705  21.020  0.00  0.00    +0.061 C 
ENDROOT
BRANCH   2  10
ATOM     10  C   UNL     1       5.380  -3.529  25.326  0.00  0.00    +0.042 A 
ATOM     11  C   UNL     1       4.346  -3.317  26.272  0.00  0.00    +0.277 A 
ATOM     12  C   UNL     1       4.434  -3.917  27.549  0.00  0.00    +0.084 A 
ATOM     13  C   UNL     1       5.537  -4.689  27.909  0.00  0.00    +0.007 A 
ATOM     14  C   UNL     1       6.581  -4.859  27.014  0.00  0.00    +0.001 A 
ATOM     15  C   UNL     1       6.503  -4.290  25.741  0.00  0.00    +0.011 A 
BRANCH  11  16
ATOM     16  N   UNL     1       3.124  -2.514  26.022  0.00  0.00    +0.080 N 
ATOM     17  O   UNL     1       2.224  -3.038  25.345  0.00  0.00    +0.041 OA
ATOM     18  O   UNL     1       3.041  -1.369  26.480  0.00  0.00    -0.576 OA
ENDBRANCH  11  16
ENDBRANCH   2  10
BRANCH   1  19
ATOM     19  C   UNL     1       4.283  -5.372  23.223  0.00  0.00    +0.337 C 
ATOM     20  O   UNL     1       3.094  -5.252  22.971  0.00  0.00    -0.245 OA
BRANCH  19  22
ATOM     21  C   UNL     1       4.084  -7.020  24.862  0.00  0.00    +0.280 C 
ATOM     22  O   UNL     1       4.835  -6.486  23.766  0.00  0.00    -0.465 OA
ENDBRANCH  19  22
ENDBRANCH   1  19
BRANCH   3  23
ATOM     23  C   UNL     1       6.713  -0.968  24.443  0.00  0.00    +0.338 C 
ATOM     24  O   UNL     1       5.902  -0.054  24.460  0.00  0.00    -0.245 OA
BRANCH  23  25
ATOM     25  O   UNL     1       7.812  -1.033  25.231  0.00  0.00    -0.454 OA
BRANCH  25  26
ATOM     26  C   UNL     1       8.297   0.208  25.738  0.00  0.00    +0.306 C 
BRANCH  26  27
ATOM     27  C   UNL     1       9.253   0.928  24.796  0.00  0.00    +0.167 C 
ATOM     28  O   UNL     1       8.916   1.898  24.115  0.00  0.00    -0.294 OA
ATOM     29  C   UNL     1      10.676   0.428  24.775  0.00  0.00    +0.089 C 
ENDBRANCH  26  27
ENDBRANCH  25  26
ENDBRANCH  23  25
ENDBRANCH   3  23
TORSDOF 8
ENDMDL
MODEL 9
REMARK VINA RESULT:      -5.6      2.027      3.568
REMARK  Name = 
REMARK  12 active torsions:
REMARK  status: ('A' for Active; 'I' for Inactive)
REMARK    1  A    between atoms: C_1  and  O_2
REMARK    2  A    between atoms: O_2  and  C_3
REMARK    3  A    between atoms: C_3  and  C_5
REMARK    4  A    between atoms: C_6  and  C_7
REMARK    5  A    between atoms: C_9  and  C_10
REMARK    6  A    between atoms: C_11  and  C_22
REMARK    7  A    between atoms: C_12  and  C_13
REMARK    8  A    between atoms: C_18  and  N_19
REMARK    9  A    between atoms: C_22  and  O_24
REMARK   10  A    between atoms: O_24  and  C_25
REMARK   11  A    between atoms: C_25  and  C_26
REMARK   12  A    between atoms: C_26  and  C_27
REMARK                            x       y       z     vdW  Elec       q    Type
REMARK                         _______ _______ _______ _____ _____    ______ ____
ROOT
ATOM      1  C   UNL     1       9.026  -0.501  23.582  0.00  0.00    +0.065 C 
ATOM      2  C   UNL     1       7.553  -0.902  23.858  0.00  0.00    +0.102 C 
ATOM      3  C   UNL     1       7.142  -0.760  25.344  0.00  0.00    +0.065 C 
ATOM      4  C   UNL     1       8.020  -0.270  26.254  0.00  0.00    +0.016 C 
ATOM      5  C   UNL     1       7.744  -0.082  27.727  0.00  0.00    +0.061 C 
ATOM      6  N   UNL     1       9.286   0.109  25.854  0.00  0.00    -0.321 N 
ATOM      7  H   UNL     1       9.916   0.464  26.570  0.00  0.00    +0.152 HD
ATOM      8  C   UNL     1       9.813  -0.035  24.583  0.00  0.00    +0.016 C 
ATOM      9  C   UNL     1      11.272   0.350  24.496  0.00  0.00    +0.061 C 
ENDROOT
BRANCH   2  10
ATOM     10  C   UNL     1       7.310  -2.339  23.359  0.00  0.00    +0.042 A 
ATOM     11  C   UNL     1       7.941  -3.517  23.831  0.00  0.00    +0.277 A 
ATOM     12  C   UNL     1       7.497  -4.779  23.373  0.00  0.00    +0.084 A 
ATOM     13  C   UNL     1       6.469  -4.886  22.437  0.00  0.00    +0.007 A 
ATOM     14  C   UNL     1       5.881  -3.740  21.925  0.00  0.00    +0.001 A 
ATOM     15  C   UNL     1       6.293  -2.486  22.381  0.00  0.00    +0.011 A 
BRANCH  11  16
ATOM     16  N   UNL     1       9.047  -3.545  24.819  0.00  0.00    +0.080 N 
ATOM     17  O   UNL     1      10.207  -3.582  24.378  0.00  0.00    +0.041 OA
ATOM     18  O   UNL     1       8.787  -3.536  26.028  0.00  0.00    -0.576 OA
ENDBRANCH  11  16
ENDBRANCH   2  10
BRANCH   1  19
ATOM     19  C   UNL     1       9.577  -0.734  22.215  0.00  0.00    +0.337 C 
ATOM     20  O   UNL     1      10.385  -1.604  21.930  0.00  0.00    -0.245 OA
BRANCH  19  22
ATOM     21  C   UNL     1       9.320   1.496  21.582  0.00  0.00    +0.280 C 
ATOM     22  O   UNL     1       9.031   0.120  21.313  0.00  0.00    -0.465 OA
ENDBRANCH  19  22
ENDBRANCH   1  19
BRANCH   3  23
ATOM     23  C   UNL     1       5.741  -1.177  25.662  0.00  0.00    +0.338 C 
ATOM     24  O   UNL     1       5.457  -2.234  26.204  0.00  0.00    -0.245 OA
BRANCH  23  25
ATOM     25  O   UNL     1       4.839  -0.236  25.294  0.00  0.00    -0.454 OA
BRANCH  25  26
ATOM     26  C   UNL     1       4.512   0.741  26.279  0.00  0.00    +0.306 C 
BRANCH  26  27
ATOM     27  C   UNL     1       5.072   2.127  25.981  0.00  0.00    +0.167 C 
ATOM     28  O   UNL     1       5.381   2.926  26.867  0.00  0.00    -0.294 OA
ATOM     29  C   UNL     1       5.290   2.464  24.527  0.00  0.00    +0.089 C 
ENDBRANCH  26  27
ENDBRANCH  25  26
ENDBRANCH  23  25
ENDBRANCH   3  23
TORSDOF 8
ENDMDL
