MODEL 1
REMARK VINA RESULT:      -6.0      0.000      0.000
REMARK  Name = 
REMARK  12 active torsions:
REMARK  status: ('A' for Active; 'I' for Inactive)
REMARK    1  A    between atoms: C_1  and  C_2
REMARK    2  A    between atoms: N_4  and  C_5
REMARK    3  A    between atoms: C_7  and  O_9
REMARK    4  A    between atoms: C_11  and  O_12
REMARK    5  A    between atoms: C_11  and  C_24
REMARK    6  A    between atoms: C_14  and  C_16
REMARK    7  A    between atoms: C_16  and  O_18
REMARK    8  A    between atoms: C_16  and  C_19
REMARK    9  A    between atoms: C_19  and  O_21
REMARK   10  A    between atoms: C_19  and  C_22
REMARK   11  A    between atoms: C_22  and  O_23
REMARK   12  A    between atoms: C_24  and  O_25
REMARK                            x       y       z     vdW  Elec       q    Type
REMARK                         _______ _______ _______ _____ _____    ______ ____
ROOT
ATOM      1  C   UNL     1       7.376  -2.970  22.885  0.00  0.00    +0.133 C 
ATOM      2  C   UNL     1       8.809  -2.763  23.425  0.00  0.00    +0.176 C 
ATOM      3  O   UNL     1       9.025  -3.557  24.620  0.00  0.00    -0.332 OA
ATOM      4  C   UNL     1       8.075  -3.397  25.673  0.00  0.00    +0.270 C 
ATOM      5  C   UNL     1       6.623  -3.554  25.211  0.00  0.00    +0.110 C 
ATOM      6  C   UNL     1       6.342  -2.690  23.990  0.00  0.00    +0.143 C 
ENDROOT
BRANCH   1   9
ATOM      7  C   UNL     1       6.219  -5.926  20.799  0.00  0.00    +0.109 C 
ATOM      8  C   UNL     1       6.261  -4.515  21.310  0.00  0.00    +0.210 C 
ATOM      9  N   UNL     1       7.192  -4.302  22.309  0.00  0.00    -0.308 N 
ATOM     10  H   UNL     1       7.690  -5.095  22.699  0.00  0.00    +0.149 HD
ATOM     11  O   UNL     1       5.546  -3.625  20.862  0.00  0.00    -0.276 OA
ENDBRANCH   1   9
BRANCH   4  12
ATOM     12  O   UNL     1       8.293  -2.145  26.341  0.00  0.00    -0.356 OA
ATOM     13  H   UNL     1       7.408  -1.838  26.636  0.00  0.00    +0.213 HD
ENDBRANCH   4  12
BRANCH   4  14
ATOM     14  C   UNL     1       8.371  -4.473  26.762  0.00  0.00    +0.365 C 
ATOM     15  O   UNL     1       7.550  -4.968  27.522  0.00  0.00    -0.245 OA
BRANCH  14  16
ATOM     16  O   UNL     1       9.688  -4.831  26.768  0.00  0.00    -0.477 OA
ATOM     17  H   UNL     1      10.162  -4.171  27.327  0.00  0.00    +0.295 HD
ENDBRANCH  14  16
ENDBRANCH   4  14
BRANCH   6  18
ATOM     18  O   UNL     1       6.381  -1.322  24.416  0.00  0.00    -0.390 OA
ATOM     19  H   UNL     1       5.760  -1.246  25.179  0.00  0.00    +0.210 HD
ENDBRANCH   6  18
BRANCH   2  20
ATOM     20  C   UNL     1       9.279  -1.293  23.658  0.00  0.00    +0.176 C 
BRANCH  20  21
ATOM     21  O   UNL     1      10.268  -1.305  24.702  0.00  0.00    -0.387 OA
ATOM     22  H   UNL     1      10.159  -0.462  25.185  0.00  0.00    +0.210 HD
ENDBRANCH  20  21
BRANCH  20  23
ATOM     23  C   UNL     1       9.857  -0.575  22.426  0.00  0.00    +0.171 C 
BRANCH  23  24
ATOM     24  O   UNL     1      10.135  -1.512  21.375  0.00  0.00    -0.387 OA
ATOM     25  H   UNL     1      10.819  -2.115  21.732  0.00  0.00    +0.210 HD
ENDBRANCH  23  24
BRANCH  23  26
ATOM     26  C   UNL     1       8.866   0.449  21.856  0.00  0.00    +0.189 C 
BRANCH  26  27
ATOM     27  O   UNL     1       9.591   1.591  21.390  0.00  0.00    -0.392 OA
ATOM     28  H   UNL     1      10.260   1.802  22.065  0.00  0.00    +0.210 HD
ENDBRANCH  26  27
ENDBRANCH  23  26
ENDBRANCH  20  23
ENDBRANCH   2  20
TORSDOF 11
ENDMDL
MODEL 2
REMARK VINA RESULT:      -5.8      3.978      6.311
REMARK  Name = 
REMARK  12 active torsions:
REMARK  status: ('A' for Active; 'I' for Inactive)
REMARK    1  A    between atoms: C_1  and  C_2
REMARK    2  A    between atoms: N_4  and  C_5
REMARK    3  A    between atoms: C_7  and  O_9
REMARK    4  A    between atoms: C_11  and  O_12
REMARK    5  A    between atoms: C_11  and  C_24
REMARK    6  A    between atoms: C_14  and  C_16
REMARK    7  A    between atoms: C_16  and  O_18
REMARK    8  A    between atoms: C_16  and  C_19
REMARK    9  A    between atoms: C_19  and  O_21
REMARK   10  A    between atoms: C_19  and  C_22
REMARK   11  A    between atoms: C_22  and  O_23
REMARK   12  A    between atoms: C_24  and  O_25
REMARK                            x       y       z     vdW  Elec       q    Type
REMARK                         _______ _______ _______ _____ _____    ______ ____
ROOT
ATOM      1  C   UNL     1       8.709   2.056  24.789  0.00  0.00    +0.133 C 
ATOM      2  C   UNL     1       7.755   2.036  23.574  0.00  0.00    +0.176 C 
ATOM      3  O   UNL     1       7.834   0.762  22.882  0.00  0.00    -0.332 OA
ATOM      4  C   UNL     1       9.137   0.328  22.493  0.00  0.00    +0.270 C 
ATOM      5  C   UNL     1      10.154   0.353  23.638  0.00  0.00    +0.110 C 
ATOM      6  C   UNL     1      10.140   1.696  24.353  0.00  0.00    +0.143 C 
ENDROOT
BRANCH   1   9
ATOM      7  C   UNL     1       6.915   0.608  27.808  0.00  0.00    +0.109 C 
ATOM      8  C   UNL     1       7.316   1.634  26.787  0.00  0.00    +0.210 C 
ATOM      9  N   UNL     1       8.245   1.184  25.867  0.00  0.00    -0.308 N 
ATOM     10  H   UNL     1       8.666   0.270  25.995  0.00  0.00    +0.149 HD
ATOM     11  O   UNL     1       6.842   2.764  26.760  0.00  0.00    -0.276 OA
ENDBRANCH   1   9
BRANCH   4  12
ATOM     12  O   UNL     1       9.585   1.088  21.361  0.00  0.00    -0.356 OA
ATOM     13  H   UNL     1       9.464   2.032  21.603  0.00  0.00    +0.213 HD
ENDBRANCH   4  12
BRANCH   4  14
ATOM     14  C   UNL     1       9.022  -1.132  21.958  0.00  0.00    +0.365 C 
ATOM     15  O   UNL     1       8.020  -1.833  22.001  0.00  0.00    -0.245 OA
BRANCH  14  16
ATOM     16  O   UNL     1      10.193  -1.557  21.403  0.00  0.00    -0.477 OA
ATOM     17  H   UNL     1       9.957  -2.197  20.689  0.00  0.00    +0.295 HD
ENDBRANCH  14  16
ENDBRANCH   4  14
BRANCH   6  18
ATOM     18  O   UNL     1      10.676   2.667  23.446  0.00  0.00    -0.390 OA
ATOM     19  H   UNL     1      10.405   3.552  23.788  0.00  0.00    +0.210 HD
ENDBRANCH   6  18
BRANCH   2  20
ATOM     20  C   UNL     1       7.869   3.214  22.557  0.00  0.00    +0.176 C 
BRANCH  20  21
ATOM     21  O   UNL     1       6.755   3.126  21.651  0.00  0.00    -0.387 OA
ATOM     22  H   UNL     1       7.139   3.115  20.752  0.00  0.00    +0.210 HD
ENDBRANCH  20  21
BRANCH  20  23
ATOM     23  C   UNL     1       7.907   4.624  23.171  0.00  0.00    +0.171 C 
BRANCH  23  24
ATOM     24  O   UNL     1       9.206   5.213  23.013  0.00  0.00    -0.387 OA
ATOM     25  H   UNL     1       9.697   4.617  22.412  0.00  0.00    +0.210 HD
ENDBRANCH  23  24
BRANCH  23  26
ATOM     26  C   UNL     1       6.907   5.564  22.483  0.00  0.00    +0.189 C 
BRANCH  26  27
ATOM     27  O   UNL     1       7.501   6.084  21.289  0.00  0.00    -0.392 OA
ATOM     28  H   UNL     1       8.427   6.297  21.498  0.00  0.00    +0.210 HD
ENDBRANCH  26  27
ENDBRANCH  23  26
ENDBRANCH  20  23
ENDBRANCH   2  20
TORSDOF 11
ENDMDL
MODEL 3
REMARK VINA RESULT:      -5.7      2.639      5.791
REMARK  Name = 
REMARK  12 active torsions:
REMARK  status: ('A' for Active; 'I' for Inactive)
REMARK    1  A    between atoms: C_1  and  C_2
REMARK    2  A    between atoms: N_4  and  C_5
REMARK    3  A    between atoms: C_7  and  O_9
REMARK    4  A    between atoms: C_11  and  O_12
REMARK    5  A    between atoms: C_11  and  C_24
REMARK    6  A    between atoms: C_14  and  C_16
REMARK    7  A    between atoms: C_16  and  O_18
REMARK    8  A    between atoms: C_16  and  C_19
REMARK    9  A    between atoms: C_19  and  O_21
REMARK   10  A    between atoms: C_19  and  C_22
REMARK   11  A    between atoms: C_22  and  O_23
REMARK   12  A    between atoms: C_24  and  O_25
REMARK                            x       y       z     vdW  Elec       q    Type
REMARK                         _______ _______ _______ _____ _____    ______ ____
ROOT
ATOM      1  C   UNL     1       7.491  -0.802  25.193  0.00  0.00    +0.133 C 
ATOM      2  C   UNL     1       8.888  -1.324  24.789  0.00  0.00    +0.176 C 
ATOM      3  O   UNL     1       9.692  -0.254  24.226  0.00  0.00    -0.332 OA
ATOM      4  C   UNL     1       9.110   0.481  23.149  0.00  0.00    +0.270 C 
ATOM      5  C   UNL     1       7.705   1.004  23.458  0.00  0.00    +0.110 C 
ATOM      6  C   UNL     1       6.814  -0.105  23.999  0.00  0.00    +0.143 C 
ENDROOT
BRANCH   1   9
ATOM      7  C   UNL     1       6.812   0.936  28.502  0.00  0.00    +0.109 C 
ATOM      8  C   UNL     1       6.592  -0.008  27.354  0.00  0.00    +0.210 C 
ATOM      9  N   UNL     1       7.549   0.077  26.360  0.00  0.00    -0.308 N 
ATOM     10  H   UNL     1       8.246   0.813  26.406  0.00  0.00    +0.149 HD
ATOM     11  O   UNL     1       5.658  -0.800  27.316  0.00  0.00    -0.276 OA
ENDBRANCH   1   9
BRANCH   4  12
ATOM     12  O   UNL     1       9.136  -0.309  21.950  0.00  0.00    -0.356 OA
ATOM     13  H   UNL     1       8.471  -1.021  22.081  0.00  0.00    +0.213 HD
ENDBRANCH   4  12
BRANCH   4  14
ATOM     14  C   UNL     1      10.038   1.693  22.833  0.00  0.00    +0.365 C 
ATOM     15  O   UNL     1      10.744   2.283  23.638  0.00  0.00    -0.245 OA
BRANCH  14  16
ATOM     16  O   UNL     1       9.989   2.031  21.512  0.00  0.00    -0.477 OA
ATOM     17  H   UNL     1      10.853   2.455  21.292  0.00  0.00    +0.295 HD
ENDBRANCH  14  16
ENDBRANCH   4  14
BRANCH   6  18
ATOM     18  O   UNL     1       6.570  -1.019  22.923  0.00  0.00    -0.390 OA
ATOM     19  H   UNL     1       7.395  -1.547  22.808  0.00  0.00    +0.210 HD
ENDBRANCH   6  18
BRANCH   2  20
ATOM     20  C   UNL     1       8.942  -2.584  23.870  0.00  0.00    +0.176 C 
BRANCH  20  21
ATOM     21  O   UNL     1      10.311  -2.789  23.478  0.00  0.00    -0.387 OA
ATOM     22  H   UNL     1      10.312  -2.798  22.501  0.00  0.00    +0.210 HD
ENDBRANCH  20  21
BRANCH  20  23
ATOM     23  C   UNL     1       8.397  -3.883  24.488  0.00  0.00    +0.171 C 
BRANCH  23  24
ATOM     24  O   UNL     1       8.308  -4.919  23.499  0.00  0.00    -0.387 OA
ATOM     25  H   UNL     1       9.208  -5.006  23.124  0.00  0.00    +0.210 HD
ENDBRANCH  23  24
BRANCH  23  26
ATOM     26  C   UNL     1       9.319  -4.407  25.598  0.00  0.00    +0.189 C 
BRANCH  26  27
ATOM     27  O   UNL     1      10.314  -5.255  25.017  0.00  0.00    -0.392 OA
ATOM     28  H   UNL     1      10.336  -6.074  25.542  0.00  0.00    +0.210 HD
ENDBRANCH  26  27
ENDBRANCH  23  26
ENDBRANCH  20  23
ENDBRANCH   2  20
TORSDOF 11
ENDMDL
MODEL 4
REMARK VINA RESULT:      -5.7      3.403      6.295
REMARK  Name = 
REMARK  12 active torsions:
REMARK  status: ('A' for Active; 'I' for Inactive)
REMARK    1  A    between atoms: C_1  and  C_2
REMARK    2  A    between atoms: N_4  and  C_5
REMARK    3  A    between atoms: C_7  and  O_9
REMARK    4  A    between atoms: C_11  and  O_12
REMARK    5  A    between atoms: C_11  and  C_24
REMARK    6  A    between atoms: C_14  and  C_16
REMARK    7  A    between atoms: C_16  and  O_18
REMARK    8  A    between atoms: C_16  and  C_19
REMARK    9  A    between atoms: C_19  and  O_21
REMARK   10  A    between atoms: C_19  and  C_22
REMARK   11  A    between atoms: C_22  and  O_23
REMARK   12  A    between atoms: C_24  and  O_25
REMARK                            x       y       z     vdW  Elec       q    Type
REMARK                         _______ _______ _______ _____ _____    ______ ____
ROOT
ATOM      1  C   UNL     1       7.570   1.122  23.387  0.00  0.00    +0.133 C 
ATOM      2  C   UNL     1       8.886   1.150  24.197  0.00  0.00    +0.176 C 
ATOM      3  O   UNL     1       9.258   2.514  24.522  0.00  0.00    -0.332 OA
ATOM      4  C   UNL     1       9.332   3.433  23.432  0.00  0.00    +0.270 C 
ATOM      5  C   UNL     1       8.076   3.440  22.557  0.00  0.00    +0.110 C 
ATOM      6  C   UNL     1       7.685   2.027  22.148  0.00  0.00    +0.143 C 
ENDROOT
BRANCH   1   9
ATOM      7  C   UNL     1       4.715   1.116  25.892  0.00  0.00    +0.109 C 
ATOM      8  C   UNL     1       5.875   0.581  25.103  0.00  0.00    +0.210 C 
ATOM      9  N   UNL     1       6.413   1.484  24.205  0.00  0.00    -0.308 N 
ATOM     10  H   UNL     1       5.947   2.373  24.057  0.00  0.00    +0.149 HD
ATOM     11  O   UNL     1       6.318  -0.551  25.259  0.00  0.00    -0.276 OA
ENDBRANCH   1   9
BRANCH   4  12
ATOM     12  O   UNL     1      10.519   3.182  22.664  0.00  0.00    -0.356 OA
ATOM     13  H   UNL     1      10.308   3.453  21.743  0.00  0.00    +0.213 HD
ENDBRANCH   4  12
BRANCH   4  14
ATOM     14  C   UNL     1       9.543   4.863  24.015  0.00  0.00    +0.365 C 
ATOM     15  O   UNL     1       9.171   5.250  25.114  0.00  0.00    -0.245 OA
BRANCH  14  16
ATOM     16  O   UNL     1      10.226   5.663  23.147  0.00  0.00    -0.477 OA
ATOM     17  H   UNL     1       9.635   5.815  22.371  0.00  0.00    +0.295 HD
ENDBRANCH  14  16
ENDBRANCH   4  14
BRANCH   6  18
ATOM     18  O   UNL     1       8.687   1.554  21.239  0.00  0.00    -0.390 OA
ATOM     19  H   UNL     1       8.787   2.245  20.543  0.00  0.00    +0.210 HD
ENDBRANCH   6  18
BRANCH   2  20
ATOM     20  C   UNL     1      10.107   0.381  23.602  0.00  0.00    +0.176 C 
BRANCH  20  21
ATOM     21  O   UNL     1      11.285   0.806  24.309  0.00  0.00    -0.387 OA
ATOM     22  H   UNL     1      11.961   0.980  23.625  0.00  0.00    +0.210 HD
ENDBRANCH  20  21
BRANCH  20  23
ATOM     23  C   UNL     1      10.017  -1.154  23.653  0.00  0.00    +0.171 C 
BRANCH  23  24
ATOM     24  O   UNL     1       9.144  -1.578  24.710  0.00  0.00    -0.387 OA
ATOM     25  H   UNL     1       9.084  -2.552  24.630  0.00  0.00    +0.210 HD
ENDBRANCH  23  24
BRANCH  23  26
ATOM     26  C   UNL     1       9.447  -1.727  22.349  0.00  0.00    +0.189 C 
BRANCH  26  27
ATOM     27  O   UNL     1       9.946  -0.965  21.246  0.00  0.00    -0.392 OA
ATOM     28  H   UNL     1      10.689  -1.464  20.864  0.00  0.00    +0.210 HD
ENDBRANCH  26  27
ENDBRANCH  23  26
ENDBRANCH  20  23
ENDBRANCH   2  20
TORSDOF 11
ENDMDL
MODEL 5
REMARK VINA RESULT:      -5.6      2.080      4.646
REMARK  Name = 
REMARK  12 active torsions:
REMARK  status: ('A' for Active; 'I' for Inactive)
REMARK    1  A    between atoms: C_1  and  C_2
REMARK    2  A    between atoms: N_4  and  C_5
REMARK    3  A    between atoms: C_7  and  O_9
REMARK    4  A    between atoms: C_11  and  O_12
REMARK    5  A    between atoms: C_11  and  C_24
REMARK    6  A    between atoms: C_14  and  C_16
REMARK    7  A    between atoms: C_16  and  O_18
REMARK    8  A    between atoms: C_16  and  C_19
REMARK    9  A    between atoms: C_19  and  O_21
REMARK   10  A    between atoms: C_19  and  C_22
REMARK   11  A    between atoms: C_22  and  O_23
REMARK   12  A    between atoms: C_24  and  O_25
REMARK                            x       y       z     vdW  Elec       q    Type
REMARK                         _______ _______ _______ _____ _____    ______ ____
ROOT
ATOM      1  C   UNL     1       8.866  -3.637  24.366  0.00  0.00    +0.133 C 
ATOM      2  C   UNL     1       7.373  -3.961  24.137  0.00  0.00    +0.176 C 
ATOM      3  O   UNL     1       6.658  -4.005  25.399  0.00  0.00    -0.332 OA
ATOM      4  C   UNL     1       7.198  -4.860  26.407  0.00  0.00    +0.270 C 
ATOM      5  C   UNL     1       8.688  -4.625  26.670  0.00  0.00    +0.110 C 
ATOM      6  C   UNL     1       9.480  -4.628  25.371  0.00  0.00    +0.143 C 
ENDROOT
BRANCH   1   9
ATOM      7  C   UNL     1       9.922   0.005  24.585  0.00  0.00    +0.109 C 
ATOM      8  C   UNL     1       9.841  -1.389  24.035  0.00  0.00    +0.210 C 
ATOM      9  N   UNL     1       9.070  -2.252  24.791  0.00  0.00    -0.308 N 
ATOM     10  H   UNL     1       8.714  -1.941  25.688  0.00  0.00    +0.149 HD
ATOM     11  O   UNL     1      10.392  -1.725  22.992  0.00  0.00    -0.276 OA
ENDBRANCH   1   9
BRANCH   4  12
ATOM     12  O   UNL     1       6.920  -6.231  26.083  0.00  0.00    -0.356 OA
ATOM     13  H   UNL     1       6.961  -6.723  26.932  0.00  0.00    +0.213 HD
ENDBRANCH   4  12
BRANCH   4  14
ATOM     14  C   UNL     1       6.411  -4.608  27.729  0.00  0.00    +0.365 C 
ATOM     15  O   UNL     1       5.600  -3.713  27.919  0.00  0.00    -0.245 OA
BRANCH  14  16
ATOM     16  O   UNL     1       6.722  -5.533  28.682  0.00  0.00    -0.477 OA
ATOM     17  H   UNL     1       7.365  -6.162  28.274  0.00  0.00    +0.295 HD
ENDBRANCH  14  16
ENDBRANCH   4  14
BRANCH   6  18
ATOM     18  O   UNL     1       9.467  -5.969  24.865  0.00  0.00    -0.390 OA
ATOM     19  H   UNL     1       8.525  -6.190  24.677  0.00  0.00    +0.210 HD
ENDBRANCH   6  18
BRANCH   2  20
ATOM     20  C   UNL     1       7.039  -5.221  23.279  0.00  0.00    +0.176 C 
BRANCH  20  21
ATOM     21  O   UNL     1       5.757  -5.718  23.703  0.00  0.00    -0.387 OA
ATOM     22  H   UNL     1       5.548  -5.246  24.533  0.00  0.00    +0.210 HD
ENDBRANCH  20  21
BRANCH  20  23
ATOM     23  C   UNL     1       7.015  -5.004  21.756  0.00  0.00    +0.171 C 
BRANCH  23  24
ATOM     24  O   UNL     1       6.319  -6.075  21.100  0.00  0.00    -0.387 OA
ATOM     25  H   UNL     1       6.757  -6.898  21.399  0.00  0.00    +0.210 HD
ENDBRANCH  23  24
BRANCH  23  26
ATOM     26  C   UNL     1       6.284  -3.707  21.385  0.00  0.00    +0.189 C 
BRANCH  26  27
ATOM     27  O   UNL     1       4.956  -3.750  21.919  0.00  0.00    -0.392 OA
ATOM     28  H   UNL     1       4.344  -3.779  21.163  0.00  0.00    +0.210 HD
ENDBRANCH  26  27
ENDBRANCH  23  26
ENDBRANCH  20  23
ENDBRANCH   2  20
TORSDOF 11
ENDMDL
MODEL 6
REMARK VINA RESULT:      -5.6      4.208      7.025
REMARK  Name = 
REMARK  12 active torsions:
REMARK  status: ('A' for Active; 'I' for Inactive)
REMARK    1  A    between atoms: C_1  and  C_2
REMARK    2  A    between atoms: N_4  and  C_5
REMARK    3  A    between atoms: C_7  and  O_9
REMARK    4  A    between atoms: C_11  and  O_12
REMARK    5  A    between atoms: C_11  and  C_24
REMARK    6  A    between atoms: C_14  and  C_16
REMARK    7  A    between atoms: C_16  and  O_18
REMARK    8  A    between atoms: C_16  and  C_19
REMARK    9  A    between atoms: C_19  and  O_21
REMARK   10  A    between atoms: C_19  and  C_22
REMARK   11  A    between atoms: C_22  and  O_23
REMARK   12  A    between atoms: C_24  and  O_25
REMARK                            x       y       z     vdW  Elec       q    Type
REMARK                         _______ _______ _______ _____ _____    ______ ____
ROOT
ATOM      1  C   UNL     1       9.390   3.188  23.483  0.00  0.00    +0.133 C 
ATOM      2  C   UNL     1       9.315   2.115  24.593  0.00  0.00    +0.176 C 
ATOM      3  O   UNL     1       9.748   0.825  24.088  0.00  0.00    -0.332 OA
ATOM      4  C   UNL     1       9.104   0.354  22.905  0.00  0.00    +0.270 C 
ATOM      5  C   UNL     1       9.105   1.376  21.764  0.00  0.00    +0.110 C 
ATOM      6  C   UNL     1       8.602   2.730  22.243  0.00  0.00    +0.143 C 
ENDROOT
BRANCH   1   9
ATOM      7  C   UNL     1      12.743   4.934  23.116  0.00  0.00    +0.109 C 
ATOM      8  C   UNL     1      11.305   4.750  23.508  0.00  0.00    +0.210 C 
ATOM      9  N   UNL     1      10.770   3.529  23.141  0.00  0.00    -0.308 N 
ATOM     10  H   UNL     1      11.317   2.904  22.558  0.00  0.00    +0.149 HD
ATOM     11  O   UNL     1      10.670   5.601  24.120  0.00  0.00    -0.276 OA
ENDBRANCH   1   9
BRANCH   4  12
ATOM     12  O   UNL     1       7.778  -0.098  23.219  0.00  0.00    -0.356 OA
ATOM     13  H   UNL     1       7.184   0.664  23.043  0.00  0.00    +0.213 HD
ENDBRANCH   4  12
BRANCH   4  14
ATOM     14  C   UNL     1       9.848  -0.930  22.426  0.00  0.00    +0.365 C 
ATOM     15  O   UNL     1      10.400  -1.749  23.148  0.00  0.00    -0.245 OA
BRANCH  14  16
ATOM     16  O   UNL     1       9.803  -1.059  21.068  0.00  0.00    -0.477 OA
ATOM     17  H   UNL     1       8.940  -1.485  20.849  0.00  0.00    +0.295 HD
ENDBRANCH  14  16
ENDBRANCH   4  14
BRANCH   6  18
ATOM     18  O   UNL     1       7.205   2.591  22.527  0.00  0.00    -0.390 OA
ATOM     19  H   UNL     1       7.120   2.528  23.507  0.00  0.00    +0.210 HD
ENDBRANCH   6  18
BRANCH   2  20
ATOM     20  C   UNL     1       7.962   1.973  25.358  0.00  0.00    +0.176 C 
BRANCH  20  21
ATOM     21  O   UNL     1       8.102   0.902  26.308  0.00  0.00    -0.387 OA
ATOM     22  H   UNL     1       7.281   0.906  26.840  0.00  0.00    +0.210 HD
ENDBRANCH  20  21
BRANCH  20  23
ATOM     23  C   UNL     1       7.475   3.234  26.091  0.00  0.00    +0.171 C 
BRANCH  23  24
ATOM     24  O   UNL     1       6.622   4.018  25.243  0.00  0.00    -0.387 OA
ATOM     25  H   UNL     1       6.983   3.918  24.339  0.00  0.00    +0.210 HD
ENDBRANCH  23  24
BRANCH  23  26
ATOM     26  C   UNL     1       6.654   2.878  27.338  0.00  0.00    +0.189 C 
BRANCH  26  27
ATOM     27  O   UNL     1       7.534   2.775  28.462  0.00  0.00    -0.392 OA
ATOM     28  H   UNL     1       7.105   3.233  29.205  0.00  0.00    +0.210 HD
ENDBRANCH  26  27
ENDBRANCH  23  26
ENDBRANCH  20  23
ENDBRANCH   2  20
TORSDOF 11
ENDMDL
MODEL 7
REMARK VINA RESULT:      -5.6      2.232      4.802
REMARK  Name = 
REMARK  12 active torsions:
REMARK  status: ('A' for Active; 'I' for Inactive)
REMARK    1  A    between atoms: C_1  and  C_2
REMARK    2  A    between atoms: N_4  and  C_5
REMARK    3  A    between atoms: C_7  and  O_9
REMARK    4  A    between atoms: C_11  and  O_12
REMARK    5  A    between atoms: C_11  and  C_24
REMARK    6  A    between atoms: C_14  and  C_16
REMARK    7  A    between atoms: C_16  and  O_18
REMARK    8  A    between atoms: C_16  and  C_19
REMARK    9  A    between atoms: C_19  and  O_21
REMARK   10  A    between atoms: C_19  and  C_22
REMARK   11  A    between atoms: C_22  and  O_23
REMARK   12  A    between atoms: C_24  and  O_25
REMARK                            x       y       z     vdW  Elec       q    Type
REMARK                         _______ _______ _______ _____ _____    ______ ____
ROOT
ATOM      1  C   UNL     1       7.478  -4.063  25.763  0.00  0.00    +0.133 C 
ATOM      2  C   UNL     1       7.099  -2.696  25.150  0.00  0.00    +0.176 C 
ATOM      3  O   UNL     1       6.417  -2.875  23.882  0.00  0.00    -0.332 OA
ATOM      4  C   UNL     1       7.081  -3.684  22.910  0.00  0.00    +0.270 C 
ATOM      5  C   UNL     1       7.521  -5.047  23.451  0.00  0.00    +0.110 C 
ATOM      6  C   UNL     1       8.291  -4.895  24.755  0.00  0.00    +0.143 C 
ENDROOT
BRANCH   1   9
ATOM      7  C   UNL     1       5.106  -6.316  27.694  0.00  0.00    +0.109 C 
ATOM      8  C   UNL     1       6.405  -5.668  27.307  0.00  0.00    +0.210 C 
ATOM      9  N   UNL     1       6.306  -4.797  26.238  0.00  0.00    -0.308 N 
ATOM     10  H   UNL     1       5.430  -4.734  25.730  0.00  0.00    +0.149 HD
ATOM     11  O   UNL     1       7.455  -5.878  27.902  0.00  0.00    -0.276 OA
ENDBRANCH   1   9
BRANCH   4  12
ATOM     12  O   UNL     1       8.176  -2.955  22.336  0.00  0.00    -0.356 OA
ATOM     13  H   UNL     1       8.888  -3.614  22.180  0.00  0.00    +0.213 HD
ENDBRANCH   4  12
BRANCH   4  14
ATOM     14  C   UNL     1       6.101  -3.912  21.718  0.00  0.00    +0.365 C 
ATOM     15  O   UNL     1       6.039  -4.917  21.025  0.00  0.00    -0.245 OA
BRANCH  14  16
ATOM     16  O   UNL     1       5.278  -2.839  21.533  0.00  0.00    -0.477 OA
ATOM     17  H   UNL     1       5.675  -2.084  22.030  0.00  0.00    +0.295 HD
ENDBRANCH  14  16
ENDBRANCH   4  14
BRANCH   6  18
ATOM     18  O   UNL     1       9.542  -4.271  24.442  0.00  0.00    -0.390 OA
ATOM     19  H   UNL     1      10.051  -4.221  25.286  0.00  0.00    +0.210 HD
ENDBRANCH   6  18
BRANCH   2  20
ATOM     20  C   UNL     1       8.236  -1.636  25.011  0.00  0.00    +0.176 C 
BRANCH  20  21
ATOM     21  O   UNL     1       7.752  -0.576  24.168  0.00  0.00    -0.387 OA
ATOM     22  H   UNL     1       7.311  -1.013  23.413  0.00  0.00    +0.210 HD
ENDBRANCH  20  21
BRANCH  20  23
ATOM     23  C   UNL     1       8.751  -1.034  26.329  0.00  0.00    +0.171 C 
BRANCH  23  24
ATOM     24  O   UNL     1       9.765  -0.049  26.077  0.00  0.00    -0.387 OA
ATOM     25  H   UNL     1      10.602  -0.549  25.984  0.00  0.00    +0.210 HD
ENDBRANCH  23  24
BRANCH  23  26
ATOM     26  C   UNL     1       7.628  -0.327  27.100  0.00  0.00    +0.189 C 
BRANCH  26  27
ATOM     27  O   UNL     1       7.691   1.078  26.834  0.00  0.00    -0.392 OA
ATOM     28  H   UNL     1       7.138   1.247  26.051  0.00  0.00    +0.210 HD
ENDBRANCH  26  27
ENDBRANCH  23  26
ENDBRANCH  20  23
ENDBRANCH   2  20
TORSDOF 11
ENDMDL
MODEL 8
REMARK VINA RESULT:      -5.5      1.890      5.064
REMARK  Name = 
REMARK  12 active torsions:
REMARK  status: ('A' for Active; 'I' for Inactive)
REMARK    1  A    between atoms: C_1  and  C_2
REMARK    2  A    between atoms: N_4  and  C_5
REMARK    3  A    between atoms: C_7  and  O_9
REMARK    4  A    between atoms: C_11  and  O_12
REMARK    5  A    between atoms: C_11  and  C_24
REMARK    6  A    between atoms: C_14  and  C_16
REMARK    7  A    between atoms: C_16  and  O_18
REMARK    8  A    between atoms: C_16  and  C_19
REMARK    9  A    between atoms: C_19  and  O_21
REMARK   10  A    between atoms: C_19  and  C_22
REMARK   11  A    between atoms: C_22  and  O_23
REMARK   12  A    between atoms: C_24  and  O_25
REMARK                            x       y       z     vdW  Elec       q    Type
REMARK                         _______ _______ _______ _____ _____    ______ ____
ROOT
ATOM      1  C   UNL     1       7.674  -4.971  24.590  0.00  0.00    +0.133 C 
ATOM      2  C   UNL     1       6.796  -3.854  25.198  0.00  0.00    +0.176 C 
ATOM      3  O   UNL     1       7.293  -2.546  24.815  0.00  0.00    -0.332 OA
ATOM      4  C   UNL     1       8.672  -2.286  25.078  0.00  0.00    +0.270 C 
ATOM      5  C   UNL     1       9.609  -3.368  24.536  0.00  0.00    +0.110 C 
ATOM      6  C   UNL     1       9.150  -4.754  24.966  0.00  0.00    +0.143 C 
ENDROOT
BRANCH   1   9
ATOM      7  C   UNL     1       6.370  -5.746  21.108  0.00  0.00    +0.109 C 
ATOM      8  C   UNL     1       6.422  -5.757  22.609  0.00  0.00    +0.210 C 
ATOM      9  N   UNL     1       7.502  -5.078  23.142  0.00  0.00    -0.308 N 
ATOM     10  H   UNL     1       8.222  -4.726  22.520  0.00  0.00    +0.149 HD
ATOM     11  O   UNL     1       5.568  -6.301  23.299  0.00  0.00    -0.276 OA
ENDBRANCH   1   9
BRANCH   4  12
ATOM     12  O   UNL     1       8.866  -2.062  26.483  0.00  0.00    -0.356 OA
ATOM     13  H   UNL     1       9.395  -2.824  26.808  0.00  0.00    +0.213 HD
ENDBRANCH   4  12
BRANCH   4  14
ATOM     14  C   UNL     1       9.044  -0.925  24.415  0.00  0.00    +0.365 C 
ATOM     15  O   UNL     1       8.568  -0.478  23.380  0.00  0.00    -0.245 OA
BRANCH  14  16
ATOM     16  O   UNL     1       9.980  -0.251  25.144  0.00  0.00    -0.477 OA
ATOM     17  H   UNL     1      10.318   0.480  24.572  0.00  0.00    +0.295 HD
ENDBRANCH  14  16
ENDBRANCH   4  14
BRANCH   6  18
ATOM     18  O   UNL     1       9.356  -4.852  26.381  0.00  0.00    -0.390 OA
ATOM     19  H   UNL     1      10.221  -4.419  26.571  0.00  0.00    +0.210 HD
ENDBRANCH   6  18
BRANCH   2  20
ATOM     20  C   UNL     1       6.536  -3.907  26.736  0.00  0.00    +0.176 C 
BRANCH  20  21
ATOM     21  O   UNL     1       6.145  -2.590  27.164  0.00  0.00    -0.387 OA
ATOM     22  H   UNL     1       6.929  -2.209  27.608  0.00  0.00    +0.210 HD
ENDBRANCH  20  21
BRANCH  20  23
ATOM     23  C   UNL     1       5.475  -4.921  27.199  0.00  0.00    +0.171 C 
BRANCH  23  24
ATOM     24  O   UNL     1       4.972  -5.674  26.086  0.00  0.00    -0.387 OA
ATOM     25  H   UNL     1       4.028  -5.428  26.003  0.00  0.00    +0.210 HD
ENDBRANCH  23  24
BRANCH  23  26
ATOM     26  C   UNL     1       6.061  -5.933  28.192  0.00  0.00    +0.189 C 
BRANCH  26  27
ATOM     27  O   UNL     1       7.460  -6.087  27.931  0.00  0.00    -0.392 OA
ATOM     28  H   UNL     1       7.598  -7.004  27.634  0.00  0.00    +0.210 HD
ENDBRANCH  26  27
ENDBRANCH  23  26
ENDBRANCH  20  23
ENDBRANCH   2  20
TORSDOF 11
ENDMDL
MODEL 9
REMARK VINA RESULT:      -5.5      2.881      5.784
REMARK  Name = 
REMARK  12 active torsions:
REMARK  status: ('A' for Active; 'I' for Inactive)
REMARK    1  A    between atoms: C_1  and  C_2
REMARK    2  A    between atoms: N_4  and  C_5
REMARK    3  A    between atoms: C_7  and  O_9
REMARK    4  A    between atoms: C_11  and  O_12
REMARK    5  A    between atoms: C_11  and  C_24
REMARK    6  A    between atoms: C_14  and  C_16
REMARK    7  A    between atoms: C_16  and  O_18
REMARK    8  A    between atoms: C_16  and  C_19
REMARK    9  A    between atoms: C_19  and  O_21
REMARK   10  A    between atoms: C_19  and  C_22
REMARK   11  A    between atoms: C_22  and  O_23
REMARK   12  A    between atoms: C_24  and  O_25
REMARK                            x       y       z     vdW  Elec       q    Type
REMARK                         _______ _______ _______ _____ _____    ______ ____
ROOT
ATOM      1  C   UNL     1       8.530  -1.080  25.029  0.00  0.00    +0.133 C 
ATOM      2  C   UNL     1       7.515   0.084  25.037  0.00  0.00    +0.176 C 
ATOM      3  O   UNL     1       7.566   0.817  23.785  0.00  0.00    -0.332 OA
ATOM      4  C   UNL     1       8.850   1.287  23.374  0.00  0.00    +0.270 C 
ATOM      5  C   UNL     1       9.925   0.196  23.373  0.00  0.00    +0.110 C 
ATOM      6  C   UNL     1       9.939  -0.559  24.694  0.00  0.00    +0.143 C 
ENDROOT
BRANCH   1   9
ATOM      7  C   UNL     1       7.857  -4.459  23.431  0.00  0.00    +0.109 C 
ATOM      8  C   UNL     1       8.360  -3.477  24.449  0.00  0.00    +0.210 C 
ATOM      9  N   UNL     1       8.129  -2.154  24.121  0.00  0.00    -0.308 N 
ATOM     10  H   UNL     1       7.754  -1.929  23.206  0.00  0.00    +0.149 HD
ATOM     11  O   UNL     1       8.906  -3.822  25.491  0.00  0.00    -0.276 OA
ENDBRANCH   1   9
BRANCH   4  12
ATOM     12  O   UNL     1       9.234   2.417  24.171  0.00  0.00    -0.356 OA
ATOM     13  H   UNL     1       9.786   2.059  24.900  0.00  0.00    +0.213 HD
ENDBRANCH   4  12
BRANCH   4  14
ATOM     14  C   UNL     1       8.717   1.858  21.930  0.00  0.00    +0.365 C 
ATOM     15  O   UNL     1       7.672   2.005  21.311  0.00  0.00    -0.245 OA
BRANCH  14  16
ATOM     16  O   UNL     1       9.931   2.206  21.414  0.00  0.00    -0.477 OA
ATOM     17  H   UNL     1      10.574   2.201  22.164  0.00  0.00    +0.295 HD
ENDBRANCH  14  16
ENDBRANCH   4  14
BRANCH   6  18
ATOM     18  O   UNL     1      10.421   0.344  25.697  0.00  0.00    -0.390 OA
ATOM     19  H   UNL     1      10.355   1.251  25.315  0.00  0.00    +0.210 HD
ENDBRANCH   6  18
BRANCH   2  20
ATOM     20  C   UNL     1       7.568   1.070  26.246  0.00  0.00    +0.176 C 
BRANCH  20  21
ATOM     21  O   UNL     1       6.573   2.087  26.031  0.00  0.00    -0.387 OA
ATOM     22  H   UNL     1       6.358   2.055  25.078  0.00  0.00    +0.210 HD
ENDBRANCH  20  21
BRANCH  20  23
ATOM     23  C   UNL     1       7.348   0.438  27.632  0.00  0.00    +0.171 C 
BRANCH  23  24
ATOM     24  O   UNL     1       8.601   0.066  28.225  0.00  0.00    -0.387 OA
ATOM     25  H   UNL     1       8.379  -0.566  28.939  0.00  0.00    +0.210 HD
ENDBRANCH  23  24
BRANCH  23  26
ATOM     26  C   UNL     1       6.675   1.422  28.597  0.00  0.00    +0.189 C 
BRANCH  26  27
ATOM     27  O   UNL     1       7.547   2.535  28.815  0.00  0.00    -0.392 OA
ATOM     28  H   UNL     1       7.155   3.301  28.361  0.00  0.00    +0.210 HD
ENDBRANCH  26  27
ENDBRANCH  23  26
ENDBRANCH  20  23
ENDBRANCH   2  20
TORSDOF 11
ENDMDL
