MODEL 1
REMARK VINA RESULT:      -5.2      0.000      0.000
REMARK  Name = 
REMARK  1 active torsions:
REMARK  status: ('A' for Active; 'I' for Inactive)
REMARK    1  A    between atoms: O_1  and  C_2
REMARK                            x       y       z     vdW  Elec       q    Type
REMARK                         _______ _______ _______ _____ _____    ______ ____
ROOT
ATOM      1  C   UNL     1       9.201  -5.402  25.193  0.00  0.00    +0.288 A 
ATOM      2  O   UNL     1       8.855  -5.580  23.864  0.00  0.00    -0.425 OA
ATOM      3  C   UNL     1       7.535  -5.476  23.506  0.00  0.00    +0.143 A 
ATOM      4  C   UNL     1       6.514  -5.266  24.429  0.00  0.00    +0.064 A 
ATOM      5  C   UNL     1       5.187  -5.150  24.008  0.00  0.00    +0.015 A 
ATOM      6  C   UNL     1       4.887  -5.241  22.648  0.00  0.00    +0.001 A 
ATOM      7  C   UNL     1       5.908  -5.459  21.720  0.00  0.00    +0.004 A 
ATOM      8  C   UNL     1       6.870  -5.156  25.849  0.00  0.00    +0.196 A 
ATOM      9  O   UNL     1       6.033  -5.014  26.731  0.00  0.00    -0.287 OA
ATOM     10  C   UNL     1       7.231  -5.581  22.148  0.00  0.00    +0.047 A 
ATOM     11  C   UNL     1       8.305  -5.207  26.172  0.00  0.00    +0.139 A 
ENDROOT
BRANCH   1  12
ATOM     12  O   UNL     1      10.553  -5.434  25.473  0.00  0.00    -0.480 OA
ATOM     13  H   UNL     1      11.050  -5.225  24.665  0.00  0.00    +0.295 HD
ENDBRANCH   1  12
TORSDOF 1
ENDMDL
MODEL 2
REMARK VINA RESULT:      -5.1      1.653      2.795
REMARK  Name = 
REMARK  1 active torsions:
REMARK  status: ('A' for Active; 'I' for Inactive)
REMARK    1  A    between atoms: O_1  and  C_2
REMARK                            x       y       z     vdW  Elec       q    Type
REMARK                         _______ _______ _______ _____ _____    ______ ____
ROOT
ATOM      1  C   UNL     1       7.927  -5.243  26.395  0.00  0.00    +0.288 A 
ATOM      2  O   UNL     1       6.693  -5.081  25.788  0.00  0.00    -0.425 OA
ATOM      3  C   UNL     1       6.633  -4.448  24.573  0.00  0.00    +0.143 A 
ATOM      4  C   UNL     1       7.749  -3.899  23.950  0.00  0.00    +0.064 A 
ATOM      5  C   UNL     1       7.636  -3.281  22.702  0.00  0.00    +0.015 A 
ATOM      6  C   UNL     1       6.390  -3.219  22.076  0.00  0.00    +0.001 A 
ATOM      7  C   UNL     1       5.265  -3.763  22.703  0.00  0.00    +0.004 A 
ATOM      8  C   UNL     1       9.047  -4.000  24.628  0.00  0.00    +0.196 A 
ATOM      9  O   UNL     1      10.071  -3.508  24.172  0.00  0.00    -0.287 OA
ATOM     10  C   UNL     1       5.385  -4.374  23.953  0.00  0.00    +0.047 A 
ATOM     11  C   UNL     1       9.069  -4.747  25.897  0.00  0.00    +0.139 A 
ENDROOT
BRANCH   1  12
ATOM     12  O   UNL     1       7.929  -5.963  27.574  0.00  0.00    -0.480 OA
ATOM     13  H   UNL     1       8.654  -6.608  27.552  0.00  0.00    +0.295 HD
ENDBRANCH   1  12
TORSDOF 1
ENDMDL
MODEL 3
REMARK VINA RESULT:      -5.1      3.615      4.157
REMARK  Name = 
REMARK  1 active torsions:
REMARK  status: ('A' for Active; 'I' for Inactive)
REMARK    1  A    between atoms: O_1  and  C_2
REMARK                            x       y       z     vdW  Elec       q    Type
REMARK                         _______ _______ _______ _____ _____    ______ ____
ROOT
ATOM      1  C   UNL     1       9.607  -4.508  25.222  0.00  0.00    +0.288 A 
ATOM      2  O   UNL     1      10.088  -3.783  24.145  0.00  0.00    -0.425 OA
ATOM      3  C   UNL     1       9.721  -2.467  24.017  0.00  0.00    +0.143 A 
ATOM      4  C   UNL     1       8.831  -1.843  24.886  0.00  0.00    +0.064 A 
ATOM      5  C   UNL     1       8.504  -0.494  24.722  0.00  0.00    +0.015 A 
ATOM      6  C   UNL     1       9.082   0.231  23.679  0.00  0.00    +0.001 A 
ATOM      7  C   UNL     1       9.970  -0.395  22.800  0.00  0.00    +0.004 A 
ATOM      8  C   UNL     1       8.258  -2.631  25.984  0.00  0.00    +0.196 A 
ATOM      9  O   UNL     1       7.436  -2.174  26.767  0.00  0.00    -0.287 OA
ATOM     10  C   UNL     1      10.287  -1.745  22.967  0.00  0.00    +0.047 A 
ATOM     11  C   UNL     1       8.736  -4.017  26.116  0.00  0.00    +0.139 A 
ENDROOT
BRANCH   1  12
ATOM     12  O   UNL     1      10.082  -5.799  25.339  0.00  0.00    -0.480 OA
ATOM     13  H   UNL     1       9.542  -6.281  25.987  0.00  0.00    +0.295 HD
ENDBRANCH   1  12
TORSDOF 1
ENDMDL
MODEL 4
REMARK VINA RESULT:      -5.0      2.523      3.278
REMARK  Name = 
REMARK  1 active torsions:
REMARK  status: ('A' for Active; 'I' for Inactive)
REMARK    1  A    between atoms: O_1  and  C_2
REMARK                            x       y       z     vdW  Elec       q    Type
REMARK                         _______ _______ _______ _____ _____    ______ ____
ROOT
ATOM      1  C   UNL     1       7.959  -5.108  26.064  0.00  0.00    +0.288 A 
ATOM      2  O   UNL     1       9.002  -4.310  25.622  0.00  0.00    -0.425 OA
ATOM      3  C   UNL     1       8.835  -3.585  24.470  0.00  0.00    +0.143 A 
ATOM      4  C   UNL     1       7.689  -3.664  23.685  0.00  0.00    +0.064 A 
ATOM      5  C   UNL     1       7.563  -2.889  22.530  0.00  0.00    +0.015 A 
ATOM      6  C   UNL     1       8.597  -2.025  22.166  0.00  0.00    +0.001 A 
ATOM      7  C   UNL     1       9.752  -1.949  22.948  0.00  0.00    +0.004 A 
ATOM      8  C   UNL     1       6.614  -4.569  24.110  0.00  0.00    +0.196 A 
ATOM      9  O   UNL     1       5.591  -4.732  23.457  0.00  0.00    -0.287 OA
ATOM     10  C   UNL     1       9.874  -2.731  24.098  0.00  0.00    +0.047 A 
ATOM     11  C   UNL     1       6.814  -5.273  25.387  0.00  0.00    +0.139 A 
ENDROOT
BRANCH   1  12
ATOM     12  O   UNL     1       8.159  -5.744  27.274  0.00  0.00    -0.480 OA
ATOM     13  H   UNL     1       8.442  -6.659  27.110  0.00  0.00    +0.295 HD
ENDBRANCH   1  12
TORSDOF 1
ENDMDL
MODEL 5
REMARK VINA RESULT:      -4.9      2.861      3.921
REMARK  Name = 
REMARK  1 active torsions:
REMARK  status: ('A' for Active; 'I' for Inactive)
REMARK    1  A    between atoms: O_1  and  C_2
REMARK                            x       y       z     vdW  Elec       q    Type
REMARK                         _______ _______ _______ _____ _____    ______ ____
ROOT
ATOM      1  C   UNL     1       9.531  -2.163  22.623  0.00  0.00    +0.288 A 
ATOM      2  O   UNL     1       9.913  -2.988  23.668  0.00  0.00    -0.425 OA
ATOM      3  C   UNL     1       8.946  -3.689  24.343  0.00  0.00    +0.143 A 
ATOM      4  C   UNL     1       7.587  -3.558  24.069  0.00  0.00    +0.064 A 
ATOM      5  C   UNL     1       6.645  -4.310  24.775  0.00  0.00    +0.015 A 
ATOM      6  C   UNL     1       7.073  -5.202  25.758  0.00  0.00    +0.001 A 
ATOM      7  C   UNL     1       8.436  -5.330  26.041  0.00  0.00    +0.004 A 
ATOM      8  C   UNL     1       7.175  -2.625  23.014  0.00  0.00    +0.196 A 
ATOM      9  O   UNL     1       6.000  -2.417  22.738  0.00  0.00    -0.287 OA
ATOM     10  C   UNL     1       9.372  -4.570  25.336  0.00  0.00    +0.047 A 
ATOM     11  C   UNL     1       8.254  -1.949  22.276  0.00  0.00    +0.139 A 
ENDROOT
BRANCH   1  12
ATOM     12  O   UNL     1      10.560  -1.554  21.931  0.00  0.00    -0.480 OA
ATOM     13  H   UNL     1      10.531  -1.837  21.002  0.00  0.00    +0.295 HD
ENDBRANCH   1  12
TORSDOF 1
ENDMDL
MODEL 6
REMARK VINA RESULT:      -4.9      5.496      6.076
REMARK  Name = 
REMARK  1 active torsions:
REMARK  status: ('A' for Active; 'I' for Inactive)
REMARK    1  A    between atoms: O_1  and  C_2
REMARK                            x       y       z     vdW  Elec       q    Type
REMARK                         _______ _______ _______ _____ _____    ______ ____
ROOT
ATOM      1  C   UNL     1       8.307  -2.451  23.105  0.00  0.00    +0.288 A 
ATOM      2  O   UNL     1       8.618  -1.463  22.184  0.00  0.00    -0.425 OA
ATOM      3  C   UNL     1       9.178  -0.295  22.633  0.00  0.00    +0.143 A 
ATOM      4  C   UNL     1       9.388  -0.026  23.983  0.00  0.00    +0.064 A 
ATOM      5  C   UNL     1       9.980   1.174  24.385  0.00  0.00    +0.015 A 
ATOM      6  C   UNL     1      10.367   2.107  23.422  0.00  0.00    +0.001 A 
ATOM      7  C   UNL     1      10.150   1.843  22.066  0.00  0.00    +0.004 A 
ATOM      8  C   UNL     1       8.987  -1.039  24.966  0.00  0.00    +0.196 A 
ATOM      9  O   UNL     1       9.096  -0.867  26.174  0.00  0.00    -0.287 OA
ATOM     10  C   UNL     1       9.552   0.644  21.672  0.00  0.00    +0.047 A 
ATOM     11  C   UNL     1       8.453  -2.301  24.429  0.00  0.00    +0.139 A 
ENDROOT
BRANCH   1  12
ATOM     12  O   UNL     1       7.826  -3.634  22.579  0.00  0.00    -0.480 OA
ATOM     13  H   UNL     1       7.440  -3.461  21.704  0.00  0.00    +0.295 HD
ENDBRANCH   1  12
TORSDOF 1
ENDMDL
MODEL 7
REMARK VINA RESULT:      -4.9      5.226      5.730
REMARK  Name = 
REMARK  1 active torsions:
REMARK  status: ('A' for Active; 'I' for Inactive)
REMARK    1  A    between atoms: O_1  and  C_2
REMARK                            x       y       z     vdW  Elec       q    Type
REMARK                         _______ _______ _______ _____ _____    ______ ____
ROOT
ATOM      1  C   UNL     1       9.085  -0.749  26.250  0.00  0.00    +0.288 A 
ATOM      2  O   UNL     1       9.539   0.292  25.457  0.00  0.00    -0.425 OA
ATOM      3  C   UNL     1       9.490   0.153  24.094  0.00  0.00    +0.143 A 
ATOM      4  C   UNL     1       9.067  -1.015  23.467  0.00  0.00    +0.064 A 
ATOM      5  C   UNL     1       9.018  -1.098  22.073  0.00  0.00    +0.015 A 
ATOM      6  C   UNL     1       9.394   0.006  21.306  0.00  0.00    +0.001 A 
ATOM      7  C   UNL     1       9.827   1.178  21.932  0.00  0.00    +0.004 A 
ATOM      8  C   UNL     1       8.660  -2.149  24.306  0.00  0.00    +0.196 A 
ATOM      9  O   UNL     1       8.315  -3.227  23.839  0.00  0.00    -0.287 OA
ATOM     10  C   UNL     1       9.878   1.251  23.326  0.00  0.00    +0.047 A 
ATOM     11  C   UNL     1       8.667  -1.925  25.761  0.00  0.00    +0.139 A 
ENDROOT
BRANCH   1  12
ATOM     12  O   UNL     1       9.082  -0.512  27.611  0.00  0.00    -0.480 OA
ATOM     13  H   UNL     1       9.031  -1.360  28.082  0.00  0.00    +0.295 HD
ENDBRANCH   1  12
TORSDOF 1
ENDMDL
MODEL 8
REMARK VINA RESULT:      -4.8      5.853      6.356
REMARK  Name = 
REMARK  1 active torsions:
REMARK  status: ('A' for Active; 'I' for Inactive)
REMARK    1  A    between atoms: O_1  and  C_2
REMARK                            x       y       z     vdW  Elec       q    Type
REMARK                         _______ _______ _______ _____ _____    ______ ____
ROOT
ATOM      1  C   UNL     1       9.895   1.532  22.621  0.00  0.00    +0.288 A 
ATOM      2  O   UNL     1      10.234   0.193  22.515  0.00  0.00    -0.425 OA
ATOM      3  C   UNL     1       9.754  -0.686  23.452  0.00  0.00    +0.143 A 
ATOM      4  C   UNL     1       8.994  -0.285  24.547  0.00  0.00    +0.064 A 
ATOM      5  C   UNL     1       8.514  -1.224  25.462  0.00  0.00    +0.015 A 
ATOM      6  C   UNL     1       8.797  -2.577  25.271  0.00  0.00    +0.001 A 
ATOM      7  C   UNL     1       9.566  -2.983  24.177  0.00  0.00    +0.004 A 
ATOM      8  C   UNL     1       8.700   1.145  24.704  0.00  0.00    +0.196 A 
ATOM      9  O   UNL     1       8.076   1.589  25.660  0.00  0.00    -0.287 OA
ATOM     10  C   UNL     1      10.047  -2.037  23.269  0.00  0.00    +0.047 A 
ATOM     11  C   UNL     1       9.181   2.037  23.637  0.00  0.00    +0.139 A 
ENDROOT
BRANCH   1  12
ATOM     12  O   UNL     1      10.340   2.348  21.599  0.00  0.00    -0.480 OA
ATOM     13  H   UNL     1       9.649   2.997  21.386  0.00  0.00    +0.295 HD
ENDBRANCH   1  12
TORSDOF 1
ENDMDL
MODEL 9
REMARK VINA RESULT:      -4.8      7.207      7.659
REMARK  Name = 
REMARK  1 active torsions:
REMARK  status: ('A' for Active; 'I' for Inactive)
REMARK    1  A    between atoms: O_1  and  C_2
REMARK                            x       y       z     vdW  Elec       q    Type
REMARK                         _______ _______ _______ _____ _____    ______ ____
ROOT
ATOM      1  C   UNL     1       9.686  -0.571  22.029  0.00  0.00    +0.288 A 
ATOM      2  O   UNL     1       8.796   0.418  21.645  0.00  0.00    -0.425 OA
ATOM      3  C   UNL     1       8.724   1.567  22.390  0.00  0.00    +0.143 A 
ATOM      4  C   UNL     1       9.457   1.759  23.557  0.00  0.00    +0.064 A 
ATOM      5  C   UNL     1       9.360   2.957  24.269  0.00  0.00    +0.015 A 
ATOM      6  C   UNL     1       8.522   3.970  23.800  0.00  0.00    +0.001 A 
ATOM      7  C   UNL     1       7.778   3.777  22.633  0.00  0.00    +0.004 A 
ATOM      8  C   UNL     1      10.343   0.680  24.009  0.00  0.00    +0.196 A 
ATOM      9  O   UNL     1      10.992   0.748  25.046  0.00  0.00    -0.287 OA
ATOM     10  C   UNL     1       7.876   2.574  21.930  0.00  0.00    +0.047 A 
ATOM     11  C   UNL     1      10.435  -0.503  23.139  0.00  0.00    +0.139 A 
ENDROOT
BRANCH   1  12
ATOM     12  O   UNL     1       9.772  -1.664  21.188  0.00  0.00    -0.480 OA
ATOM     13  H   UNL     1      10.115  -2.424  21.687  0.00  0.00    +0.295 HD
ENDBRANCH   1  12
TORSDOF 1
ENDMDL
