MODEL 1
REMARK VINA RESULT:      -3.8      0.000      0.000
REMARK  Name = 
REMARK  7 active torsions:
REMARK  status: ('A' for Active; 'I' for Inactive)
REMARK    1  A    between atoms: CE_1  and  SD_2
REMARK    2  A    between atoms: SD_2  and  CG_3
REMARK    3  A    between atoms: CG_3  and  CB_4
REMARK    4  A    between atoms: CB_4  and  CA_5
REMARK    5  A    between atoms: CA_5  and  N_7
REMARK    6  A    between atoms: CA_5  and  C_8
REMARK    7  A    between atoms: C_8  and  O_9
REMARK                            x       y       z     vdW  Elec       q    Type
REMARK                         _______ _______ _______ _____ _____    ______ ____
ROOT
ATOM      1  CA  MET A   1       8.669  -4.612  26.590  0.00  0.00    +0.161 C 
ENDROOT
BRANCH   1   2
ATOM      2  N   MET A   1       7.949  -5.736  27.255  0.00  0.00    -0.318 NA
ATOM      3  H1  MET A   1       7.178  -5.334  27.801  0.00  0.00    +0.119 HD
ATOM      4  H2  MET A   1       7.474  -6.291  26.538  0.00  0.00    +0.119 HD
ENDBRANCH   1   2
BRANCH   1   5
ATOM      5  C   MET A   1       9.290  -5.150  25.290  0.00  0.00    +0.322 C 
ATOM      6  OXT MET A   1       8.701  -5.273  24.229  0.00  0.00    -0.249 OA
BRANCH   5   7
ATOM      7  O   MET A   1      10.590  -5.500  25.475  0.00  0.00    -0.480 OA
ATOM      8  H   MET A   1      10.892  -5.913  24.628  0.00  0.00    +0.295 HD
ENDBRANCH   5   7
ENDBRANCH   1   5
BRANCH   1   9
ATOM      9  CB  MET A   1       7.728  -3.453  26.235  0.00  0.00    +0.040 C 
BRANCH   9  10
ATOM     10  CG  MET A   1       8.455  -2.125  26.043  0.00  0.00    +0.071 C 
BRANCH  10  12
ATOM     11  CE  MET A   1       9.879  -1.918  23.691  0.00  0.00    +0.084 C 
ATOM     12  SD  MET A   1       8.231  -1.541  24.330  0.00  0.00    -0.164 S 
ENDBRANCH  10  12
ENDBRANCH   9  10
ENDBRANCH   1   9
TORSDOF 6
ENDMDL
MODEL 2
REMARK VINA RESULT:      -3.7      2.105      2.461
REMARK  Name = 
REMARK  7 active torsions:
REMARK  status: ('A' for Active; 'I' for Inactive)
REMARK    1  A    between atoms: CE_1  and  SD_2
REMARK    2  A    between atoms: SD_2  and  CG_3
REMARK    3  A    between atoms: CG_3  and  CB_4
REMARK    4  A    between atoms: CB_4  and  CA_5
REMARK    5  A    between atoms: CA_5  and  N_7
REMARK    6  A    between atoms: CA_5  and  C_8
REMARK    7  A    between atoms: C_8  and  O_9
REMARK                            x       y       z     vdW  Elec       q    Type
REMARK                         _______ _______ _______ _____ _____    ______ ____
ROOT
ATOM      1  CA  MET A   1       8.060  -4.754  25.974  0.00  0.00    +0.161 C 
ENDROOT
BRANCH   1   2
ATOM      2  N   MET A   1       8.024  -5.639  27.173  0.00  0.00    -0.318 NA
ATOM      3  H1  MET A   1       8.464  -6.531  26.916  0.00  0.00    +0.119 HD
ATOM      4  H2  MET A   1       8.652  -5.255  27.883  0.00  0.00    +0.119 HD
ENDBRANCH   1   2
BRANCH   1   5
ATOM      5  C   MET A   1       9.428  -4.933  25.294  0.00  0.00    +0.322 C 
ATOM      6  OXT MET A   1       9.958  -4.118  24.557  0.00  0.00    -0.249 OA
BRANCH   5   7
ATOM      7  O   MET A   1       9.975  -6.140  25.600  0.00  0.00    -0.480 OA
ATOM      8  H   MET A   1      10.283  -6.077  26.538  0.00  0.00    +0.295 HD
ENDBRANCH   5   7
ENDBRANCH   1   5
BRANCH   1   9
ATOM      9  CB  MET A   1       6.965  -5.108  24.960  0.00  0.00    +0.040 C 
BRANCH   9  10
ATOM     10  CG  MET A   1       6.418  -3.892  24.215  0.00  0.00    +0.071 C 
BRANCH  10  12
ATOM     11  CE  MET A   1       7.229  -5.725  22.323  0.00  0.00    +0.084 C 
ATOM     12  SD  MET A   1       6.951  -3.945  22.473  0.00  0.00    -0.164 S 
ENDBRANCH  10  12
ENDBRANCH   9  10
ENDBRANCH   1   9
TORSDOF 6
ENDMDL
MODEL 3
REMARK VINA RESULT:      -3.7      2.554      2.903
REMARK  Name = 
REMARK  7 active torsions:
REMARK  status: ('A' for Active; 'I' for Inactive)
REMARK    1  A    between atoms: CE_1  and  SD_2
REMARK    2  A    between atoms: SD_2  and  CG_3
REMARK    3  A    between atoms: CG_3  and  CB_4
REMARK    4  A    between atoms: CB_4  and  CA_5
REMARK    5  A    between atoms: CA_5  and  N_7
REMARK    6  A    between atoms: CA_5  and  C_8
REMARK    7  A    between atoms: C_8  and  O_9
REMARK                            x       y       z     vdW  Elec       q    Type
REMARK                         _______ _______ _______ _____ _____    ______ ____
ROOT
ATOM      1  CA  MET A   1       8.889  -5.415  25.317  0.00  0.00    +0.161 C 
ENDROOT
BRANCH   1   2
ATOM      2  N   MET A   1      10.375  -5.490  25.419  0.00  0.00    -0.318 NA
ATOM      3  H1  MET A   1      10.737  -5.768  24.500  0.00  0.00    +0.119 HD
ATOM      4  H2  MET A   1      10.742  -4.543  25.548  0.00  0.00    +0.119 HD
ENDBRANCH   1   2
BRANCH   1   5
ATOM      5  C   MET A   1       8.348  -4.892  26.659  0.00  0.00    +0.322 C 
ATOM      6  OXT MET A   1       8.287  -3.717  26.983  0.00  0.00    -0.249 OA
BRANCH   5   7
ATOM      7  O   MET A   1       7.960  -5.916  27.465  0.00  0.00    -0.480 OA
ATOM      8  H   MET A   1       8.644  -6.624  27.366  0.00  0.00    +0.295 HD
ENDBRANCH   5   7
ENDBRANCH   1   5
BRANCH   1   9
ATOM      9  CB  MET A   1       8.433  -4.460  24.206  0.00  0.00    +0.040 C 
BRANCH   9  10
ATOM     10  CG  MET A   1       7.333  -5.045  23.324  0.00  0.00    +0.071 C 
BRANCH  10  12
ATOM     11  CE  MET A   1       8.028  -2.543  22.398  0.00  0.00    +0.084 C 
ATOM     12  SD  MET A   1       6.715  -3.766  22.181  0.00  0.00    -0.164 S 
ENDBRANCH  10  12
ENDBRANCH   9  10
ENDBRANCH   1   9
TORSDOF 6
ENDMDL
MODEL 4
REMARK VINA RESULT:      -3.6      2.013      2.258
REMARK  Name = 
REMARK  7 active torsions:
REMARK  status: ('A' for Active; 'I' for Inactive)
REMARK    1  A    between atoms: CE_1  and  SD_2
REMARK    2  A    between atoms: SD_2  and  CG_3
REMARK    3  A    between atoms: CG_3  and  CB_4
REMARK    4  A    between atoms: CB_4  and  CA_5
REMARK    5  A    between atoms: CA_5  and  N_7
REMARK    6  A    between atoms: CA_5  and  C_8
REMARK    7  A    between atoms: C_8  and  O_9
REMARK                            x       y       z     vdW  Elec       q    Type
REMARK                         _______ _______ _______ _____ _____    ______ ____
ROOT
ATOM      1  CA  MET A   1       8.936  -4.861  24.925  0.00  0.00    +0.161 C 
ENDROOT
BRANCH   1   2
ATOM      2  N   MET A   1      10.197  -5.520  25.372  0.00  0.00    -0.318 NA
ATOM      3  H1  MET A   1       9.943  -6.413  25.811  0.00  0.00    +0.119 HD
ATOM      4  H2  MET A   1      10.730  -5.800  24.545  0.00  0.00    +0.119 HD
ENDBRANCH   1   2
BRANCH   1   5
ATOM      5  C   MET A   1       7.793  -5.371  25.818  0.00  0.00    +0.322 C 
ATOM      6  OXT MET A   1       6.609  -5.352  25.524  0.00  0.00    -0.249 OA
BRANCH   5   7
ATOM      7  O   MET A   1       8.266  -5.834  27.006  0.00  0.00    -0.480 OA
ATOM      8  H   MET A   1       8.046  -6.798  27.038  0.00  0.00    +0.295 HD
ENDBRANCH   5   7
ENDBRANCH   1   5
BRANCH   1   9
ATOM      9  CB  MET A   1       9.005  -3.333  25.052  0.00  0.00    +0.040 C 
BRANCH   9  10
ATOM     10  CG  MET A   1       9.741  -2.665  23.893  0.00  0.00    +0.071 C 
BRANCH  10  12
ATOM     11  CE  MET A   1       9.537  -0.904  21.782  0.00  0.00    +0.084 C 
ATOM     12  SD  MET A   1       8.546  -2.170  22.609  0.00  0.00    -0.164 S 
ENDBRANCH  10  12
ENDBRANCH   9  10
ENDBRANCH   1   9
TORSDOF 6
ENDMDL
MODEL 5
REMARK VINA RESULT:      -3.5      3.029      3.542
REMARK  Name = 
REMARK  7 active torsions:
REMARK  status: ('A' for Active; 'I' for Inactive)
REMARK    1  A    between atoms: CE_1  and  SD_2
REMARK    2  A    between atoms: SD_2  and  CG_3
REMARK    3  A    between atoms: CG_3  and  CB_4
REMARK    4  A    between atoms: CB_4  and  CA_5
REMARK    5  A    between atoms: CA_5  and  N_7
REMARK    6  A    between atoms: CA_5  and  C_8
REMARK    7  A    between atoms: C_8  and  O_9
REMARK                            x       y       z     vdW  Elec       q    Type
REMARK                         _______ _______ _______ _____ _____    ______ ____
ROOT
ATOM      1  CA  MET A   1       7.992  -4.808  26.003  0.00  0.00    +0.161 C 
ENDROOT
BRANCH   1   2
ATOM      2  N   MET A   1       8.005  -5.668  27.221  0.00  0.00    -0.318 NA
ATOM      3  H1  MET A   1       7.673  -6.601  26.948  0.00  0.00    +0.119 HD
ATOM      4  H2  MET A   1       8.976  -5.828  27.498  0.00  0.00    +0.119 HD
ENDBRANCH   1   2
BRANCH   1   5
ATOM      5  C   MET A   1       9.343  -4.979  25.289  0.00  0.00    +0.322 C 
ATOM      6  OXT MET A   1       9.869  -4.144  24.570  0.00  0.00    -0.249 OA
BRANCH   5   7
ATOM      7  O   MET A   1       9.882  -6.202  25.540  0.00  0.00    -0.480 OA
ATOM      8  H   MET A   1       9.693  -6.759  24.746  0.00  0.00    +0.295 HD
ENDBRANCH   5   7
ENDBRANCH   1   5
BRANCH   1   9
ATOM      9  CB  MET A   1       6.875  -5.202  25.027  0.00  0.00    +0.040 C 
BRANCH   9  10
ATOM     10  CG  MET A   1       5.644  -5.778  25.723  0.00  0.00    +0.071 C 
BRANCH  10  12
ATOM     11  CE  MET A   1       4.341  -5.313  23.339  0.00  0.00    +0.084 C 
ATOM     12  SD  MET A   1       4.609  -6.663  24.511  0.00  0.00    -0.164 S 
ENDBRANCH  10  12
ENDBRANCH   9  10
ENDBRANCH   1   9
TORSDOF 6
ENDMDL
MODEL 6
REMARK VINA RESULT:      -3.5      5.550      6.483
REMARK  Name = 
REMARK  7 active torsions:
REMARK  status: ('A' for Active; 'I' for Inactive)
REMARK    1  A    between atoms: CE_1  and  SD_2
REMARK    2  A    between atoms: SD_2  and  CG_3
REMARK    3  A    between atoms: CG_3  and  CB_4
REMARK    4  A    between atoms: CB_4  and  CA_5
REMARK    5  A    between atoms: CA_5  and  N_7
REMARK    6  A    between atoms: CA_5  and  C_8
REMARK    7  A    between atoms: C_8  and  O_9
REMARK                            x       y       z     vdW  Elec       q    Type
REMARK                         _______ _______ _______ _____ _____    ______ ____
ROOT
ATOM      1  CA  MET A   1       9.594   1.437  23.853  0.00  0.00    +0.161 C 
ENDROOT
BRANCH   1   2
ATOM      2  N   MET A   1       8.989   2.135  25.023  0.00  0.00    -0.318 NA
ATOM      3  H1  MET A   1       8.554   3.000  24.680  0.00  0.00    +0.119 HD
ATOM      4  H2  MET A   1       8.197   1.583  25.360  0.00  0.00    +0.119 HD
ENDBRANCH   1   2
BRANCH   1   5
ATOM      5  C   MET A   1      10.364   2.480  23.025  0.00  0.00    +0.322 C 
ATOM      6  OXT MET A   1      10.999   3.414  23.487  0.00  0.00    -0.249 OA
BRANCH   5   7
ATOM      7  O   MET A   1      10.231   2.245  21.692  0.00  0.00    -0.480 OA
ATOM      8  H   MET A   1       9.780   3.039  21.312  0.00  0.00    +0.295 HD
ENDBRANCH   5   7
ENDBRANCH   1   5
BRANCH   1   9
ATOM      9  CB  MET A   1      10.575   0.336  24.279  0.00  0.00    +0.040 C 
BRANCH   9  10
ATOM     10  CG  MET A   1      10.027  -1.073  24.070  0.00  0.00    +0.071 C 
BRANCH  10  12
ATOM     11  CE  MET A   1       8.232  -2.267  22.352  0.00  0.00    +0.084 C 
ATOM     12  SD  MET A   1       9.813  -1.394  22.288  0.00  0.00    -0.164 S 
ENDBRANCH  10  12
ENDBRANCH   9  10
ENDBRANCH   1   9
TORSDOF 6
ENDMDL
MODEL 7
REMARK VINA RESULT:      -3.4      5.006      6.174
REMARK  Name = 
REMARK  7 active torsions:
REMARK  status: ('A' for Active; 'I' for Inactive)
REMARK    1  A    between atoms: CE_1  and  SD_2
REMARK    2  A    between atoms: SD_2  and  CG_3
REMARK    3  A    between atoms: CG_3  and  CB_4
REMARK    4  A    between atoms: CB_4  and  CA_5
REMARK    5  A    between atoms: CA_5  and  N_7
REMARK    6  A    between atoms: CA_5  and  C_8
REMARK    7  A    between atoms: C_8  and  O_9
REMARK                            x       y       z     vdW  Elec       q    Type
REMARK                         _______ _______ _______ _____ _____    ______ ____
ROOT
ATOM      1  CA  MET A   1      10.146   1.083  22.503  0.00  0.00    +0.161 C 
ENDROOT
BRANCH   1   2
ATOM      2  N   MET A   1      10.010   2.308  21.664  0.00  0.00    -0.318 NA
ATOM      3  H1  MET A   1      10.050   3.121  22.290  0.00  0.00    +0.119 HD
ATOM      4  H2  MET A   1      10.850   2.405  21.088  0.00  0.00    +0.119 HD
ENDBRANCH   1   2
BRANCH   1   5
ATOM      5  C   MET A   1       9.264   1.263  23.750  0.00  0.00    +0.322 C 
ATOM      6  OXT MET A   1       8.047   1.356  23.742  0.00  0.00    -0.249 OA
BRANCH   5   7
ATOM      7  O   MET A   1      10.017   1.331  24.880  0.00  0.00    -0.480 OA
ATOM      8  H   MET A   1      10.725   1.998  24.705  0.00  0.00    +0.295 HD
ENDBRANCH   5   7
ENDBRANCH   1   5
BRANCH   1   9
ATOM      9  CB  MET A   1       9.687  -0.180  21.763  0.00  0.00    +0.040 C 
BRANCH   9  10
ATOM     10  CG  MET A   1      10.123  -1.472  22.449  0.00  0.00    +0.071 C 
BRANCH  10  12
ATOM     11  CE  MET A   1       9.397  -3.314  24.366  0.00  0.00    +0.084 C 
ATOM     12  SD  MET A   1       8.655  -2.409  22.989  0.00  0.00    -0.164 S 
ENDBRANCH  10  12
ENDBRANCH   9  10
ENDBRANCH   1   9
TORSDOF 6
ENDMDL
MODEL 8
REMARK VINA RESULT:      -3.4      4.838      5.839
REMARK  Name = 
REMARK  7 active torsions:
REMARK  status: ('A' for Active; 'I' for Inactive)
REMARK    1  A    between atoms: CE_1  and  SD_2
REMARK    2  A    between atoms: SD_2  and  CG_3
REMARK    3  A    between atoms: CG_3  and  CB_4
REMARK    4  A    between atoms: CB_4  and  CA_5
REMARK    5  A    between atoms: CA_5  and  N_7
REMARK    6  A    between atoms: CA_5  and  C_8
REMARK    7  A    between atoms: C_8  and  O_9
REMARK                            x       y       z     vdW  Elec       q    Type
REMARK                         _______ _______ _______ _____ _____    ______ ____
ROOT
ATOM      1  CA  MET A   1       9.352   1.215  23.484  0.00  0.00    +0.161 C 
ENDROOT
BRANCH   1   2
ATOM      2  N   MET A   1      10.621   1.351  24.255  0.00  0.00    -0.318 NA
ATOM      3  H1  MET A   1      10.609   0.648  25.004  0.00  0.00    +0.119 HD
ATOM      4  H2  MET A   1      11.400   1.056  23.660  0.00  0.00    +0.119 HD
ENDBRANCH   1   2
BRANCH   1   5
ATOM      5  C   MET A   1       9.709   1.167  21.989  0.00  0.00    +0.322 C 
ATOM      6  OXT MET A   1       9.533   0.209  21.255  0.00  0.00    -0.249 OA
BRANCH   5   7
ATOM      7  O   MET A   1      10.275   2.334  21.581  0.00  0.00    -0.480 OA
ATOM      8  H   MET A   1      10.771   2.130  20.751  0.00  0.00    +0.295 HD
ENDBRANCH   5   7
ENDBRANCH   1   5
BRANCH   1   9
ATOM      9  CB  MET A   1       8.594  -0.070  23.842  0.00  0.00    +0.040 C 
BRANCH   9  10
ATOM     10  CG  MET A   1       9.388  -1.005  24.751  0.00  0.00    +0.071 C 
BRANCH  10  12
ATOM     11  CE  MET A   1       8.223  -2.650  22.871  0.00  0.00    +0.084 C 
ATOM     12  SD  MET A   1       9.718  -2.575  23.884  0.00  0.00    -0.164 S 
ENDBRANCH  10  12
ENDBRANCH   9  10
ENDBRANCH   1   9
TORSDOF 6
ENDMDL
MODEL 9
REMARK VINA RESULT:      -3.4      4.652      5.442
REMARK  Name = 
REMARK  7 active torsions:
REMARK  status: ('A' for Active; 'I' for Inactive)
REMARK    1  A    between atoms: CE_1  and  SD_2
REMARK    2  A    between atoms: SD_2  and  CG_3
REMARK    3  A    between atoms: CG_3  and  CB_4
REMARK    4  A    between atoms: CB_4  and  CA_5
REMARK    5  A    between atoms: CA_5  and  N_7
REMARK    6  A    between atoms: CA_5  and  C_8
REMARK    7  A    between atoms: C_8  and  O_9
REMARK                            x       y       z     vdW  Elec       q    Type
REMARK                         _______ _______ _______ _____ _____    ______ ____
ROOT
ATOM      1  CA  MET A   1       8.638  -0.208  22.615  0.00  0.00    +0.161 C 
ENDROOT
BRANCH   1   2
ATOM      2  N   MET A   1       7.165  -0.156  22.845  0.00  0.00    -0.318 NA
ATOM      3  H1  MET A   1       6.970   0.661  23.435  0.00  0.00    +0.119 HD
ATOM      4  H2  MET A   1       6.704   0.069  21.960  0.00  0.00    +0.119 HD
ENDBRANCH   1   2
BRANCH   1   5
ATOM      5  C   MET A   1       8.984  -1.609  22.084  0.00  0.00    +0.322 C 
ATOM      6  OXT MET A   1       8.281  -2.599  22.201  0.00  0.00    -0.249 OA
BRANCH   5   7
ATOM      7  O   MET A   1      10.201  -1.618  21.477  0.00  0.00    -0.480 OA
ATOM      8  H   MET A   1      10.132  -1.006  20.703  0.00  0.00    +0.295 HD
ENDBRANCH   5   7
ENDBRANCH   1   5
BRANCH   1   9
ATOM      9  CB  MET A   1       9.100   0.829  21.583  0.00  0.00    +0.040 C 
BRANCH   9  10
ATOM     10  CG  MET A   1      10.072   1.857  22.157  0.00  0.00    +0.071 C 
BRANCH  10  12
ATOM     11  CE  MET A   1       9.055   2.950  24.473  0.00  0.00    +0.084 C 
ATOM     12  SD  MET A   1      10.198   1.646  23.963  0.00  0.00    -0.164 S 
ENDBRANCH  10  12
ENDBRANCH   9  10
ENDBRANCH   1   9
TORSDOF 6
ENDMDL
