MODEL 1
REMARK VINA RESULT:      -5.5      0.000      0.000
REMARK  Name = 
REMARK  12 active torsions:
REMARK  status: ('A' for Active; 'I' for Inactive)
REMARK    1  A    between atoms: C_1  and  C_2
REMARK    2  A    between atoms: C_2  and  N_3
REMARK    3  A    between atoms: N_3  and  C_4
REMARK    4  A    between atoms: N_3  and  C_7
REMARK    5  A    between atoms: C_4  and  C_5
REMARK    6  A    between atoms: C_5  and  O_6
REMARK    7  A    between atoms: C_7  and  C_8
REMARK    8  A    between atoms: C_8  and  C_9
REMARK    9  A    between atoms: C_9  and  C_10
REMARK   10  A    between atoms: C_10  and  C_11
REMARK   11  A    between atoms: C_10  and  N_12
REMARK   12  A    between atoms: N_12  and  C_13
REMARK                            x       y       z     vdW  Elec       q    Type
REMARK                         _______ _______ _______ _____ _____    ______ ____
ROOT
ATOM      1  N   UNL     1       9.160  -1.521  25.473  0.00  0.00    -0.341 N 
ATOM      2  H   UNL     1       9.252  -0.847  26.229  0.00  0.00    +0.146 HD
ENDROOT
BRANCH   1   3
ATOM      3  C   UNL     1       9.281  -0.916  24.201  0.00  0.00    +0.038 A 
ATOM      4  C   UNL     1       9.791  -1.644  23.118  0.00  0.00    +0.043 A 
ATOM      5  C   UNL     1       9.891  -1.048  21.882  0.00  0.00    +0.113 A 
ATOM      6  N   UNL     1       9.562   0.231  21.636  0.00  0.00    -0.255 NA
ATOM      7  C   UNL     1       9.156   0.975  22.675  0.00  0.00    +0.074 A 
ATOM      8  C   UNL     1       8.879   2.303  22.402  0.00  0.00    +0.048 A 
ATOM      9  C   UNL     1       8.480   3.177  23.407  0.00  0.00    +0.043 A 
ATOM     10 CL   UNL     1       8.156   4.824  23.030  0.00  0.00    -0.083 Cl
ATOM     11  C   UNL     1       8.352   2.727  24.712  0.00  0.00    +0.021 A 
ATOM     12  C   UNL     1       8.615   1.386  25.005  0.00  0.00    +0.013 A 
ATOM     13  C   UNL     1       9.013   0.470  23.993  0.00  0.00    +0.021 A 
ENDBRANCH   1   3
BRANCH   1  14
ATOM     14  C   UNL     1       8.034  -2.437  25.721  0.00  0.00    +0.067 C 
ATOM     15  C   UNL     1       7.076  -1.810  26.738  0.00  0.00    +0.028 C 
BRANCH  14  16
ATOM     16  C   UNL     1       8.587  -3.791  26.197  0.00  0.00    +0.023 C 
BRANCH  16  17
ATOM     17  C   UNL     1       8.367  -4.889  25.146  0.00  0.00    +0.017 C 
BRANCH  17  18
ATOM     18  C   UNL     1       7.190  -4.605  24.202  0.00  0.00    +0.084 C 
BRANCH  18  19
ATOM     19  N   UNL     1       7.529  -4.593  22.761  0.00  0.00    -0.300 NA
BRANCH  19  21
ATOM     20  C   UNL     1       6.211  -5.846  20.981  0.00  0.00    +0.020 C 
ATOM     21  C   UNL     1       7.196  -5.900  22.146  0.00  0.00    +0.081 C 
ENDBRANCH  19  21
BRANCH  19  22
ATOM     22  C   UNL     1       6.820  -3.485  22.065  0.00  0.00    +0.112 C 
BRANCH  22  23
ATOM     23  C   UNL     1       5.839  -2.681  22.939  0.00  0.00    +0.171 C 
BRANCH  23  24
ATOM     24  O   UNL     1       6.136  -1.289  22.897  0.00  0.00    -0.394 OA
ATOM     25  H   UNL     1       6.958  -1.211  22.377  0.00  0.00    +0.209 HD
ENDBRANCH  23  24
ENDBRANCH  22  23
ENDBRANCH  19  22
ENDBRANCH  18  19
ENDBRANCH  17  18
ENDBRANCH  16  17
ENDBRANCH  14  16
ENDBRANCH   1  14
TORSDOF 10
ENDMDL
MODEL 2
REMARK VINA RESULT:      -5.5      3.477      7.064
REMARK  Name = 
REMARK  12 active torsions:
REMARK  status: ('A' for Active; 'I' for Inactive)
REMARK    1  A    between atoms: C_1  and  C_2
REMARK    2  A    between atoms: C_2  and  N_3
REMARK    3  A    between atoms: N_3  and  C_4
REMARK    4  A    between atoms: N_3  and  C_7
REMARK    5  A    between atoms: C_4  and  C_5
REMARK    6  A    between atoms: C_5  and  O_6
REMARK    7  A    between atoms: C_7  and  C_8
REMARK    8  A    between atoms: C_8  and  C_9
REMARK    9  A    between atoms: C_9  and  C_10
REMARK   10  A    between atoms: C_10  and  C_11
REMARK   11  A    between atoms: C_10  and  N_12
REMARK   12  A    between atoms: N_12  and  C_13
REMARK                            x       y       z     vdW  Elec       q    Type
REMARK                         _______ _______ _______ _____ _____    ______ ____
ROOT
ATOM      1  N   UNL     1       8.690  -3.626  23.771  0.00  0.00    -0.341 N 
ATOM      2  H   UNL     1       8.104  -3.450  22.958  0.00  0.00    +0.146 HD
ENDROOT
BRANCH   1   3
ATOM      3  C   UNL     1       8.019  -4.381  24.759  0.00  0.00    +0.038 A 
ATOM      4  C   UNL     1       8.620  -4.607  26.004  0.00  0.00    +0.043 A 
ATOM      5  C   UNL     1       7.950  -5.332  26.963  0.00  0.00    +0.113 A 
ATOM      6  N   UNL     1       6.743  -5.888  26.777  0.00  0.00    -0.255 NA
ATOM      7  C   UNL     1       6.185  -5.762  25.564  0.00  0.00    +0.074 A 
ATOM      8  C   UNL     1       4.967  -6.394  25.385  0.00  0.00    +0.048 A 
ATOM      9  C   UNL     1       4.310  -6.357  24.160  0.00  0.00    +0.043 A 
ATOM     10 CL   UNL     1       2.803  -7.166  23.973  0.00  0.00    -0.083 Cl
ATOM     11  C   UNL     1       4.870  -5.680  23.088  0.00  0.00    +0.021 A 
ATOM     12  C   UNL     1       6.094  -5.025  23.253  0.00  0.00    +0.013 A 
ATOM     13  C   UNL     1       6.779  -5.038  24.498  0.00  0.00    +0.021 A 
ENDBRANCH   1   3
BRANCH   1  14
ATOM     14  C   UNL     1       9.408  -2.405  24.173  0.00  0.00    +0.067 C 
ATOM     15  C   UNL     1       8.413  -1.385  24.736  0.00  0.00    +0.028 C 
BRANCH  14  16
ATOM     16  C   UNL     1      10.183  -1.858  22.962  0.00  0.00    +0.023 C 
BRANCH  16  17
ATOM     17  C   UNL     1       9.232  -1.383  21.854  0.00  0.00    +0.017 C 
BRANCH  17  18
ATOM     18  C   UNL     1       9.455   0.078  21.441  0.00  0.00    +0.084 C 
BRANCH  18  19
ATOM     19  N   UNL     1       8.889   1.087  22.364  0.00  0.00    -0.300 NA
BRANCH  19  21
ATOM     20  C   UNL     1      10.612   1.611  24.161  0.00  0.00    +0.020 C 
ATOM     21  C   UNL     1       9.955   2.001  22.840  0.00  0.00    +0.081 C 
ENDBRANCH  19  21
BRANCH  19  22
ATOM     22  C   UNL     1       7.796   1.849  21.701  0.00  0.00    +0.112 C 
BRANCH  22  23
ATOM     23  C   UNL     1       7.605   3.293  22.204  0.00  0.00    +0.171 C 
BRANCH  23  24
ATOM     24  O   UNL     1       6.374   3.839  21.739  0.00  0.00    -0.394 OA
ATOM     25  H   UNL     1       6.007   3.175  21.125  0.00  0.00    +0.209 HD
ENDBRANCH  23  24
ENDBRANCH  22  23
ENDBRANCH  19  22
ENDBRANCH  18  19
ENDBRANCH  17  18
ENDBRANCH  16  17
ENDBRANCH  14  16
ENDBRANCH   1  14
TORSDOF 10
ENDMDL
MODEL 3
REMARK VINA RESULT:      -5.5      2.756      5.663
REMARK  Name = 
REMARK  12 active torsions:
REMARK  status: ('A' for Active; 'I' for Inactive)
REMARK    1  A    between atoms: C_1  and  C_2
REMARK    2  A    between atoms: C_2  and  N_3
REMARK    3  A    between atoms: N_3  and  C_4
REMARK    4  A    between atoms: N_3  and  C_7
REMARK    5  A    between atoms: C_4  and  C_5
REMARK    6  A    between atoms: C_5  and  O_6
REMARK    7  A    between atoms: C_7  and  C_8
REMARK    8  A    between atoms: C_8  and  C_9
REMARK    9  A    between atoms: C_9  and  C_10
REMARK   10  A    between atoms: C_10  and  C_11
REMARK   11  A    between atoms: C_10  and  N_12
REMARK   12  A    between atoms: N_12  and  C_13
REMARK                            x       y       z     vdW  Elec       q    Type
REMARK                         _______ _______ _______ _____ _____    ______ ____
ROOT
ATOM      1  N   UNL     1       6.975  -2.212  26.382  0.00  0.00    -0.341 N 
ATOM      2  H   UNL     1       6.519  -2.498  27.246  0.00  0.00    +0.146 HD
ENDROOT
BRANCH   1   3
ATOM      3  C   UNL     1       7.640  -3.287  25.750  0.00  0.00    +0.038 A 
ATOM      4  C   UNL     1       8.819  -3.808  26.299  0.00  0.00    +0.043 A 
ATOM      5  C   UNL     1       9.450  -4.864  25.682  0.00  0.00    +0.113 A 
ATOM      6  N   UNL     1       9.029  -5.425  24.537  0.00  0.00    -0.255 NA
ATOM      7  C   UNL     1       7.954  -4.887  23.945  0.00  0.00    +0.074 A 
ATOM      8  C   UNL     1       7.578  -5.450  22.738  0.00  0.00    +0.048 A 
ATOM      9  C   UNL     1       6.497  -4.954  22.017  0.00  0.00    +0.043 A 
ATOM     10 CL   UNL     1       6.068  -5.673  20.514  0.00  0.00    -0.083 Cl
ATOM     11  C   UNL     1       5.771  -3.877  22.502  0.00  0.00    +0.021 A 
ATOM     12  C   UNL     1       6.128  -3.303  23.725  0.00  0.00    +0.013 A 
ATOM     13  C   UNL     1       7.221  -3.799  24.486  0.00  0.00    +0.021 A 
ENDBRANCH   1   3
BRANCH   1  14
ATOM     14  C   UNL     1       7.693  -0.939  26.565  0.00  0.00    +0.067 C 
ATOM     15  C   UNL     1       6.888  -0.023  27.492  0.00  0.00    +0.028 C 
BRANCH  14  16
ATOM     16  C   UNL     1       7.941  -0.304  25.186  0.00  0.00    +0.023 C 
BRANCH  16  17
ATOM     17  C   UNL     1       9.407   0.122  25.020  0.00  0.00    +0.017 C 
BRANCH  17  18
ATOM     18  C   UNL     1      10.119  -0.576  23.853  0.00  0.00    +0.084 C 
BRANCH  18  19
ATOM     19  N   UNL     1      10.202   0.213  22.603  0.00  0.00    -0.300 NA
BRANCH  19  21
ATOM     20  C   UNL     1       8.934  -1.865  21.862  0.00  0.00    +0.020 C 
ATOM     21  C   UNL     1       9.510  -0.498  21.501  0.00  0.00    +0.081 C 
ENDBRANCH  19  21
BRANCH  19  22
ATOM     22  C   UNL     1       9.625   1.570  22.801  0.00  0.00    +0.112 C 
BRANCH  22  23
ATOM     23  C   UNL     1       8.456   1.929  21.863  0.00  0.00    +0.171 C 
BRANCH  23  24
ATOM     24  O   UNL     1       7.230   2.018  22.583  0.00  0.00    -0.394 OA
ATOM     25  H   UNL     1       7.445   2.482  23.414  0.00  0.00    +0.209 HD
ENDBRANCH  23  24
ENDBRANCH  22  23
ENDBRANCH  19  22
ENDBRANCH  18  19
ENDBRANCH  17  18
ENDBRANCH  16  17
ENDBRANCH  14  16
ENDBRANCH   1  14
TORSDOF 10
ENDMDL
MODEL 4
REMARK VINA RESULT:      -5.4      3.824      7.356
REMARK  Name = 
REMARK  12 active torsions:
REMARK  status: ('A' for Active; 'I' for Inactive)
REMARK    1  A    between atoms: C_1  and  C_2
REMARK    2  A    between atoms: C_2  and  N_3
REMARK    3  A    between atoms: N_3  and  C_4
REMARK    4  A    between atoms: N_3  and  C_7
REMARK    5  A    between atoms: C_4  and  C_5
REMARK    6  A    between atoms: C_5  and  O_6
REMARK    7  A    between atoms: C_7  and  C_8
REMARK    8  A    between atoms: C_8  and  C_9
REMARK    9  A    between atoms: C_9  and  C_10
REMARK   10  A    between atoms: C_10  and  C_11
REMARK   11  A    between atoms: C_10  and  N_12
REMARK   12  A    between atoms: N_12  and  C_13
REMARK                            x       y       z     vdW  Elec       q    Type
REMARK                         _______ _______ _______ _____ _____    ______ ____
ROOT
ATOM      1  N   UNL     1       8.054  -3.700  23.149  0.00  0.00    -0.341 N 
ATOM      2  H   UNL     1       7.500  -4.065  22.377  0.00  0.00    +0.146 HD
ENDROOT
BRANCH   1   3
ATOM      3  C   UNL     1       7.737  -4.329  24.375  0.00  0.00    +0.038 A 
ATOM      4  C   UNL     1       8.626  -4.257  25.455  0.00  0.00    +0.043 A 
ATOM      5  C   UNL     1       8.300  -4.861  26.648  0.00  0.00    +0.113 A 
ATOM      6  N   UNL     1       7.177  -5.570  26.848  0.00  0.00    -0.255 NA
ATOM      7  C   UNL     1       6.352  -5.729  25.803  0.00  0.00    +0.074 A 
ATOM      8  C   UNL     1       5.233  -6.511  26.024  0.00  0.00    +0.048 A 
ATOM      9  C   UNL     1       4.323  -6.771  25.005  0.00  0.00    +0.043 A 
ATOM     10 CL   UNL     1       2.949  -7.759  25.317  0.00  0.00    -0.083 Cl
ATOM     11  C   UNL     1       4.525  -6.246  23.739  0.00  0.00    +0.021 A 
ATOM     12  C   UNL     1       5.644  -5.443  23.499  0.00  0.00    +0.013 A 
ATOM     13  C   UNL     1       6.582  -5.153  24.527  0.00  0.00    +0.021 A 
ENDBRANCH   1   3
BRANCH   1  14
ATOM     14  C   UNL     1       8.119  -2.230  23.099  0.00  0.00    +0.067 C 
ATOM     15  C   UNL     1       6.701  -1.651  23.116  0.00  0.00    +0.028 C 
BRANCH  14  16
ATOM     16  C   UNL     1       8.909  -1.807  21.849  0.00  0.00    +0.023 C 
BRANCH  16  17
ATOM     17  C   UNL     1      10.080  -0.881  22.210  0.00  0.00    +0.017 C 
BRANCH  17  18
ATOM     18  C   UNL     1       9.703   0.607  22.219  0.00  0.00    +0.084 C 
BRANCH  18  19
ATOM     19  N   UNL     1       9.347   1.158  23.546  0.00  0.00    -0.300 NA
BRANCH  19  21
ATOM     20  C   UNL     1       9.447  -0.165  25.719  0.00  0.00    +0.020 C 
ATOM     21  C   UNL     1      10.198   0.550  24.598  0.00  0.00    +0.081 C 
ENDBRANCH  19  21
BRANCH  19  22
ATOM     22  C   UNL     1       9.477   2.639  23.552  0.00  0.00    +0.112 C 
BRANCH  22  23
ATOM     23  C   UNL     1      10.915   3.173  23.404  0.00  0.00    +0.171 C 
BRANCH  23  24
ATOM     24  O   UNL     1      10.919   4.579  23.174  0.00  0.00    -0.394 OA
ATOM     25  H   UNL     1      10.691   4.692  22.232  0.00  0.00    +0.209 HD
ENDBRANCH  23  24
ENDBRANCH  22  23
ENDBRANCH  19  22
ENDBRANCH  18  19
ENDBRANCH  17  18
ENDBRANCH  16  17
ENDBRANCH  14  16
ENDBRANCH   1  14
TORSDOF 10
ENDMDL
MODEL 5
REMARK VINA RESULT:      -5.4      3.008      6.519
REMARK  Name = 
REMARK  12 active torsions:
REMARK  status: ('A' for Active; 'I' for Inactive)
REMARK    1  A    between atoms: C_1  and  C_2
REMARK    2  A    between atoms: C_2  and  N_3
REMARK    3  A    between atoms: N_3  and  C_4
REMARK    4  A    between atoms: N_3  and  C_7
REMARK    5  A    between atoms: C_4  and  C_5
REMARK    6  A    between atoms: C_5  and  O_6
REMARK    7  A    between atoms: C_7  and  C_8
REMARK    8  A    between atoms: C_8  and  C_9
REMARK    9  A    between atoms: C_9  and  C_10
REMARK   10  A    between atoms: C_10  and  C_11
REMARK   11  A    between atoms: C_10  and  N_12
REMARK   12  A    between atoms: N_12  and  C_13
REMARK                            x       y       z     vdW  Elec       q    Type
REMARK                         _______ _______ _______ _____ _____    ______ ____
ROOT
ATOM      1  N   UNL     1       8.276  -1.457  23.608  0.00  0.00    -0.341 N 
ATOM      2  H   UNL     1       7.757  -0.878  24.265  0.00  0.00    +0.146 HD
ENDROOT
BRANCH   1   3
ATOM      3  C   UNL     1       7.712  -2.746  23.473  0.00  0.00    +0.038 A 
ATOM      4  C   UNL     1       7.476  -3.283  22.201  0.00  0.00    +0.043 A 
ATOM      5  C   UNL     1       6.938  -4.544  22.082  0.00  0.00    +0.113 A 
ATOM      6  N   UNL     1       6.576  -5.307  23.126  0.00  0.00    -0.255 NA
ATOM      7  C   UNL     1       6.709  -4.780  24.352  0.00  0.00    +0.074 A 
ATOM      8  C   UNL     1       6.273  -5.567  25.403  0.00  0.00    +0.048 A 
ATOM      9  C   UNL     1       6.333  -5.113  26.716  0.00  0.00    +0.043 A 
ATOM     10 CL   UNL     1       5.771  -6.116  27.995  0.00  0.00    -0.083 Cl
ATOM     11  C   UNL     1       6.833  -3.851  26.995  0.00  0.00    +0.021 A 
ATOM     12  C   UNL     1       7.289  -3.046  25.947  0.00  0.00    +0.013 A 
ATOM     13  C   UNL     1       7.250  -3.492  24.598  0.00  0.00    +0.021 A 
ENDBRANCH   1   3
BRANCH   1  14
ATOM     14  C   UNL     1       9.726  -1.335  23.834  0.00  0.00    +0.067 C 
ATOM     15  C   UNL     1       9.988  -0.335  24.965  0.00  0.00    +0.028 C 
BRANCH  14  16
ATOM     16  C   UNL     1      10.404  -0.920  22.518  0.00  0.00    +0.023 C 
BRANCH  16  17
ATOM     17  C   UNL     1       9.484  -0.032  21.667  0.00  0.00    +0.017 C 
BRANCH  17  18
ATOM     18  C   UNL     1       9.732   1.470  21.861  0.00  0.00    +0.084 C 
BRANCH  18  19
ATOM     19  N   UNL     1       8.796   2.147  22.787  0.00  0.00    -0.300 NA
BRANCH  19  21
ATOM     20  C   UNL     1      11.016   3.254  23.358  0.00  0.00    +0.020 C 
ATOM     21  C   UNL     1       9.500   3.220  23.531  0.00  0.00    +0.081 C 
ENDBRANCH  19  21
BRANCH  19  22
ATOM     22  C   UNL     1       7.629   2.696  22.046  0.00  0.00    +0.112 C 
BRANCH  22  23
ATOM     23  C   UNL     1       6.252   2.212  22.538  0.00  0.00    +0.171 C 
BRANCH  23  24
ATOM     24  O   UNL     1       6.284   0.829  22.873  0.00  0.00    -0.394 OA
ATOM     25  H   UNL     1       6.007   0.778  23.808  0.00  0.00    +0.209 HD
ENDBRANCH  23  24
ENDBRANCH  22  23
ENDBRANCH  19  22
ENDBRANCH  18  19
ENDBRANCH  17  18
ENDBRANCH  16  17
ENDBRANCH  14  16
ENDBRANCH   1  14
TORSDOF 10
ENDMDL
MODEL 6
REMARK VINA RESULT:      -5.4      2.244      3.303
REMARK  Name = 
REMARK  12 active torsions:
REMARK  status: ('A' for Active; 'I' for Inactive)
REMARK    1  A    between atoms: C_1  and  C_2
REMARK    2  A    between atoms: C_2  and  N_3
REMARK    3  A    between atoms: N_3  and  C_4
REMARK    4  A    between atoms: N_3  and  C_7
REMARK    5  A    between atoms: C_4  and  C_5
REMARK    6  A    between atoms: C_5  and  O_6
REMARK    7  A    between atoms: C_7  and  C_8
REMARK    8  A    between atoms: C_8  and  C_9
REMARK    9  A    between atoms: C_9  and  C_10
REMARK   10  A    between atoms: C_10  and  C_11
REMARK   11  A    between atoms: C_10  and  N_12
REMARK   12  A    between atoms: N_12  and  C_13
REMARK                            x       y       z     vdW  Elec       q    Type
REMARK                         _______ _______ _______ _____ _____    ______ ____
ROOT
ATOM      1  N   UNL     1       6.459  -1.679  22.755  0.00  0.00    -0.341 N 
ATOM      2  H   UNL     1       6.160  -1.913  21.811  0.00  0.00    +0.146 HD
ENDROOT
BRANCH   1   3
ATOM      3  C   UNL     1       7.787  -1.196  22.789  0.00  0.00    +0.038 A 
ATOM      4  C   UNL     1       8.861  -2.068  22.570  0.00  0.00    +0.043 A 
ATOM      5  C   UNL     1      10.148  -1.583  22.592  0.00  0.00    +0.113 A 
ATOM      6  N   UNL     1      10.465  -0.305  22.853  0.00  0.00    -0.255 NA
ATOM      7  C   UNL     1       9.461   0.531  23.154  0.00  0.00    +0.074 A 
ATOM      8  C   UNL     1       9.822   1.827  23.475  0.00  0.00    +0.048 A 
ATOM      9  C   UNL     1       8.869   2.773  23.834  0.00  0.00    +0.043 A 
ATOM     10 CL   UNL     1       9.359   4.372  24.238  0.00  0.00    -0.083 Cl
ATOM     11  C   UNL     1       7.527   2.429  23.877  0.00  0.00    +0.021 A 
ATOM     12  C   UNL     1       7.141   1.128  23.544  0.00  0.00    +0.013 A 
ATOM     13  C   UNL     1       8.095   0.146  23.163  0.00  0.00    +0.021 A 
ENDBRANCH   1   3
BRANCH   1  14
ATOM     14  C   UNL     1       6.059  -2.729  23.707  0.00  0.00    +0.067 C 
ATOM     15  C   UNL     1       4.963  -3.599  23.083  0.00  0.00    +0.028 C 
BRANCH  14  16
ATOM     16  C   UNL     1       5.605  -2.068  25.019  0.00  0.00    +0.023 C 
BRANCH  16  17
ATOM     17  C   UNL     1       6.677  -2.191  26.111  0.00  0.00    +0.017 C 
BRANCH  17  18
ATOM     18  C   UNL     1       6.461  -3.386  27.049  0.00  0.00    +0.084 C 
BRANCH  18  19
ATOM     19  N   UNL     1       7.544  -4.394  27.043  0.00  0.00    -0.300 NA
BRANCH  19  21
ATOM     20  C   UNL     1       5.546  -5.747  26.233  0.00  0.00    +0.020 C 
ATOM     21  C   UNL     1       7.053  -5.670  26.469  0.00  0.00    +0.081 C 
ENDBRANCH  19  21
BRANCH  19  22
ATOM     22  C   UNL     1       8.723  -3.893  26.286  0.00  0.00    +0.112 C 
BRANCH  22  23
ATOM     23  C   UNL     1       9.201  -4.803  25.138  0.00  0.00    +0.171 C 
BRANCH  23  24
ATOM     24  O   UNL     1      10.431  -5.440  25.467  0.00  0.00    -0.394 OA
ATOM     25  H   UNL     1      10.441  -5.508  26.440  0.00  0.00    +0.209 HD
ENDBRANCH  23  24
ENDBRANCH  22  23
ENDBRANCH  19  22
ENDBRANCH  18  19
ENDBRANCH  17  18
ENDBRANCH  16  17
ENDBRANCH  14  16
ENDBRANCH   1  14
TORSDOF 10
ENDMDL
MODEL 7
REMARK VINA RESULT:      -5.4      3.252      6.194
REMARK  Name = 
REMARK  12 active torsions:
REMARK  status: ('A' for Active; 'I' for Inactive)
REMARK    1  A    between atoms: C_1  and  C_2
REMARK    2  A    between atoms: C_2  and  N_3
REMARK    3  A    between atoms: N_3  and  C_4
REMARK    4  A    between atoms: N_3  and  C_7
REMARK    5  A    between atoms: C_4  and  C_5
REMARK    6  A    between atoms: C_5  and  O_6
REMARK    7  A    between atoms: C_7  and  C_8
REMARK    8  A    between atoms: C_8  and  C_9
REMARK    9  A    between atoms: C_9  and  C_10
REMARK   10  A    between atoms: C_10  and  C_11
REMARK   11  A    between atoms: C_10  and  N_12
REMARK   12  A    between atoms: N_12  and  C_13
REMARK                            x       y       z     vdW  Elec       q    Type
REMARK                         _______ _______ _______ _____ _____    ______ ____
ROOT
ATOM      1  N   UNL     1       6.228   0.126  23.935  0.00  0.00    -0.341 N 
ATOM      2  H   UNL     1       5.242  -0.083  23.795  0.00  0.00    +0.146 HD
ENDROOT
BRANCH   1   3
ATOM      3  C   UNL     1       6.960  -1.009  24.350  0.00  0.00    +0.038 A 
ATOM      4  C   UNL     1       7.900  -0.904  25.383  0.00  0.00    +0.043 A 
ATOM      5  C   UNL     1       8.597  -2.019  25.787  0.00  0.00    +0.113 A 
ATOM      6  N   UNL     1       8.466  -3.231  25.224  0.00  0.00    -0.255 NA
ATOM      7  C   UNL     1       7.638  -3.339  24.176  0.00  0.00    +0.074 A 
ATOM      8  C   UNL     1       7.568  -4.586  23.580  0.00  0.00    +0.048 A 
ATOM      9  C   UNL     1       6.766  -4.809  22.466  0.00  0.00    +0.043 A 
ATOM     10 CL   UNL     1       6.715  -6.370  21.747  0.00  0.00    -0.083 Cl
ATOM     11  C   UNL     1       6.017  -3.774  21.929  0.00  0.00    +0.021 A 
ATOM     12  C   UNL     1       6.065  -2.510  22.523  0.00  0.00    +0.013 A 
ATOM     13  C   UNL     1       6.868  -2.260  23.670  0.00  0.00    +0.021 A 
ENDBRANCH   1   3
BRANCH   1  14
ATOM     14  C   UNL     1       6.397   1.390  24.671  0.00  0.00    +0.067 C 
ATOM     15  C   UNL     1       5.119   1.704  25.455  0.00  0.00    +0.028 C 
BRANCH  14  16
ATOM     16  C   UNL     1       6.760   2.505  23.674  0.00  0.00    +0.023 C 
BRANCH  16  17
ATOM     17  C   UNL     1       6.638   2.021  22.222  0.00  0.00    +0.017 C 
BRANCH  17  18
ATOM     18  C   UNL     1       7.986   1.912  21.498  0.00  0.00    +0.084 C 
BRANCH  18  19
ATOM     19  N   UNL     1       9.018   1.122  22.205  0.00  0.00    -0.300 NA
BRANCH  19  21
ATOM     20  C   UNL     1      10.098  -1.182  22.268  0.00  0.00    +0.020 C 
ATOM     21  C   UNL     1       9.232  -0.174  21.517  0.00  0.00    +0.081 C 
ENDBRANCH  19  21
BRANCH  19  22
ATOM     22  C   UNL     1      10.291   1.886  22.300  0.00  0.00    +0.112 C 
BRANCH  22  23
ATOM     23  C   UNL     1      10.435   2.769  23.554  0.00  0.00    +0.171 C 
BRANCH  23  24
ATOM     24  O   UNL     1      10.176   4.136  23.251  0.00  0.00    -0.394 OA
ATOM     25  H   UNL     1      10.965   4.454  22.772  0.00  0.00    +0.209 HD
ENDBRANCH  23  24
ENDBRANCH  22  23
ENDBRANCH  19  22
ENDBRANCH  18  19
ENDBRANCH  17  18
ENDBRANCH  16  17
ENDBRANCH  14  16
ENDBRANCH   1  14
TORSDOF 10
ENDMDL
MODEL 8
REMARK VINA RESULT:      -5.4      3.527      7.130
REMARK  Name = 
REMARK  12 active torsions:
REMARK  status: ('A' for Active; 'I' for Inactive)
REMARK    1  A    between atoms: C_1  and  C_2
REMARK    2  A    between atoms: C_2  and  N_3
REMARK    3  A    between atoms: N_3  and  C_4
REMARK    4  A    between atoms: N_3  and  C_7
REMARK    5  A    between atoms: C_4  and  C_5
REMARK    6  A    between atoms: C_5  and  O_6
REMARK    7  A    between atoms: C_7  and  C_8
REMARK    8  A    between atoms: C_8  and  C_9
REMARK    9  A    between atoms: C_9  and  C_10
REMARK   10  A    between atoms: C_10  and  C_11
REMARK   11  A    between atoms: C_10  and  N_12
REMARK   12  A    between atoms: N_12  and  C_13
REMARK                            x       y       z     vdW  Elec       q    Type
REMARK                         _______ _______ _______ _____ _____    ______ ____
ROOT
ATOM      1  N   UNL     1       7.978  -3.441  23.036  0.00  0.00    -0.341 N 
ATOM      2  H   UNL     1       7.280  -3.675  22.333  0.00  0.00    +0.146 HD
ENDROOT
BRANCH   1   3
ATOM      3  C   UNL     1       7.767  -4.138  24.248  0.00  0.00    +0.038 A 
ATOM      4  C   UNL     1       8.746  -4.125  25.249  0.00  0.00    +0.043 A 
ATOM      5  C   UNL     1       8.523  -4.795  26.430  0.00  0.00    +0.113 A 
ATOM      6  N   UNL     1       7.420  -5.516  26.688  0.00  0.00    -0.255 NA
ATOM      7  C   UNL     1       6.507  -5.618  25.711  0.00  0.00    +0.074 A 
ATOM      8  C   UNL     1       5.408  -6.413  25.985  0.00  0.00    +0.048 A 
ATOM      9  C   UNL     1       4.413  -6.618  25.036  0.00  0.00    +0.043 A 
ATOM     10 CL   UNL     1       3.068  -7.624  25.410  0.00  0.00    -0.083 Cl
ATOM     11  C   UNL     1       4.506  -6.022  23.788  0.00  0.00    +0.021 A 
ATOM     12  C   UNL     1       5.602  -5.206  23.497  0.00  0.00    +0.013 A 
ATOM     13  C   UNL     1       6.627  -4.972  24.454  0.00  0.00    +0.021 A 
ENDBRANCH   1   3
BRANCH   1  14
ATOM     14  C   UNL     1       8.211  -1.988  23.082  0.00  0.00    +0.067 C 
ATOM     15  C   UNL     1       6.868  -1.254  23.141  0.00  0.00    +0.028 C 
BRANCH  14  16
ATOM     16  C   UNL     1       9.048  -1.577  21.859  0.00  0.00    +0.023 C 
BRANCH  16  17
ATOM     17  C   UNL     1      10.135  -0.562  22.237  0.00  0.00    +0.017 C 
BRANCH  17  18
ATOM     18  C   UNL     1       9.810   0.874  21.803  0.00  0.00    +0.084 C 
BRANCH  18  19
ATOM     19  N   UNL     1       9.672   1.849  22.908  0.00  0.00    -0.300 NA
BRANCH  19  21
ATOM     20  C   UNL     1       7.444   2.241  21.742  0.00  0.00    +0.020 C 
ATOM     21  C   UNL     1       8.261   2.287  23.031  0.00  0.00    +0.081 C 
ENDBRANCH  19  21
BRANCH  19  22
ATOM     22  C   UNL     1      10.158   1.265  24.187  0.00  0.00    +0.112 C 
BRANCH  22  23
ATOM     23  C   UNL     1       9.068   0.998  25.243  0.00  0.00    +0.171 C 
BRANCH  23  24
ATOM     24  O   UNL     1       9.400  -0.128  26.049  0.00  0.00    -0.394 OA
ATOM     25  H   UNL     1      10.228  -0.485  25.675  0.00  0.00    +0.209 HD
ENDBRANCH  23  24
ENDBRANCH  22  23
ENDBRANCH  19  22
ENDBRANCH  18  19
ENDBRANCH  17  18
ENDBRANCH  16  17
ENDBRANCH  14  16
ENDBRANCH   1  14
TORSDOF 10
ENDMDL
MODEL 9
REMARK VINA RESULT:      -5.3      2.046      3.712
REMARK  Name = 
REMARK  12 active torsions:
REMARK  status: ('A' for Active; 'I' for Inactive)
REMARK    1  A    between atoms: C_1  and  C_2
REMARK    2  A    between atoms: C_2  and  N_3
REMARK    3  A    between atoms: N_3  and  C_4
REMARK    4  A    between atoms: N_3  and  C_7
REMARK    5  A    between atoms: C_4  and  C_5
REMARK    6  A    between atoms: C_5  and  O_6
REMARK    7  A    between atoms: C_7  and  C_8
REMARK    8  A    between atoms: C_8  and  C_9
REMARK    9  A    between atoms: C_9  and  C_10
REMARK   10  A    between atoms: C_10  and  C_11
REMARK   11  A    between atoms: C_10  and  N_12
REMARK   12  A    between atoms: N_12  and  C_13
REMARK                            x       y       z     vdW  Elec       q    Type
REMARK                         _______ _______ _______ _____ _____    ______ ____
ROOT
ATOM      1  N   UNL     1       6.664  -2.097  23.167  0.00  0.00    -0.341 N 
ATOM      2  H   UNL     1       5.749  -1.682  23.009  0.00  0.00    +0.146 HD
ENDROOT
BRANCH   1   3
ATOM      3  C   UNL     1       7.711  -1.276  22.689  0.00  0.00    +0.038 A 
ATOM      4  C   UNL     1       8.955  -1.835  22.370  0.00  0.00    +0.043 A 
ATOM      5  C   UNL     1       9.963  -1.028  21.893  0.00  0.00    +0.113 A 
ATOM      6  N   UNL     1       9.851   0.302  21.741  0.00  0.00    -0.255 NA
ATOM      7  C   UNL     1       8.701   0.873  22.125  0.00  0.00    +0.074 A 
ATOM      8  C   UNL     1       8.637   2.251  22.011  0.00  0.00    +0.048 A 
ATOM      9  C   UNL     1       7.504   2.954  22.407  0.00  0.00    +0.043 A 
ATOM     10 CL   UNL     1       7.468   4.668  22.262  0.00  0.00    -0.083 Cl
ATOM     11  C   UNL     1       6.411   2.280  22.928  0.00  0.00    +0.021 A 
ATOM     12  C   UNL     1       6.452   0.887  23.039  0.00  0.00    +0.013 A 
ATOM     13  C   UNL     1       7.593   0.145  22.630  0.00  0.00    +0.021 A 
ENDBRANCH   1   3
BRANCH   1  14
ATOM     14  C   UNL     1       6.660  -3.526  22.811  0.00  0.00    +0.067 C 
ATOM     15  C   UNL     1       5.860  -3.732  21.521  0.00  0.00    +0.028 C 
BRANCH  14  16
ATOM     16  C   UNL     1       6.089  -4.333  23.989  0.00  0.00    +0.023 C 
BRANCH  16  17
ATOM     17  C   UNL     1       5.547  -3.412  25.091  0.00  0.00    +0.017 C 
BRANCH  17  18
ATOM     18  C   UNL     1       6.472  -3.307  26.311  0.00  0.00    +0.084 C 
BRANCH  18  19
ATOM     19  N   UNL     1       7.854  -2.867  26.016  0.00  0.00    -0.300 NA
BRANCH  19  21
ATOM     20  C   UNL     1       9.092  -0.644  25.963  0.00  0.00    +0.020 C 
ATOM     21  C   UNL     1       8.140  -1.583  26.699  0.00  0.00    +0.081 C 
ENDBRANCH  19  21
BRANCH  19  22
ATOM     22  C   UNL     1       8.834  -3.910  26.421  0.00  0.00    +0.112 C 
BRANCH  22  23
ATOM     23  C   UNL     1       9.554  -4.622  25.259  0.00  0.00    +0.171 C 
BRANCH  23  24
ATOM     24  O   UNL     1       9.804  -5.989  25.571  0.00  0.00    -0.394 OA
ATOM     25  H   UNL     1      10.565  -6.250  25.018  0.00  0.00    +0.209 HD
ENDBRANCH  23  24
ENDBRANCH  22  23
ENDBRANCH  19  22
ENDBRANCH  18  19
ENDBRANCH  17  18
ENDBRANCH  16  17
ENDBRANCH  14  16
ENDBRANCH   1  14
TORSDOF 10
ENDMDL
