MODEL 1
REMARK VINA RESULT:      -6.9      0.000      0.000
REMARK  Name = 
REMARK  6 active torsions:
REMARK  status: ('A' for Active; 'I' for Inactive)
REMARK    1  A    between atoms: C_9  and  O_10
REMARK    2  A    between atoms: C_17  and  O_18
REMARK    3  A    between atoms: C_19  and  O_21
REMARK    4  A    between atoms: C_22  and  O_23
REMARK    5  A    between atoms: C_22  and  C_24
REMARK    6  A    between atoms: C_24  and  O_25
REMARK                            x       y       z     vdW  Elec       q    Type
REMARK                         _______ _______ _______ _____ _____    ______ ____
ROOT
ATOM      1  C   UNL     1       7.276  -2.070  24.372  0.00  0.00    +0.189 C 
ATOM      2  C   UNL     1       8.583  -2.387  23.619  0.00  0.00    +0.144 C 
ATOM      3  C   UNL     1       8.397  -3.792  22.997  0.00  0.00    +0.169 C 
ATOM      4  C   UNL     1       8.015  -4.948  23.965  0.00  0.00    +0.129 C 
ATOM      5  C   UNL     1       6.736  -4.522  24.701  0.00  0.00    +0.148 C 
ATOM      6  C   UNL     1       5.608  -4.355  23.673  0.00  0.00    +0.198 C 
ATOM      7  C   UNL     1       6.085  -3.254  22.702  0.00  0.00    +0.131 C 
ATOM      8  O   UNL     1       5.203  -3.105  21.752  0.00  0.00    -0.807 OA
ATOM      9  N   UNL     1       6.351  -5.506  25.733  0.00  0.00    -0.230 N 
ATOM     10  H   UNL     1       5.368  -5.689  25.875  0.00  0.00    +0.245 HD
ATOM     11  C   UNL     1       7.254  -5.712  26.675  0.00  0.00    +0.329 C 
ATOM     12  N   UNL     1       6.867  -5.847  27.945  0.00  0.00    -0.254 N 
ATOM     13  H   UNL     1       5.902  -5.643  28.170  0.00  0.00    +0.241 HD
ATOM     14  H   UNL     1       7.528  -5.871  28.709  0.00  0.00    +0.241 HD
ATOM     15  N   UNL     1       8.558  -5.690  26.343  0.00  0.00    -0.256 N 
ATOM     16  H   UNL     1       9.272  -5.802  27.048  0.00  0.00    +0.260 HD
ATOM     17  C   UNL     1       9.008  -5.563  24.965  0.00  0.00    +0.284 C 
ATOM     18  O   UNL     1       7.311  -3.653  22.066  0.00  0.00    -0.353 OA
ATOM     19  C   UNL     1       7.071  -3.172  25.414  0.00  0.00    +0.187 C 
ATOM     20  O   UNL     1       6.203  -2.035  23.431  0.00  0.00    -0.351 OA
ENDROOT
BRANCH   2  21
ATOM     21  O   UNL     1       9.696  -2.383  24.534  0.00  0.00    -0.381 OA
ATOM     22  H   UNL     1       9.852  -3.341  24.702  0.00  0.00    +0.210 HD
ENDBRANCH   2  21
BRANCH   6  23
ATOM     23  O   UNL     1       5.406  -5.608  22.985  0.00  0.00    -0.384 OA
ATOM     24  H   UNL     1       5.175  -6.194  23.750  0.00  0.00    +0.210 HD
ENDBRANCH   6  23
BRANCH  17  25
ATOM     25  O   UNL     1      10.269  -4.951  25.072  0.00  0.00    -0.360 OA
ATOM     26  H   UNL     1      10.875  -5.528  25.582  0.00  0.00    +0.213 HD
ENDBRANCH  17  25
BRANCH  19  27
ATOM     27  O   UNL     1       6.111  -2.880  26.434  0.00  0.00    -0.385 OA
ATOM     28  H   UNL     1       5.733  -3.738  26.706  0.00  0.00    +0.210 HD
ENDBRANCH  19  27
BRANCH   2  29
ATOM     29  C   UNL     1       8.821  -1.288  22.554  0.00  0.00    +0.195 C 
BRANCH  29  30
ATOM     30  O   UNL     1       9.738  -1.808  21.575  0.00  0.00    -0.392 OA
ATOM     31  H   UNL     1      10.621  -1.760  22.001  0.00  0.00    +0.210 HD
ENDBRANCH  29  30
ENDBRANCH   2  29
TORSDOF 6
ENDMDL
MODEL 2
REMARK VINA RESULT:      -6.7      3.491      5.388
REMARK  Name = 
REMARK  6 active torsions:
REMARK  status: ('A' for Active; 'I' for Inactive)
REMARK    1  A    between atoms: C_9  and  O_10
REMARK    2  A    between atoms: C_17  and  O_18
REMARK    3  A    between atoms: C_19  and  O_21
REMARK    4  A    between atoms: C_22  and  O_23
REMARK    5  A    between atoms: C_22  and  C_24
REMARK    6  A    between atoms: C_24  and  O_25
REMARK                            x       y       z     vdW  Elec       q    Type
REMARK                         _______ _______ _______ _____ _____    ______ ____
ROOT
ATOM      1  C   UNL     1       6.603  -1.780  23.559  0.00  0.00    +0.189 C 
ATOM      2  C   UNL     1       7.649  -2.881  23.301  0.00  0.00    +0.144 C 
ATOM      3  C   UNL     1       8.923  -2.461  24.074  0.00  0.00    +0.169 C 
ATOM      4  C   UNL     1       9.505  -1.052  23.763  0.00  0.00    +0.129 C 
ATOM      5  C   UNL     1       8.382  -0.032  24.000  0.00  0.00    +0.148 C 
ATOM      6  C   UNL     1       7.980  -0.077  25.481  0.00  0.00    +0.198 C 
ATOM      7  C   UNL     1       7.489  -1.518  25.740  0.00  0.00    +0.131 C 
ATOM      8  O   UNL     1       7.195  -1.653  27.004  0.00  0.00    -0.807 OA
ATOM      9  N   UNL     1       8.799   1.332  23.621  0.00  0.00    -0.230 N 
ATOM     10  H   UNL     1       8.476   2.106  24.186  0.00  0.00    +0.245 HD
ATOM     11  C   UNL     1       9.153   1.479  22.356  0.00  0.00    +0.329 C 
ATOM     12  N   UNL     1       8.783   2.573  21.688  0.00  0.00    -0.254 N 
ATOM     13  H   UNL     1       8.117   3.194  22.127  0.00  0.00    +0.241 HD
ATOM     14  H   UNL     1       8.916   2.663  20.690  0.00  0.00    +0.241 HD
ATOM     15  N   UNL     1       9.805   0.474  21.743  0.00  0.00    -0.256 N 
ATOM     16  H   UNL     1      10.051   0.540  20.766  0.00  0.00    +0.260 HD
ATOM     17  C   UNL     1      10.236  -0.721  22.452  0.00  0.00    +0.284 C 
ATOM     18  O   UNL     1       8.540  -2.456  25.459  0.00  0.00    -0.353 OA
ATOM     19  C   UNL     1       7.200  -0.458  23.069  0.00  0.00    +0.187 C 
ATOM     20  O   UNL     1       6.317  -1.738  24.957  0.00  0.00    -0.351 OA
ENDROOT
BRANCH   2  21
ATOM     21  O   UNL     1       7.925  -2.982  21.890  0.00  0.00    -0.381 OA
ATOM     22  H   UNL     1       8.909  -2.952  21.851  0.00  0.00    +0.210 HD
ENDBRANCH   2  21
BRANCH   6  23
ATOM     23  O   UNL     1       9.132   0.236  26.293  0.00  0.00    -0.384 OA
ATOM     24  H   UNL     1       9.620   0.841  25.679  0.00  0.00    +0.210 HD
ENDBRANCH   6  23
BRANCH  17  25
ATOM     25  O   UNL     1      10.256  -1.718  21.460  0.00  0.00    -0.360 OA
ATOM     26  H   UNL     1      10.616  -2.549  21.832  0.00  0.00    +0.213 HD
ENDBRANCH  17  25
BRANCH  19  27
ATOM     27  O   UNL     1       6.266   0.613  22.904  0.00  0.00    -0.385 OA
ATOM     28  H   UNL     1       6.797   1.431  22.847  0.00  0.00    +0.210 HD
ENDBRANCH  19  27
BRANCH   2  29
ATOM     29  C   UNL     1       7.074  -4.235  23.786  0.00  0.00    +0.195 C 
BRANCH  29  30
ATOM     30  O   UNL     1       8.179  -5.117  24.052  0.00  0.00    -0.392 OA
ATOM     31  H   UNL     1       8.348  -5.580  23.203  0.00  0.00    +0.210 HD
ENDBRANCH  29  30
ENDBRANCH   2  29
TORSDOF 6
ENDMDL
MODEL 3
REMARK VINA RESULT:      -6.7      2.974      4.746
REMARK  Name = 
REMARK  6 active torsions:
REMARK  status: ('A' for Active; 'I' for Inactive)
REMARK    1  A    between atoms: C_9  and  O_10
REMARK    2  A    between atoms: C_17  and  O_18
REMARK    3  A    between atoms: C_19  and  O_21
REMARK    4  A    between atoms: C_22  and  O_23
REMARK    5  A    between atoms: C_22  and  C_24
REMARK    6  A    between atoms: C_24  and  O_25
REMARK                            x       y       z     vdW  Elec       q    Type
REMARK                         _______ _______ _______ _____ _____    ______ ____
ROOT
ATOM      1  C   UNL     1       9.253  -3.611  24.750  0.00  0.00    +0.189 C 
ATOM      2  C   UNL     1       8.220  -3.213  25.822  0.00  0.00    +0.144 C 
ATOM      3  C   UNL     1       6.920  -2.856  25.062  0.00  0.00    +0.169 C 
ATOM      4  C   UNL     1       7.026  -1.767  23.955  0.00  0.00    +0.129 C 
ATOM      5  C   UNL     1       8.108  -2.225  22.967  0.00  0.00    +0.148 C 
ATOM      6  C   UNL     1       7.655  -3.539  22.315  0.00  0.00    +0.198 C 
ATOM      7  C   UNL     1       7.493  -4.548  23.472  0.00  0.00    +0.131 C 
ATOM      8  O   UNL     1       7.039  -5.677  23.000  0.00  0.00    -0.807 OA
ATOM      9  N   UNL     1       8.369  -1.202  21.935  0.00  0.00    -0.230 N 
ATOM     10  H   UNL     1       8.564  -1.511  20.993  0.00  0.00    +0.245 HD
ATOM     11  C   UNL     1       8.778  -0.033  22.396  0.00  0.00    +0.329 C 
ATOM     12  N   UNL     1       9.742   0.630  21.755  0.00  0.00    -0.254 N 
ATOM     13  H   UNL     1      10.235   0.151  21.013  0.00  0.00    +0.241 HD
ATOM     14  H   UNL     1      10.177   1.456  22.144  0.00  0.00    +0.241 HD
ATOM     15  N   UNL     1       8.274   0.421  23.558  0.00  0.00    -0.256 N 
ATOM     16  H   UNL     1       8.599   1.289  23.957  0.00  0.00    +0.260 HD
ATOM     17  C   UNL     1       7.210  -0.273  24.269  0.00  0.00    +0.284 C 
ATOM     18  O   UNL     1       6.516  -4.071  24.412  0.00  0.00    -0.353 OA
ATOM     19  C   UNL     1       9.414  -2.418  23.805  0.00  0.00    +0.187 C 
ATOM     20  O   UNL     1       8.775  -4.764  24.059  0.00  0.00    -0.351 OA
ENDROOT
BRANCH   2  21
ATOM     21  O   UNL     1       8.695  -2.078  26.572  0.00  0.00    -0.381 OA
ATOM     22  H   UNL     1       9.561  -1.876  26.148  0.00  0.00    +0.210 HD
ENDBRANCH   2  21
BRANCH   6  23
ATOM     23  O   UNL     1       6.401  -3.321  21.633  0.00  0.00    -0.384 OA
ATOM     24  H   UNL     1       5.895  -2.849  22.342  0.00  0.00    +0.210 HD
ENDBRANCH   6  23
BRANCH  17  25
ATOM     25  O   UNL     1       7.412   0.079  25.615  0.00  0.00    -0.360 OA
ATOM     26  H   UNL     1       7.931   0.908  25.667  0.00  0.00    +0.213 HD
ENDBRANCH  17  25
BRANCH  19  27
ATOM     27  O   UNL     1      10.566  -2.458  22.957  0.00  0.00    -0.385 OA
ATOM     28  H   UNL     1      10.994  -3.319  23.122  0.00  0.00    +0.210 HD
ENDBRANCH  19  27
BRANCH   2  29
ATOM     29  C   UNL     1       8.035  -4.402  26.798  0.00  0.00    +0.195 C 
BRANCH  29  30
ATOM     30  O   UNL     1       9.328  -4.986  27.036  0.00  0.00    -0.392 OA
ATOM     31  H   UNL     1       9.971  -4.354  26.647  0.00  0.00    +0.210 HD
ENDBRANCH  29  30
ENDBRANCH   2  29
TORSDOF 6
ENDMDL
MODEL 4
REMARK VINA RESULT:      -6.7      3.943      6.081
REMARK  Name = 
REMARK  6 active torsions:
REMARK  status: ('A' for Active; 'I' for Inactive)
REMARK    1  A    between atoms: C_9  and  O_10
REMARK    2  A    between atoms: C_17  and  O_18
REMARK    3  A    between atoms: C_19  and  O_21
REMARK    4  A    between atoms: C_22  and  O_23
REMARK    5  A    between atoms: C_22  and  C_24
REMARK    6  A    between atoms: C_24  and  O_25
REMARK                            x       y       z     vdW  Elec       q    Type
REMARK                         _______ _______ _______ _____ _____    ______ ____
ROOT
ATOM      1  C   UNL     1       8.178  -0.531  25.195  0.00  0.00    +0.189 C 
ATOM      2  C   UNL     1       6.844  -0.599  24.427  0.00  0.00    +0.144 C 
ATOM      3  C   UNL     1       7.205  -0.895  22.952  0.00  0.00    +0.169 C 
ATOM      4  C   UNL     1       8.200   0.080  22.259  0.00  0.00    +0.129 C 
ATOM      5  C   UNL     1       9.472   0.120  23.118  0.00  0.00    +0.148 C 
ATOM      6  C   UNL     1      10.098  -1.282  23.136  0.00  0.00    +0.198 C 
ATOM      7  C   UNL     1       9.032  -2.210  23.759  0.00  0.00    +0.131 C 
ATOM      8  O   UNL     1       9.468  -3.440  23.743  0.00  0.00    -0.807 OA
ATOM      9  N   UNL     1      10.441   1.109  22.607  0.00  0.00    -0.230 N 
ATOM     10  H   UNL     1      11.426   0.884  22.655  0.00  0.00    +0.245 HD
ATOM     11  C   UNL     1      10.001   2.354  22.564  0.00  0.00    +0.329 C 
ATOM     12  N   UNL     1      10.809   3.355  22.919  0.00  0.00    -0.254 N 
ATOM     13  H   UNL     1      11.693   3.119  23.351  0.00  0.00    +0.241 HD
ATOM     14  H   UNL     1      10.475   4.302  23.030  0.00  0.00    +0.241 HD
ATOM     15  N   UNL     1       8.712   2.578  22.248  0.00  0.00    -0.256 N 
ATOM     16  H   UNL     1       8.336   3.515  22.249  0.00  0.00    +0.260 HD
ATOM     17  C   UNL     1       7.814   1.508  21.840  0.00  0.00    +0.284 C 
ATOM     18  O   UNL     1       7.833  -2.187  22.968  0.00  0.00    -0.353 OA
ATOM     19  C   UNL     1       9.023   0.569  24.546  0.00  0.00    +0.187 C 
ATOM     20  O   UNL     1       8.821  -1.802  25.110  0.00  0.00    -0.351 OA
ENDROOT
BRANCH   2  21
ATOM     21  O   UNL     1       6.146   0.657  24.534  0.00  0.00    -0.381 OA
ATOM     22  H   UNL     1       6.675   1.258  23.961  0.00  0.00    +0.210 HD
ENDBRANCH   2  21
BRANCH   6  23
ATOM     23  O   UNL     1      10.408  -1.679  21.783  0.00  0.00    -0.384 OA
ATOM     24  H   UNL     1      10.079  -2.613  21.793  0.00  0.00    +0.210 HD
ENDBRANCH   6  23
BRANCH  17  25
ATOM     25  O   UNL     1       6.541   1.966  22.223  0.00  0.00    -0.360 OA
ATOM     26  H   UNL     1       6.412   2.886  21.912  0.00  0.00    +0.213 HD
ENDBRANCH  17  25
BRANCH  19  27
ATOM     27  O   UNL     1      10.141   1.018  25.318  0.00  0.00    -0.385 OA
ATOM     28  H   UNL     1      10.845   0.354  25.188  0.00  0.00    +0.210 HD
ENDBRANCH  19  27
BRANCH   2  29
ATOM     29  C   UNL     1       5.963  -1.704  25.061  0.00  0.00    +0.195 C 
BRANCH  29  30
ATOM     30  O   UNL     1       5.287  -2.398  23.997  0.00  0.00    -0.392 OA
ATOM     31  H   UNL     1       5.116  -3.299  24.348  0.00  0.00    +0.210 HD
ENDBRANCH  29  30
ENDBRANCH   2  29
TORSDOF 6
ENDMDL
MODEL 5
REMARK VINA RESULT:      -6.6      4.459      6.450
REMARK  Name = 
REMARK  6 active torsions:
REMARK  status: ('A' for Active; 'I' for Inactive)
REMARK    1  A    between atoms: C_9  and  O_10
REMARK    2  A    between atoms: C_17  and  O_18
REMARK    3  A    between atoms: C_19  and  O_21
REMARK    4  A    between atoms: C_22  and  O_23
REMARK    5  A    between atoms: C_22  and  C_24
REMARK    6  A    between atoms: C_24  and  O_25
REMARK                            x       y       z     vdW  Elec       q    Type
REMARK                         _______ _______ _______ _____ _____    ______ ____
ROOT
ATOM      1  C   UNL     1       8.168  -0.928  23.303  0.00  0.00    +0.189 C 
ATOM      2  C   UNL     1       9.688  -0.775  23.102  0.00  0.00    +0.144 C 
ATOM      3  C   UNL     1      10.139   0.366  24.045  0.00  0.00    +0.169 C 
ATOM      4  C   UNL     1       9.414   1.735  23.895  0.00  0.00    +0.129 C 
ATOM      5  C   UNL     1       7.910   1.474  24.060  0.00  0.00    +0.148 C 
ATOM      6  C   UNL     1       7.655   0.943  25.478  0.00  0.00    +0.198 C 
ATOM      7  C   UNL     1       8.464  -0.369  25.586  0.00  0.00    +0.131 C 
ATOM      8  O   UNL     1       8.353  -0.846  26.795  0.00  0.00    -0.807 OA
ATOM      9  N   UNL     1       7.118   2.697  23.819  0.00  0.00    -0.230 N 
ATOM     10  H   UNL     1       6.299   2.857  24.390  0.00  0.00    +0.245 HD
ATOM     11  C   UNL     1       7.258   3.228  22.618  0.00  0.00    +0.329 C 
ATOM     12  N   UNL     1       6.191   3.713  21.980  0.00  0.00    -0.254 N 
ATOM     13  H   UNL     1       5.279   3.530  22.376  0.00  0.00    +0.241 HD
ATOM     14  H   UNL     1       6.229   4.003  21.012  0.00  0.00    +0.241 HD
ATOM     15  N   UNL     1       8.465   3.184  22.024  0.00  0.00    -0.256 N 
ATOM     16  H   UNL     1       8.593   3.543  21.089  0.00  0.00    +0.260 HD
ATOM     17  C   UNL     1       9.648   2.677  22.702  0.00  0.00    +0.284 C 
ATOM     18  O   UNL     1       9.861  -0.107  25.372  0.00  0.00    -0.353 OA
ATOM     19  C   UNL     1       7.525   0.421  22.971  0.00  0.00    +0.187 C 
ATOM     20  O   UNL     1       7.921  -1.306  24.657  0.00  0.00    -0.351 OA
ENDROOT
BRANCH   2  21
ATOM     21  O   UNL     1       9.976  -0.440  21.730  0.00  0.00    -0.381 OA
ATOM     22  H   UNL     1       9.488  -1.131  21.224  0.00  0.00    +0.210 HD
ENDBRANCH   2  21
BRANCH   6  23
ATOM     23  O   UNL     1       8.112   1.919  26.438  0.00  0.00    -0.384 OA
ATOM     24  H   UNL     1       7.649   1.595  27.252  0.00  0.00    +0.210 HD
ENDBRANCH   6  23
BRANCH  17  25
ATOM     25  O   UNL     1      10.462   2.200  21.659  0.00  0.00    -0.360 OA
ATOM     26  H   UNL     1       9.942   1.610  21.075  0.00  0.00    +0.213 HD
ENDBRANCH  17  25
BRANCH  19  27
ATOM     27  O   UNL     1       6.109   0.391  22.765  0.00  0.00    -0.385 OA
ATOM     28  H   UNL     1       5.976   0.395  21.797  0.00  0.00    +0.210 HD
ENDBRANCH  19  27
BRANCH   2  29
ATOM     29  C   UNL     1      10.370  -2.126  23.429  0.00  0.00    +0.195 C 
BRANCH  29  30
ATOM     30  O   UNL     1       9.374  -3.161  23.337  0.00  0.00    -0.392 OA
ATOM     31  H   UNL     1       9.841  -3.932  22.948  0.00  0.00    +0.210 HD
ENDBRANCH  29  30
ENDBRANCH   2  29
TORSDOF 6
ENDMDL
MODEL 6
REMARK VINA RESULT:      -6.6      6.024      7.907
REMARK  Name = 
REMARK  6 active torsions:
REMARK  status: ('A' for Active; 'I' for Inactive)
REMARK    1  A    between atoms: C_9  and  O_10
REMARK    2  A    between atoms: C_17  and  O_18
REMARK    3  A    between atoms: C_19  and  O_21
REMARK    4  A    between atoms: C_22  and  O_23
REMARK    5  A    between atoms: C_22  and  C_24
REMARK    6  A    between atoms: C_24  and  O_25
REMARK                            x       y       z     vdW  Elec       q    Type
REMARK                         _______ _______ _______ _____ _____    ______ ____
ROOT
ATOM      1  C   UNL     1       8.252   1.653  22.043  0.00  0.00    +0.189 C 
ATOM      2  C   UNL     1       9.738   1.452  22.397  0.00  0.00    +0.144 C 
ATOM      3  C   UNL     1       9.905   1.927  23.860  0.00  0.00    +0.169 C 
ATOM      4  C   UNL     1       9.443   3.375  24.190  0.00  0.00    +0.129 C 
ATOM      5  C   UNL     1       7.974   3.494  23.759  0.00  0.00    +0.148 C 
ATOM      6  C   UNL     1       7.136   2.514  24.593  0.00  0.00    +0.198 C 
ATOM      7  C   UNL     1       7.697   1.110  24.280  0.00  0.00    +0.131 C 
ATOM      8  O   UNL     1       7.077   0.225  25.011  0.00  0.00    -0.807 OA
ATOM      9  N   UNL     1       7.469   4.872  23.924  0.00  0.00    -0.230 N 
ATOM     10  H   UNL     1       6.515   4.998  24.232  0.00  0.00    +0.245 HD
ATOM     11  C   UNL     1       8.119   5.793  23.234  0.00  0.00    +0.329 C 
ATOM     12  N   UNL     1       7.439   6.771  22.633  0.00  0.00    -0.254 N 
ATOM     13  H   UNL     1       6.431   6.698  22.603  0.00  0.00    +0.241 HD
ATOM     14  H   UNL     1       7.879   7.414  21.988  0.00  0.00    +0.241 HD
ATOM     15  N   UNL     1       9.449   5.670  23.077  0.00  0.00    -0.256 N 
ATOM     16  H   UNL     1       9.966   6.334  22.519  0.00  0.00    +0.260 HD
ATOM     17  C   UNL     1      10.218   4.623  23.735  0.00  0.00    +0.284 C 
ATOM     18  O   UNL     1       9.087   1.042  24.641  0.00  0.00    -0.353 OA
ATOM     19  C   UNL     1       7.932   3.138  22.238  0.00  0.00    +0.187 C 
ATOM     20  O   UNL     1       7.462   0.832  22.901  0.00  0.00    -0.351 OA
ENDROOT
BRANCH   2  21
ATOM     21  O   UNL     1      10.568   2.233  21.514  0.00  0.00    -0.381 OA
ATOM     22  H   UNL     1      11.464   2.148  21.915  0.00  0.00    +0.210 HD
ENDBRANCH   2  21
BRANCH   6  23
ATOM     23  O   UNL     1       7.284   2.837  25.992  0.00  0.00    -0.384 OA
ATOM     24  H   UNL     1       6.349   2.726  26.299  0.00  0.00    +0.210 HD
ENDBRANCH   6  23
BRANCH  17  25
ATOM     25  O   UNL     1      11.317   4.419  22.883  0.00  0.00    -0.360 OA
ATOM     26  H   UNL     1      11.044   4.547  21.951  0.00  0.00    +0.213 HD
ENDBRANCH  17  25
BRANCH  19  27
ATOM     27  O   UNL     1       6.713   3.586  21.639  0.00  0.00    -0.385 OA
ATOM     28  H   UNL     1       6.775   4.560  21.592  0.00  0.00    +0.210 HD
ENDBRANCH  19  27
BRANCH   2  29
ATOM     29  C   UNL     1      10.095  -0.043  22.208  0.00  0.00    +0.195 C 
BRANCH  29  30
ATOM     30  O   UNL     1       9.443  -0.508  21.013  0.00  0.00    -0.392 OA
ATOM     31  H   UNL     1       9.263  -1.460  21.173  0.00  0.00    +0.210 HD
ENDBRANCH  29  30
ENDBRANCH   2  29
TORSDOF 6
ENDMDL
MODEL 7
REMARK VINA RESULT:      -6.5      2.442      4.676
REMARK  Name = 
REMARK  6 active torsions:
REMARK  status: ('A' for Active; 'I' for Inactive)
REMARK    1  A    between atoms: C_9  and  O_10
REMARK    2  A    between atoms: C_17  and  O_18
REMARK    3  A    between atoms: C_19  and  O_21
REMARK    4  A    between atoms: C_22  and  O_23
REMARK    5  A    between atoms: C_22  and  C_24
REMARK    6  A    between atoms: C_24  and  O_25
REMARK                            x       y       z     vdW  Elec       q    Type
REMARK                         _______ _______ _______ _____ _____    ______ ____
ROOT
ATOM      1  C   UNL     1       6.394  -2.993  26.296  0.00  0.00    +0.189 C 
ATOM      2  C   UNL     1       5.428  -3.713  25.336  0.00  0.00    +0.144 C 
ATOM      3  C   UNL     1       6.236  -4.861  24.685  0.00  0.00    +0.169 C 
ATOM      4  C   UNL     1       7.556  -4.472  23.960  0.00  0.00    +0.129 C 
ATOM      5  C   UNL     1       8.429  -3.720  24.976  0.00  0.00    +0.148 C 
ATOM      6  C   UNL     1       8.770  -4.671  26.131  0.00  0.00    +0.198 C 
ATOM      7  C   UNL     1       7.417  -5.080  26.753  0.00  0.00    +0.131 C 
ATOM      8  O   UNL     1       7.623  -5.950  27.703  0.00  0.00    -0.807 OA
ATOM      9  N   UNL     1       9.664  -3.203  24.353  0.00  0.00    -0.230 N 
ATOM     10  H   UNL     1      10.516  -3.218  24.896  0.00  0.00    +0.245 HD
ATOM     11  C   UNL     1       9.477  -2.362  23.352  0.00  0.00    +0.329 C 
ATOM     12  N   UNL     1      10.258  -1.286  23.236  0.00  0.00    -0.254 N 
ATOM     13  H   UNL     1      10.880  -1.068  24.003  0.00  0.00    +0.241 HD
ATOM     14  H   UNL     1      10.065  -0.551  22.570  0.00  0.00    +0.241 HD
ATOM     15  N   UNL     1       8.439  -2.562  22.519  0.00  0.00    -0.256 N 
ATOM     16  H   UNL     1       8.245  -1.913  21.771  0.00  0.00    +0.260 HD
ATOM     17  C   UNL     1       7.583  -3.736  22.611  0.00  0.00    +0.284 C 
ATOM     18  O   UNL     1       6.597  -5.732  25.768  0.00  0.00    -0.353 OA
ATOM     19  C   UNL     1       7.582  -2.501  25.465  0.00  0.00    +0.187 C 
ATOM     20  O   UNL     1       6.809  -3.914  27.305  0.00  0.00    -0.351 OA
ENDROOT
BRANCH   2  21
ATOM     21  O   UNL     1       4.952  -2.796  24.332  0.00  0.00    -0.381 OA
ATOM     22  H   UNL     1       4.727  -1.990  24.851  0.00  0.00    +0.210 HD
ENDBRANCH   2  21
BRANCH   6  23
ATOM     23  O   UNL     1       9.472  -5.819  25.607  0.00  0.00    -0.384 OA
ATOM     24  H   UNL     1      10.400  -5.471  25.603  0.00  0.00    +0.210 HD
ENDBRANCH   6  23
BRANCH  17  25
ATOM     25  O   UNL     1       6.350  -3.300  22.094  0.00  0.00    -0.360 OA
ATOM     26  H   UNL     1       5.855  -4.062  21.729  0.00  0.00    +0.213 HD
ENDBRANCH  17  25
BRANCH  19  27
ATOM     27  O   UNL     1       8.410  -1.521  26.098  0.00  0.00    -0.385 OA
ATOM     28  H   UNL     1       8.807  -0.994  25.378  0.00  0.00    +0.210 HD
ENDBRANCH  19  27
BRANCH   2  29
ATOM     29  C   UNL     1       4.211  -4.224  26.148  0.00  0.00    +0.195 C 
BRANCH  29  30
ATOM     30  O   UNL     1       3.757  -5.448  25.545  0.00  0.00    -0.392 OA
ATOM     31  H   UNL     1       4.411  -5.645  24.840  0.00  0.00    +0.210 HD
ENDBRANCH  29  30
ENDBRANCH   2  29
TORSDOF 6
ENDMDL
MODEL 8
REMARK VINA RESULT:      -6.5      4.763      6.816
REMARK  Name = 
REMARK  6 active torsions:
REMARK  status: ('A' for Active; 'I' for Inactive)
REMARK    1  A    between atoms: C_9  and  O_10
REMARK    2  A    between atoms: C_17  and  O_18
REMARK    3  A    between atoms: C_19  and  O_21
REMARK    4  A    between atoms: C_22  and  O_23
REMARK    5  A    between atoms: C_22  and  C_24
REMARK    6  A    between atoms: C_24  and  O_25
REMARK                            x       y       z     vdW  Elec       q    Type
REMARK                         _______ _______ _______ _____ _____    ______ ____
ROOT
ATOM      1  C   UNL     1       9.751  -0.287  24.875  0.00  0.00    +0.189 C 
ATOM      2  C   UNL     1       8.295  -0.000  25.290  0.00  0.00    +0.144 C 
ATOM      3  C   UNL     1       7.589   0.571  24.037  0.00  0.00    +0.169 C 
ATOM      4  C   UNL     1       8.236   1.818  23.369  0.00  0.00    +0.129 C 
ATOM      5  C   UNL     1       9.690   1.455  23.038  0.00  0.00    +0.148 C 
ATOM      6  C   UNL     1       9.691   0.304  22.022  0.00  0.00    +0.198 C 
ATOM      7  C   UNL     1       8.968  -0.870  22.717  0.00  0.00    +0.131 C 
ATOM      8  O   UNL     1       8.866  -1.869  21.884  0.00  0.00    -0.807 OA
ATOM      9  N   UNL     1      10.430   2.615  22.502  0.00  0.00    -0.230 N 
ATOM     10  H   UNL     1      11.106   2.453  21.768  0.00  0.00    +0.245 HD
ATOM     11  C   UNL     1      10.498   3.658  23.310  0.00  0.00    +0.329 C 
ATOM     12  N   UNL     1      11.636   4.348  23.405  0.00  0.00    -0.254 N 
ATOM     13  H   UNL     1      12.461   3.965  22.964  0.00  0.00    +0.241 HD
ATOM     14  H   UNL     1      11.773   5.065  24.106  0.00  0.00    +0.241 HD
ATOM     15  N   UNL     1       9.441   3.946  24.090  0.00  0.00    -0.256 N 
ATOM     16  H   UNL     1       9.478   4.711  24.748  0.00  0.00    +0.260 HD
ATOM     17  C   UNL     1       8.182   3.222  23.994  0.00  0.00    +0.284 C 
ATOM     18  O   UNL     1       7.627  -0.487  23.066  0.00  0.00    -0.353 OA
ATOM     19  C   UNL     1      10.355   1.033  24.388  0.00  0.00    +0.187 C 
ATOM     20  O   UNL     1       9.747  -1.272  23.842  0.00  0.00    -0.351 OA
ENDROOT
BRANCH   2  21
ATOM     21  O   UNL     1       8.266   0.957  26.367  0.00  0.00    -0.381 OA
ATOM     22  H   UNL     1       8.078   0.400  27.157  0.00  0.00    +0.210 HD
ENDBRANCH   2  21
BRANCH   6  23
ATOM     23  O   UNL     1       8.987   0.722  20.833  0.00  0.00    -0.384 OA
ATOM     24  H   UNL     1       8.062   0.769  21.185  0.00  0.00    +0.210 HD
ENDBRANCH   6  23
BRANCH  17  25
ATOM     25  O   UNL     1       7.627   3.329  25.282  0.00  0.00    -0.360 OA
ATOM     26  H   UNL     1       8.307   3.645  25.911  0.00  0.00    +0.213 HD
ENDBRANCH  17  25
BRANCH  19  27
ATOM     27  O   UNL     1      11.782   1.052  24.286  0.00  0.00    -0.385 OA
ATOM     28  H   UNL     1      11.985   1.280  23.358  0.00  0.00    +0.210 HD
ENDBRANCH  19  27
BRANCH   2  29
ATOM     29  C   UNL     1       7.653  -1.319  25.790  0.00  0.00    +0.195 C 
BRANCH  29  30
ATOM     30  O   UNL     1       8.688  -2.116  26.393  0.00  0.00    -0.392 OA
ATOM     31  H   UNL     1       9.444  -1.502  26.520  0.00  0.00    +0.210 HD
ENDBRANCH  29  30
ENDBRANCH   2  29
TORSDOF 6
ENDMDL
MODEL 9
REMARK VINA RESULT:      -6.5      2.726      4.357
REMARK  Name = 
REMARK  6 active torsions:
REMARK  status: ('A' for Active; 'I' for Inactive)
REMARK    1  A    between atoms: C_9  and  O_10
REMARK    2  A    between atoms: C_17  and  O_18
REMARK    3  A    between atoms: C_19  and  O_21
REMARK    4  A    between atoms: C_22  and  O_23
REMARK    5  A    between atoms: C_22  and  C_24
REMARK    6  A    between atoms: C_24  and  O_25
REMARK                            x       y       z     vdW  Elec       q    Type
REMARK                         _______ _______ _______ _____ _____    ______ ____
ROOT
ATOM      1  C   UNL     1       8.133   0.298  22.802  0.00  0.00    +0.189 C 
ATOM      2  C   UNL     1       8.965   1.180  23.753  0.00  0.00    +0.144 C 
ATOM      3  C   UNL     1       9.784   0.211  24.640  0.00  0.00    +0.169 C 
ATOM      4  C   UNL     1       8.987  -0.867  25.430  0.00  0.00    +0.129 C 
ATOM      5  C   UNL     1       8.156  -1.658  24.410  0.00  0.00    +0.148 C 
ATOM      6  C   UNL     1       9.111  -2.371  23.442  0.00  0.00    +0.198 C 
ATOM      7  C   UNL     1       9.923  -1.252  22.753  0.00  0.00    +0.131 C 
ATOM      8  O   UNL     1      10.812  -1.788  21.963  0.00  0.00    -0.807 OA
ATOM      9  N   UNL     1       7.271  -2.636  25.073  0.00  0.00    -0.230 N 
ATOM     10  H   UNL     1       7.126  -3.531  24.626  0.00  0.00    +0.245 HD
ATOM     11  C   UNL     1       6.398  -2.118  25.920  0.00  0.00    +0.329 C 
ATOM     12  N   UNL     1       5.152  -2.592  25.957  0.00  0.00    -0.254 N 
ATOM     13  H   UNL     1       4.868  -3.239  25.233  0.00  0.00    +0.241 HD
ATOM     14  H   UNL     1       4.420  -2.140  26.489  0.00  0.00    +0.241 HD
ATOM     15  N   UNL     1       6.764  -1.059  26.664  0.00  0.00    -0.256 N 
ATOM     16  H   UNL     1       6.107  -0.615  27.289  0.00  0.00    +0.260 HD
ATOM     17  C   UNL     1       8.122  -0.534  26.656  0.00  0.00    +0.284 C 
ATOM     18  O   UNL     1      10.649  -0.492  23.734  0.00  0.00    -0.353 OA
ATOM     19  C   UNL     1       7.260  -0.613  23.669  0.00  0.00    +0.187 C 
ATOM     20  O   UNL     1       9.023  -0.458  21.982  0.00  0.00    -0.351 OA
ENDROOT
BRANCH   2  21
ATOM     21  O   UNL     1       8.095   1.994  24.563  0.00  0.00    -0.381 OA
ATOM     22  H   UNL     1       7.855   2.735  23.960  0.00  0.00    +0.210 HD
ENDBRANCH   2  21
BRANCH   6  23
ATOM     23  O   UNL     1       9.972  -3.254  24.193  0.00  0.00    -0.384 OA
ATOM     24  H   UNL     1      10.154  -3.946  23.508  0.00  0.00    +0.210 HD
ENDBRANCH   6  23
BRANCH  17  25
ATOM     25  O   UNL     1       7.964   0.826  26.978  0.00  0.00    -0.360 OA
ATOM     26  H   UNL     1       8.761   1.151  27.444  0.00  0.00    +0.213 HD
ENDBRANCH  17  25
BRANCH  19  27
ATOM     27  O   UNL     1       6.178  -1.255  22.988  0.00  0.00    -0.385 OA
ATOM     28  H   UNL     1       6.145  -2.168  23.332  0.00  0.00    +0.210 HD
ENDBRANCH  19  27
BRANCH   2  29
ATOM     29  C   UNL     1       9.861   2.116  22.904  0.00  0.00    +0.195 C 
BRANCH  29  30
ATOM     30  O   UNL     1       9.245   2.270  21.613  0.00  0.00    -0.392 OA
ATOM     31  H   UNL     1       9.711   1.633  21.029  0.00  0.00    +0.210 HD
ENDBRANCH  29  30
ENDBRANCH   2  29
TORSDOF 6
ENDMDL
