MODEL 1
REMARK VINA RESULT:      -2.6      0.000      0.000
REMARK  Name = 
REMARK  2 active torsions:
REMARK  status: ('A' for Active; 'I' for Inactive)
REMARK    1  A    between atoms: C_1  and  C_2
REMARK    2  A    between atoms: C_2  and  C_4
REMARK                            x       y       z     vdW  Elec       q    Type
REMARK                         _______ _______ _______ _____ _____    ______ ____
ROOT
ATOM      1  C   UNL     1      10.065  -0.571  24.382  0.00  0.00    +0.094 C 
ATOM      2  C   UNL     1      10.083  -1.803  23.530  0.00  0.00    +0.192 C 
ATOM      3  O   UNL     1      10.610  -1.882  22.427  0.00  0.00    -0.290 OA
ENDROOT
BRANCH   2   4
ATOM      4  C   UNL     1       9.396  -3.027  24.086  0.00  0.00    +0.296 C 
ATOM      5  O   UNL     1      10.033  -4.010  24.428  0.00  0.00    -0.293 OA
ENDBRANCH   2   4
TORSDOF 1
ENDMDL
MODEL 2
REMARK VINA RESULT:      -2.5      7.430      8.420
REMARK  Name = 
REMARK  2 active torsions:
REMARK  status: ('A' for Active; 'I' for Inactive)
REMARK    1  A    between atoms: C_1  and  C_2
REMARK    2  A    between atoms: C_2  and  C_4
REMARK                            x       y       z     vdW  Elec       q    Type
REMARK                         _______ _______ _______ _____ _____    ______ ____
ROOT
ATOM      1  C   UNL     1      13.321   5.605  22.183  0.00  0.00    +0.094 C 
ATOM      2  C   UNL     1      12.372   5.152  23.250  0.00  0.00    +0.192 C 
ATOM      3  O   UNL     1      11.933   4.014  23.357  0.00  0.00    -0.290 OA
ENDROOT
BRANCH   2   4
ATOM      4  C   UNL     1      11.933   6.188  24.257  0.00  0.00    +0.296 C 
ATOM      5  O   UNL     1      12.660   6.525  25.177  0.00  0.00    -0.293 OA
ENDBRANCH   2   4
TORSDOF 1
ENDMDL
MODEL 3
REMARK VINA RESULT:      -2.5      1.863      2.079
REMARK  Name = 
REMARK  2 active torsions:
REMARK  status: ('A' for Active; 'I' for Inactive)
REMARK    1  A    between atoms: C_1  and  C_2
REMARK    2  A    between atoms: C_2  and  C_4
REMARK                            x       y       z     vdW  Elec       q    Type
REMARK                         _______ _______ _______ _____ _____    ______ ____
ROOT
ATOM      1  C   UNL     1       9.440  -0.195  21.488  0.00  0.00    +0.094 C 
ATOM      2  C   UNL     1       9.187  -1.487  22.203  0.00  0.00    +0.192 C 
ATOM      3  O   UNL     1       8.229  -2.221  21.999  0.00  0.00    -0.290 OA
ENDROOT
BRANCH   2   4
ATOM      4  C   UNL     1      10.196  -1.897  23.249  0.00  0.00    +0.296 C 
ATOM      5  O   UNL     1      10.145  -2.993  23.783  0.00  0.00    -0.293 OA
ENDBRANCH   2   4
TORSDOF 1
ENDMDL
MODEL 4
REMARK VINA RESULT:      -2.5      2.026      2.898
REMARK  Name = 
REMARK  2 active torsions:
REMARK  status: ('A' for Active; 'I' for Inactive)
REMARK    1  A    between atoms: C_1  and  C_2
REMARK    2  A    between atoms: C_2  and  C_4
REMARK                            x       y       z     vdW  Elec       q    Type
REMARK                         _______ _______ _______ _____ _____    ______ ____
ROOT
ATOM      1  C   UNL     1       9.561   0.187  21.626  0.00  0.00    +0.094 C 
ATOM      2  C   UNL     1      10.193  -0.714  22.642  0.00  0.00    +0.192 C 
ATOM      3  O   UNL     1      10.633  -1.832  22.407  0.00  0.00    -0.290 OA
ENDROOT
BRANCH   2   4
ATOM      4  C   UNL     1      10.284  -0.190  24.056  0.00  0.00    +0.296 C 
ATOM      5  O   UNL     1      11.127   0.632  24.373  0.00  0.00    -0.293 OA
ENDBRANCH   2   4
TORSDOF 1
ENDMDL
MODEL 5
REMARK VINA RESULT:      -2.5      2.120      2.194
REMARK  Name = 
REMARK  2 active torsions:
REMARK  status: ('A' for Active; 'I' for Inactive)
REMARK    1  A    between atoms: C_1  and  C_2
REMARK    2  A    between atoms: C_2  and  C_4
REMARK                            x       y       z     vdW  Elec       q    Type
REMARK                         _______ _______ _______ _____ _____    ______ ____
ROOT
ATOM      1  C   UNL     1       9.451   0.119  21.500  0.00  0.00    +0.094 C 
ATOM      2  C   UNL     1       9.562  -1.274  22.041  0.00  0.00    +0.192 C 
ATOM      3  O   UNL     1      10.616  -1.842  22.296  0.00  0.00    -0.290 OA
ENDROOT
BRANCH   2   4
ATOM      4  C   UNL     1       8.270  -2.017  22.283  0.00  0.00    +0.296 C 
ATOM      5  O   UNL     1       8.262  -3.123  22.798  0.00  0.00    -0.293 OA
ENDBRANCH   2   4
TORSDOF 1
ENDMDL
MODEL 6
REMARK VINA RESULT:      -2.5      3.316      3.930
REMARK  Name = 
REMARK  2 active torsions:
REMARK  status: ('A' for Active; 'I' for Inactive)
REMARK    1  A    between atoms: C_1  and  C_2
REMARK    2  A    between atoms: C_2  and  C_4
REMARK                            x       y       z     vdW  Elec       q    Type
REMARK                         _______ _______ _______ _____ _____    ______ ____
ROOT
ATOM      1  C   UNL     1       7.971  -4.882  23.951  0.00  0.00    +0.094 C 
ATOM      2  C   UNL     1       8.956  -4.900  25.080  0.00  0.00    +0.192 C 
ATOM      3  O   UNL     1      10.173  -4.879  24.946  0.00  0.00    -0.290 OA
ENDROOT
BRANCH   2   4
ATOM      4  C   UNL     1       8.390  -4.949  26.479  0.00  0.00    +0.296 C 
ATOM      5  O   UNL     1       7.634  -5.842  26.825  0.00  0.00    -0.293 OA
ENDBRANCH   2   4
TORSDOF 1
ENDMDL
MODEL 7
REMARK VINA RESULT:      -2.5      2.105      2.781
REMARK  Name = 
REMARK  2 active torsions:
REMARK  status: ('A' for Active; 'I' for Inactive)
REMARK    1  A    between atoms: C_1  and  C_2
REMARK    2  A    between atoms: C_2  and  C_4
REMARK                            x       y       z     vdW  Elec       q    Type
REMARK                         _______ _______ _______ _____ _____    ______ ____
ROOT
ATOM      1  C   UNL     1       9.897   1.169  22.031  0.00  0.00    +0.094 C 
ATOM      2  C   UNL     1      10.369   0.372  23.209  0.00  0.00    +0.192 C 
ATOM      3  O   UNL     1      10.939   0.840  24.186  0.00  0.00    -0.290 OA
ENDROOT
BRANCH   2   4
ATOM      4  C   UNL     1      10.116  -1.116  23.170  0.00  0.00    +0.296 C 
ATOM      5  O   UNL     1      10.637  -1.826  22.326  0.00  0.00    -0.293 OA
ENDBRANCH   2   4
TORSDOF 1
ENDMDL
MODEL 8
REMARK VINA RESULT:      -2.5      3.571      4.793
REMARK  Name = 
REMARK  2 active torsions:
REMARK  status: ('A' for Active; 'I' for Inactive)
REMARK    1  A    between atoms: C_1  and  C_2
REMARK    2  A    between atoms: C_2  and  C_4
REMARK                            x       y       z     vdW  Elec       q    Type
REMARK                         _______ _______ _______ _____ _____    ______ ____
ROOT
ATOM      1  C   UNL     1       6.871  -5.162  25.310  0.00  0.00    +0.094 C 
ATOM      2  C   UNL     1       7.900  -5.273  26.393  0.00  0.00    +0.192 C 
ATOM      3  O   UNL     1       7.683  -5.697  27.521  0.00  0.00    -0.290 OA
ENDROOT
BRANCH   2   4
ATOM      4  C   UNL     1       9.301  -4.825  26.052  0.00  0.00    +0.296 C 
ATOM      5  O   UNL     1       9.811  -5.102  24.979  0.00  0.00    -0.293 OA
ENDBRANCH   2   4
TORSDOF 1
ENDMDL
MODEL 9
REMARK VINA RESULT:      -2.4      2.093      3.334
REMARK  Name = 
REMARK  2 active torsions:
REMARK  status: ('A' for Active; 'I' for Inactive)
REMARK    1  A    between atoms: C_1  and  C_2
REMARK    2  A    between atoms: C_2  and  C_4
REMARK                            x       y       z     vdW  Elec       q    Type
REMARK                         _______ _______ _______ _____ _____    ______ ____
ROOT
ATOM      1  C   UNL     1      10.417  -0.136  24.131  0.00  0.00    +0.094 C 
ATOM      2  C   UNL     1      10.270  -0.690  22.747  0.00  0.00    +0.192 C 
ATOM      3  O   UNL     1      10.585  -1.825  22.412  0.00  0.00    -0.290 OA
ENDROOT
BRANCH   2   4
ATOM      4  C   UNL     1       9.691   0.232  21.700  0.00  0.00    +0.296 C 
ATOM      5  O   UNL     1       9.890   1.435  21.736  0.00  0.00    -0.293 OA
ENDBRANCH   2   4
TORSDOF 1
ENDMDL
