MODEL 1
REMARK VINA RESULT:      -3.3      0.000      0.000
REMARK  Name = 
REMARK  4 active torsions:
REMARK  status: ('A' for Active; 'I' for Inactive)
REMARK    1  A    between atoms: N_1  and  O_2
REMARK    2  A    between atoms: O_2  and  C_3
REMARK    3  A    between atoms: C_3  and  C_4
REMARK    4  A    between atoms: C_4  and  O_5
REMARK                            x       y       z     vdW  Elec       q    Type
REMARK                         _______ _______ _______ _____ _____    ______ ____
ROOT
ATOM      1  C   UNL     1       7.964  -5.165  25.151  0.00  0.00    +0.305 C 
ENDROOT
BRANCH   1   2
ATOM      2  C   UNL     1       8.252  -4.852  26.608  0.00  0.00    +0.333 C 
ATOM      3  O   UNL     1       8.702  -3.783  26.998  0.00  0.00    -0.248 OA
BRANCH   2   4
ATOM      4  O   UNL     1       7.959  -5.864  27.460  0.00  0.00    -0.479 OA
ATOM      5  H   UNL     1       8.431  -6.683  27.204  0.00  0.00    +0.295 HD
ENDBRANCH   2   4
ENDBRANCH   1   2
BRANCH   1   6
ATOM      6  O   UNL     1       9.195  -5.263  24.424  0.00  0.00    -0.291 OA
BRANCH   6   7
ATOM      7  N   UNL     1      10.265  -5.560  25.367  0.00  0.00    -0.214 NA
ATOM      8  H   UNL     1      10.782  -6.299  24.883  0.00  0.00    +0.150 HD
ATOM      9  H   UNL     1      10.851  -4.723  25.298  0.00  0.00    +0.150 HD
ENDBRANCH   6   7
ENDBRANCH   1   6
TORSDOF 4
ENDMDL
MODEL 2
REMARK VINA RESULT:      -3.2      1.678      2.751
REMARK  Name = 
REMARK  4 active torsions:
REMARK  status: ('A' for Active; 'I' for Inactive)
REMARK    1  A    between atoms: N_1  and  O_2
REMARK    2  A    between atoms: O_2  and  C_3
REMARK    3  A    between atoms: C_3  and  C_4
REMARK    4  A    between atoms: C_4  and  O_5
REMARK                            x       y       z     vdW  Elec       q    Type
REMARK                         _______ _______ _______ _____ _____    ______ ____
ROOT
ATOM      1  C   UNL     1       8.844  -4.018  26.403  0.00  0.00    +0.305 C 
ENDROOT
BRANCH   1   2
ATOM      2  C   UNL     1       9.147  -5.023  25.305  0.00  0.00    +0.333 C 
ATOM      3  O   UNL     1       8.386  -5.267  24.378  0.00  0.00    -0.248 OA
BRANCH   2   4
ATOM      4  O   UNL     1      10.350  -5.633  25.430  0.00  0.00    -0.479 OA
ATOM      5  H   UNL     1      10.932  -5.135  26.041  0.00  0.00    +0.295 HD
ENDBRANCH   2   4
ENDBRANCH   1   2
BRANCH   1   6
ATOM      6  O   UNL     1       7.755  -4.491  27.204  0.00  0.00    -0.291 OA
BRANCH   6   7
ATOM      7  N   UNL     1       7.895  -5.931  27.373  0.00  0.00    -0.214 NA
ATOM      8  H   UNL     1       7.555  -6.072  28.327  0.00  0.00    +0.150 HD
ATOM      9  H   UNL     1       7.159  -6.292  26.760  0.00  0.00    +0.150 HD
ENDBRANCH   6   7
ENDBRANCH   1   6
TORSDOF 4
ENDMDL
MODEL 3
REMARK VINA RESULT:      -2.9      1.920      2.516
REMARK  Name = 
REMARK  4 active torsions:
REMARK  status: ('A' for Active; 'I' for Inactive)
REMARK    1  A    between atoms: N_1  and  O_2
REMARK    2  A    between atoms: O_2  and  C_3
REMARK    3  A    between atoms: C_3  and  C_4
REMARK    4  A    between atoms: C_4  and  O_5
REMARK                            x       y       z     vdW  Elec       q    Type
REMARK                         _______ _______ _______ _____ _____    ______ ____
ROOT
ATOM      1  C   UNL     1       8.410  -4.596  24.247  0.00  0.00    +0.305 C 
ENDROOT
BRANCH   1   2
ATOM      2  C   UNL     1       9.139  -3.326  24.647  0.00  0.00    +0.333 C 
ATOM      3  O   UNL     1       8.836  -2.644  25.616  0.00  0.00    -0.248 OA
BRANCH   2   4
ATOM      4  O   UNL     1      10.178  -3.006  23.837  0.00  0.00    -0.479 OA
ATOM      5  H   UNL     1      11.033  -3.182  24.280  0.00  0.00    +0.295 HD
ENDBRANCH   2   4
ENDBRANCH   1   2
BRANCH   1   6
ATOM      6  O   UNL     1       9.303  -5.713  24.327  0.00  0.00    -0.291 OA
BRANCH   6   7
ATOM      7  N   UNL     1      10.242  -5.477  25.415  0.00  0.00    -0.214 NA
ATOM      8  H   UNL     1      10.885  -6.267  25.322  0.00  0.00    +0.150 HD
ATOM      9  H   UNL     1      10.759  -4.659  25.080  0.00  0.00    +0.150 HD
ENDBRANCH   6   7
ENDBRANCH   1   6
TORSDOF 4
ENDMDL
MODEL 4
REMARK VINA RESULT:      -2.8      6.296      6.915
REMARK  Name = 
REMARK  4 active torsions:
REMARK  status: ('A' for Active; 'I' for Inactive)
REMARK    1  A    between atoms: N_1  and  O_2
REMARK    2  A    between atoms: O_2  and  C_3
REMARK    3  A    between atoms: C_3  and  C_4
REMARK    4  A    between atoms: C_4  and  O_5
REMARK                            x       y       z     vdW  Elec       q    Type
REMARK                         _______ _______ _______ _____ _____    ______ ____
ROOT
ATOM      1  C   UNL     1      10.124   0.417  22.823  0.00  0.00    +0.305 C 
ENDROOT
BRANCH   1   2
ATOM      2  C   UNL     1       9.404  -0.795  22.260  0.00  0.00    +0.333 C 
ATOM      3  O   UNL     1       8.261  -1.109  22.565  0.00  0.00    -0.248 OA
BRANCH   2   4
ATOM      4  O   UNL     1      10.134  -1.510  21.371  0.00  0.00    -0.479 OA
ATOM      5  H   UNL     1      10.372  -0.962  20.594  0.00  0.00    +0.295 HD
ENDBRANCH   2   4
ENDBRANCH   1   2
BRANCH   1   6
ATOM      6  O   UNL     1      10.110   1.478  21.861  0.00  0.00    -0.291 OA
BRANCH   6   7
ATOM      7  N   UNL     1       8.895   1.365  21.065  0.00  0.00    -0.214 NA
ATOM      8  H   UNL     1       8.742   0.354  21.047  0.00  0.00    +0.150 HD
ATOM      9  H   UNL     1       8.185   1.741  21.700  0.00  0.00    +0.150 HD
ENDBRANCH   6   7
ENDBRANCH   1   6
TORSDOF 4
ENDMDL
MODEL 5
REMARK VINA RESULT:      -2.8      6.317      6.886
REMARK  Name = 
REMARK  4 active torsions:
REMARK  status: ('A' for Active; 'I' for Inactive)
REMARK    1  A    between atoms: N_1  and  O_2
REMARK    2  A    between atoms: O_2  and  C_3
REMARK    3  A    between atoms: C_3  and  C_4
REMARK    4  A    between atoms: C_4  and  O_5
REMARK                            x       y       z     vdW  Elec       q    Type
REMARK                         _______ _______ _______ _____ _____    ______ ____
ROOT
ATOM      1  C   UNL     1       8.466   0.152  22.302  0.00  0.00    +0.305 C 
ENDROOT
BRANCH   1   2
ATOM      2  C   UNL     1       9.718   1.003  22.422  0.00  0.00    +0.333 C 
ATOM      3  O   UNL     1      10.527   0.896  23.334  0.00  0.00    -0.248 OA
BRANCH   2   4
ATOM      4  O   UNL     1       9.876   1.900  21.419  0.00  0.00    -0.479 OA
ATOM      5  H   UNL     1       9.839   2.817  21.762  0.00  0.00    +0.295 HD
ENDBRANCH   2   4
ENDBRANCH   1   2
BRANCH   1   6
ATOM      6  O   UNL     1       8.827  -1.232  22.218  0.00  0.00    -0.291 OA
BRANCH   6   7
ATOM      7  N   UNL     1      10.028  -1.347  21.403  0.00  0.00    -0.214 NA
ATOM      8  H   UNL     1      10.665  -0.690  21.860  0.00  0.00    +0.150 HD
ATOM      9  H   UNL     1      10.369  -2.280  21.650  0.00  0.00    +0.150 HD
ENDBRANCH   6   7
ENDBRANCH   1   6
TORSDOF 4
ENDMDL
MODEL 6
REMARK VINA RESULT:      -2.8      1.595      2.963
REMARK  Name = 
REMARK  4 active torsions:
REMARK  status: ('A' for Active; 'I' for Inactive)
REMARK    1  A    between atoms: N_1  and  O_2
REMARK    2  A    between atoms: O_2  and  C_3
REMARK    3  A    between atoms: C_3  and  C_4
REMARK    4  A    between atoms: C_4  and  O_5
REMARK                            x       y       z     vdW  Elec       q    Type
REMARK                         _______ _______ _______ _____ _____    ______ ____
ROOT
ATOM      1  C   UNL     1       8.751  -3.566  25.839  0.00  0.00    +0.305 C 
ENDROOT
BRANCH   1   2
ATOM      2  C   UNL     1       9.086  -3.793  24.375  0.00  0.00    +0.333 C 
ATOM      3  O   UNL     1       8.449  -4.536  23.640  0.00  0.00    -0.248 OA
BRANCH   2   4
ATOM      4  O   UNL     1      10.158  -3.090  23.937  0.00  0.00    -0.479 OA
ATOM      5  H   UNL     1      10.456  -2.450  24.616  0.00  0.00    +0.295 HD
ENDBRANCH   2   4
ENDBRANCH   1   2
BRANCH   1   6
ATOM      6  O   UNL     1       9.190  -4.687  26.616  0.00  0.00    -0.291 OA
BRANCH   6   7
ATOM      7  N   UNL     1      10.150  -5.447  25.828  0.00  0.00    -0.214 NA
ATOM      8  H   UNL     1       9.588  -6.240  25.507  0.00  0.00    +0.150 HD
ATOM      9  H   UNL     1      10.279  -4.849  25.007  0.00  0.00    +0.150 HD
ENDBRANCH   6   7
ENDBRANCH   1   6
TORSDOF 4
ENDMDL
MODEL 7
REMARK VINA RESULT:      -2.7     10.293     10.796
REMARK  Name = 
REMARK  4 active torsions:
REMARK  status: ('A' for Active; 'I' for Inactive)
REMARK    1  A    between atoms: N_1  and  O_2
REMARK    2  A    between atoms: O_2  and  C_3
REMARK    3  A    between atoms: C_3  and  C_4
REMARK    4  A    between atoms: C_4  and  O_5
REMARK                            x       y       z     vdW  Elec       q    Type
REMARK                         _______ _______ _______ _____ _____    ______ ____
ROOT
ATOM      1  C   UNL     1      11.683   5.716  23.438  0.00  0.00    +0.305 C 
ENDROOT
BRANCH   1   2
ATOM      2  C   UNL     1      10.938   4.393  23.430  0.00  0.00    +0.333 C 
ATOM      3  O   UNL     1      11.488   3.303  23.514  0.00  0.00    -0.248 OA
BRANCH   2   4
ATOM      4  O   UNL     1       9.592   4.516  23.330  0.00  0.00    -0.479 OA
ATOM      5  H   UNL     1       9.158   3.639  23.371  0.00  0.00    +0.295 HD
ENDBRANCH   2   4
ENDBRANCH   1   2
BRANCH   1   6
ATOM      6  O   UNL     1      12.937   5.562  24.114  0.00  0.00    -0.291 OA
BRANCH   6   7
ATOM      7  N   UNL     1      13.932   5.124  23.145  0.00  0.00    -0.214 NA
ATOM      8  H   UNL     1      13.365   4.606  22.470  0.00  0.00    +0.150 HD
ATOM      9  H   UNL     1      14.182   6.002  22.680  0.00  0.00    +0.150 HD
ENDBRANCH   6   7
ENDBRANCH   1   6
TORSDOF 4
ENDMDL
MODEL 8
REMARK VINA RESULT:      -2.7      6.889      7.637
REMARK  Name = 
REMARK  4 active torsions:
REMARK  status: ('A' for Active; 'I' for Inactive)
REMARK    1  A    between atoms: N_1  and  O_2
REMARK    2  A    between atoms: O_2  and  C_3
REMARK    3  A    between atoms: C_3  and  C_4
REMARK    4  A    between atoms: C_4  and  O_5
REMARK                            x       y       z     vdW  Elec       q    Type
REMARK                         _______ _______ _______ _____ _____    ______ ____
ROOT
ATOM      1  C   UNL     1       8.943   1.388  23.396  0.00  0.00    +0.305 C 
ENDROOT
BRANCH   1   2
ATOM      2  C   UNL     1       9.741   1.172  22.122  0.00  0.00    +0.333 C 
ATOM      3  O   UNL     1       9.876   0.083  21.581  0.00  0.00    -0.248 OA
BRANCH   2   4
ATOM      4  O   UNL     1      10.295   2.301  21.617  0.00  0.00    -0.479 OA
ATOM      5  H   UNL     1      10.673   2.854  22.332  0.00  0.00    +0.295 HD
ENDBRANCH   2   4
ENDBRANCH   1   2
BRANCH   1   6
ATOM      6  O   UNL     1       9.831   1.704  24.475  0.00  0.00    -0.291 OA
BRANCH   6   7
ATOM      7  N   UNL     1      11.038   0.902  24.330  0.00  0.00    -0.214 NA
ATOM      8  H   UNL     1      10.779   0.033  24.803  0.00  0.00    +0.150 HD
ATOM      9  H   UNL     1      11.034   0.685  23.330  0.00  0.00    +0.150 HD
ENDBRANCH   6   7
ENDBRANCH   1   6
TORSDOF 4
ENDMDL
MODEL 9
REMARK VINA RESULT:      -2.7      5.012      5.695
REMARK  Name = 
REMARK  4 active torsions:
REMARK  status: ('A' for Active; 'I' for Inactive)
REMARK    1  A    between atoms: N_1  and  O_2
REMARK    2  A    between atoms: O_2  and  C_3
REMARK    3  A    between atoms: C_3  and  C_4
REMARK    4  A    between atoms: C_4  and  O_5
REMARK                            x       y       z     vdW  Elec       q    Type
REMARK                         _______ _______ _______ _____ _____    ______ ____
ROOT
ATOM      1  C   UNL     1       7.151  -4.955  22.067  0.00  0.00    +0.305 C 
ENDROOT
BRANCH   1   2
ATOM      2  C   UNL     1       6.070  -5.686  21.291  0.00  0.00    +0.333 C 
ATOM      3  O   UNL     1       5.984  -5.675  20.070  0.00  0.00    -0.248 OA
BRANCH   2   4
ATOM      4  O   UNL     1       5.197  -6.370  22.068  0.00  0.00    -0.479 OA
ATOM      5  H   UNL     1       5.265  -7.334  21.905  0.00  0.00    +0.295 HD
ENDBRANCH   2   4
ENDBRANCH   1   2
BRANCH   1   6
ATOM      6  O   UNL     1       6.904  -3.544  22.031  0.00  0.00    -0.291 OA
BRANCH   6   7
ATOM      7  N   UNL     1       5.489  -3.330  21.761  0.00  0.00    -0.214 NA
ATOM      8  H   UNL     1       5.338  -3.903  20.927  0.00  0.00    +0.150 HD
ATOM      9  H   UNL     1       5.043  -3.838  22.530  0.00  0.00    +0.150 HD
ENDBRANCH   6   7
ENDBRANCH   1   6
TORSDOF 4
ENDMDL
