MODEL 1
REMARK VINA RESULT:      -6.9      0.000      0.000
REMARK  Name = 
REMARK  21 active torsions:
REMARK  status: ('A' for Active; 'I' for Inactive)
REMARK    1  A    between atoms: C_1  and  N_2
REMARK    2  A    between atoms: C_3  and  C_5
REMARK    3  A    between atoms: C_5  and  N_7
REMARK    4  A    between atoms: C_5  and  C_51
REMARK    5  A    between atoms: C_8  and  C_10
REMARK    6  A    between atoms: C_10  and  O_12
REMARK    7  A    between atoms: C_10  and  C_20
REMARK    8  A    between atoms: O_12  and  C_13
REMARK    9  A    between atoms: C_13  and  C_14
REMARK   10  A    between atoms: C_20  and  O_22
REMARK   11  A    between atoms: C_20  and  C_23
REMARK   12  A    between atoms: C_23  and  O_25
REMARK   13  A    between atoms: C_23  and  C_26
REMARK   14  A    between atoms: C_26  and  O_28
REMARK   15  A    between atoms: C_26  and  C_36
REMARK   16  A    between atoms: O_28  and  C_29
REMARK   17  A    between atoms: C_29  and  C_30
REMARK   18  A    between atoms: N_38  and  C_39
REMARK   19  A    between atoms: C_41  and  O_43
REMARK   20  A    between atoms: C_51  and  C_52
REMARK   21  A    between atoms: C_51  and  C_53
REMARK                            x       y       z     vdW  Elec       q    Type
REMARK                         _______ _______ _______ _____ _____    ______ ____
ROOT
ATOM      1  C   UNL     1       5.411  -1.752  27.115  0.00  0.00    +0.184 C 
ENDROOT
BRANCH   1   2
ATOM      2  O   UNL     1       6.403  -2.794  27.145  0.00  0.00    -0.386 OA
ATOM      3  H   UNL     1       7.273  -2.390  26.962  0.00  0.00    +0.210 HD
ENDBRANCH   1   2
BRANCH   1   4
ATOM      4  C   UNL     1       4.430  -2.013  25.908  0.00  0.00    +0.184 C 
BRANCH   4   5
ATOM      5  O   UNL     1       5.107  -1.746  24.654  0.00  0.00    -0.386 OA
ATOM      6  H   UNL     1       5.271  -0.792  24.564  0.00  0.00    +0.210 HD
ENDBRANCH   4   5
BRANCH   4   7
ATOM      7  C   UNL     1       3.702  -3.387  25.740  0.00  0.00    +0.235 C 
BRANCH   7  10
ATOM      8  N   UNL     1       5.657  -4.592  24.593  0.00  0.00    -0.302 N 
ATOM      9  H   UNL     1       6.100  -4.259  25.450  0.00  0.00    +0.150 HD
ATOM     10  C   UNL     1       4.324  -4.222  24.474  0.00  0.00    +0.245 C 
ATOM     11  O   UNL     1       3.672  -4.497  23.471  0.00  0.00    -0.273 OA
BRANCH   8  12
ATOM     12  C   UNL     1       6.655  -5.261  23.676  0.00  0.00    +0.161 C 
BRANCH  12  16
ATOM     13  C   UNL     1       9.034  -4.545  26.575  0.00  0.00    +0.128 C 
ATOM     14  N   UNL     1       7.883  -4.770  25.743  0.00  0.00    -0.317 N 
ATOM     15  H   UNL     1       6.977  -4.433  26.049  0.00  0.00    +0.148 HD
ATOM     16  C   UNL     1       7.980  -5.277  24.470  0.00  0.00    +0.233 C 
ATOM     17  O   UNL     1       9.045  -5.667  23.971  0.00  0.00    -0.274 OA
ENDBRANCH  12  16
BRANCH  12  18
ATOM     18  C   UNL     1       6.925  -4.765  22.215  0.00  0.00    +0.012 C 
ATOM     19  C   UNL     1       6.449  -3.334  21.950  0.00  0.00    +0.009 C 
ATOM     20  C   UNL     1       6.219  -5.651  21.147  0.00  0.00    +0.009 C 
ENDBRANCH  12  18
ENDBRANCH   8  12
ENDBRANCH   7  10
BRANCH   7  21
ATOM     21  O   UNL     1       3.419  -4.137  26.953  0.00  0.00    -0.360 OA
BRANCH  21  22
ATOM     22  C   UNL     1       2.414  -5.176  27.095  0.00  0.00    +0.196 C 
BRANCH  22  23
ATOM     23  C   UNL     1       1.949  -6.128  25.971  0.00  0.00    -0.022 A 
ATOM     24  C   UNL     1       2.671  -7.335  25.750  0.00  0.00    +0.006 A 
ATOM     25  C   UNL     1       2.304  -8.265  24.758  0.00  0.00    +0.000 A 
ATOM     26  C   UNL     1       1.200  -8.022  23.953  0.00  0.00    +0.000 A 
ATOM     27  C   UNL     1       0.485  -6.843  24.129  0.00  0.00    +0.000 A 
ATOM     28  C   UNL     1       0.863  -5.902  25.114  0.00  0.00    +0.006 A 
ENDBRANCH  22  23
ENDBRANCH  21  22
ENDBRANCH   7  21
ENDBRANCH   4   7
ENDBRANCH   1   4
BRANCH   1  29
ATOM     29  C   UNL     1       6.216  -0.402  26.995  0.00  0.00    +0.235 C 
BRANCH  29  30
ATOM     30  C   UNL     1       7.665  -0.766  26.593  0.00  0.00    +0.245 C 
ATOM     31  N   UNL     1       7.861  -1.014  25.243  0.00  0.00    -0.304 N 
ATOM     32  H   UNL     1       7.094  -0.949  24.586  0.00  0.00    +0.149 HD
ATOM     33  O   UNL     1       8.604  -0.729  27.383  0.00  0.00    -0.273 OA
BRANCH  31  34
ATOM     34  C   UNL     1       9.205  -1.060  24.680  0.00  0.00    +0.132 C 
ATOM     35  C   UNL     1       9.577   0.263  24.071  0.00  0.00    -0.022 A 
ATOM     36  C   UNL     1       9.805   0.156  22.703  0.00  0.00    -0.040 A 
ATOM     37  C   UNL     1      10.099   1.274  21.933  0.00  0.00    +0.004 A 
ATOM     38  C   UNL     1      10.190   2.517  22.560  0.00  0.00    +0.000 A 
ATOM     39  C   UNL     1       9.998   2.627  23.941  0.00  0.00    +0.000 A 
ATOM     40  C   UNL     1       9.656  -1.248  22.215  0.00  0.00    +0.069 C 
ATOM     41  C   UNL     1       9.682   1.498  24.701  0.00  0.00    +0.006 A 
ATOM     42  C   UNL     1       9.332  -2.055  23.488  0.00  0.00    +0.143 C 
BRANCH  42  43
ATOM     43  O   UNL     1      10.361  -3.029  23.714  0.00  0.00    -0.389 OA
ATOM     44  H   UNL     1      10.733  -3.286  22.854  0.00  0.00    +0.210 HD
ENDBRANCH  42  43
ENDBRANCH  31  34
ENDBRANCH  29  30
BRANCH  29  45
ATOM     45  O   UNL     1       5.700   0.482  25.977  0.00  0.00    -0.360 OA
BRANCH  45  46
ATOM     46  C   UNL     1       6.051   1.873  26.054  0.00  0.00    +0.196 C 
BRANCH  46  47
ATOM     47  C   UNL     1       6.243   2.480  24.663  0.00  0.00    -0.022 A 
ATOM     48  C   UNL     1       6.244   1.680  23.502  0.00  0.00    +0.006 A 
ATOM     49  C   UNL     1       6.508   2.234  22.237  0.00  0.00    +0.000 A 
ATOM     50  C   UNL     1       6.773   3.597  22.109  0.00  0.00    +0.000 A 
ATOM     51  C   UNL     1       6.765   4.402  23.242  0.00  0.00    +0.000 A 
ATOM     52  C   UNL     1       6.508   3.848  24.503  0.00  0.00    +0.006 A 
ENDBRANCH  46  47
ENDBRANCH  45  46
ENDBRANCH  29  45
ENDBRANCH   1  29
TORSDOF 18
ENDMDL
MODEL 2
REMARK VINA RESULT:      -6.1      2.559      9.401
REMARK  Name = 
REMARK  21 active torsions:
REMARK  status: ('A' for Active; 'I' for Inactive)
REMARK    1  A    between atoms: C_1  and  N_2
REMARK    2  A    between atoms: C_3  and  C_5
REMARK    3  A    between atoms: C_5  and  N_7
REMARK    4  A    between atoms: C_5  and  C_51
REMARK    5  A    between atoms: C_8  and  C_10
REMARK    6  A    between atoms: C_10  and  O_12
REMARK    7  A    between atoms: C_10  and  C_20
REMARK    8  A    between atoms: O_12  and  C_13
REMARK    9  A    between atoms: C_13  and  C_14
REMARK   10  A    between atoms: C_20  and  O_22
REMARK   11  A    between atoms: C_20  and  C_23
REMARK   12  A    between atoms: C_23  and  O_25
REMARK   13  A    between atoms: C_23  and  C_26
REMARK   14  A    between atoms: C_26  and  O_28
REMARK   15  A    between atoms: C_26  and  C_36
REMARK   16  A    between atoms: O_28  and  C_29
REMARK   17  A    between atoms: C_29  and  C_30
REMARK   18  A    between atoms: N_38  and  C_39
REMARK   19  A    between atoms: C_41  and  O_43
REMARK   20  A    between atoms: C_51  and  C_52
REMARK   21  A    between atoms: C_51  and  C_53
REMARK                            x       y       z     vdW  Elec       q    Type
REMARK                         _______ _______ _______ _____ _____    ______ ____
ROOT
ATOM      1  C   UNL     1       9.319  -1.359  23.547  0.00  0.00    +0.184 C 
ENDROOT
BRANCH   1   2
ATOM      2  O   UNL     1       9.483  -0.594  24.755  0.00  0.00    -0.386 OA
ATOM      3  H   UNL     1       9.509  -1.216  25.507  0.00  0.00    +0.210 HD
ENDBRANCH   1   2
BRANCH   1   4
ATOM      4  C   UNL     1       8.326  -0.595  22.588  0.00  0.00    +0.184 C 
BRANCH   4   5
ATOM      5  O   UNL     1       6.957  -0.848  22.992  0.00  0.00    -0.386 OA
ATOM      6  H   UNL     1       6.941  -1.214  23.892  0.00  0.00    +0.210 HD
ENDBRANCH   4   5
BRANCH   4   7
ATOM      7  C   UNL     1       8.448   0.947  22.360  0.00  0.00    +0.235 C 
BRANCH   7  10
ATOM      8  N   UNL     1       6.757   2.838  22.753  0.00  0.00    -0.302 N 
ATOM      9  H   UNL     1       7.032   3.011  21.786  0.00  0.00    +0.150 HD
ATOM     10  C   UNL     1       7.415   1.763  23.337  0.00  0.00    +0.245 C 
ATOM     11  O   UNL     1       7.235   1.466  24.513  0.00  0.00    -0.273 OA
BRANCH   8  12
ATOM     12  C   UNL     1       5.822   3.908  23.265  0.00  0.00    +0.161 C 
BRANCH  12  16
ATOM     13  C   UNL     1       2.472   3.618  21.456  0.00  0.00    +0.128 C 
ATOM     14  N   UNL     1       3.842   3.863  21.815  0.00  0.00    -0.317 N 
ATOM     15  H   UNL     1       4.388   4.520  21.267  0.00  0.00    +0.148 HD
ATOM     16  C   UNL     1       4.402   3.374  22.970  0.00  0.00    +0.233 C 
ATOM     17  O   UNL     1       3.809   2.610  23.744  0.00  0.00    -0.274 OA
ENDBRANCH  12  16
BRANCH  12  18
ATOM     18  C   UNL     1       5.923   5.405  22.814  0.00  0.00    +0.012 C 
ATOM     19  C   UNL     1       7.137   5.704  21.931  0.00  0.00    +0.009 C 
ATOM     20  C   UNL     1       6.024   6.383  24.021  0.00  0.00    +0.009 C 
ENDBRANCH  12  18
ENDBRANCH   8  12
ENDBRANCH   7  10
BRANCH   7  21
ATOM     21  O   UNL     1       9.790   1.489  22.215  0.00  0.00    -0.360 OA
BRANCH  21  22
ATOM     22  C   UNL     1      10.597   2.056  23.280  0.00  0.00    +0.196 C 
BRANCH  22  23
ATOM     23  C   UNL     1      10.761   3.564  23.572  0.00  0.00    -0.022 A 
ATOM     24  C   UNL     1       9.668   4.276  24.144  0.00  0.00    +0.006 A 
ATOM     25  C   UNL     1       9.740   5.647  24.456  0.00  0.00    +0.000 A 
ATOM     26  C   UNL     1      10.907   6.355  24.211  0.00  0.00    +0.000 A 
ATOM     27  C   UNL     1      11.987   5.695  23.635  0.00  0.00    +0.000 A 
ATOM     28  C   UNL     1      11.909   4.322  23.306  0.00  0.00    +0.006 A 
ENDBRANCH  22  23
ENDBRANCH  21  22
ENDBRANCH   7  21
ENDBRANCH   4   7
ENDBRANCH   1   4
BRANCH   1  29
ATOM     29  C   UNL     1       8.792  -2.772  24.007  0.00  0.00    +0.235 C 
BRANCH  29  30
ATOM     30  C   UNL     1       8.273  -2.618  25.456  0.00  0.00    +0.245 C 
ATOM     31  N   UNL     1       6.937  -2.266  25.573  0.00  0.00    -0.304 N 
ATOM     32  H   UNL     1       6.362  -2.130  24.752  0.00  0.00    +0.149 HD
ATOM     33  O   UNL     1       8.954  -2.896  26.440  0.00  0.00    -0.273 OA
BRANCH  31  34
ATOM     34  C   UNL     1       6.242  -2.390  26.848  0.00  0.00    +0.132 C 
ATOM     35  C   UNL     1       5.615  -3.749  26.988  0.00  0.00    -0.022 A 
ATOM     36  C   UNL     1       4.229  -3.671  27.087  0.00  0.00    -0.040 A 
ATOM     37  C   UNL     1       3.448  -4.817  27.159  0.00  0.00    +0.004 A 
ATOM     38  C   UNL     1       4.077  -6.061  27.157  0.00  0.00    +0.000 A 
ATOM     39  C   UNL     1       5.472  -6.147  27.092  0.00  0.00    +0.000 A 
ATOM     40  C   UNL     1       3.742  -2.258  27.068  0.00  0.00    +0.069 C 
ATOM     41  C   UNL     1       6.246  -4.988  26.999  0.00  0.00    +0.006 A 
ATOM     42  C   UNL     1       5.031  -1.418  26.978  0.00  0.00    +0.143 C 
BRANCH  42  43
ATOM     43  O   UNL     1       5.141  -0.582  28.139  0.00  0.00    -0.389 OA
ATOM     44  H   UNL     1       4.384   0.028  28.149  0.00  0.00    +0.210 HD
ENDBRANCH  42  43
ENDBRANCH  31  34
ENDBRANCH  29  30
BRANCH  29  45
ATOM     45  O   UNL     1       7.693  -3.259  23.208  0.00  0.00    -0.360 OA
BRANCH  45  46
ATOM     46  C   UNL     1       7.444  -4.674  23.201  0.00  0.00    +0.196 C 
BRANCH  46  47
ATOM     47  C   UNL     1       5.947  -4.978  23.282  0.00  0.00    -0.022 A 
ATOM     48  C   UNL     1       4.983  -3.949  23.299  0.00  0.00    +0.006 A 
ATOM     49  C   UNL     1       3.616  -4.235  23.462  0.00  0.00    +0.000 A 
ATOM     50  C   UNL     1       3.187  -5.553  23.607  0.00  0.00    +0.000 A 
ATOM     51  C   UNL     1       4.122  -6.581  23.581  0.00  0.00    +0.000 A 
ATOM     52  C   UNL     1       5.485  -6.295  23.425  0.00  0.00    +0.006 A 
ENDBRANCH  46  47
ENDBRANCH  45  46
ENDBRANCH  29  45
ENDBRANCH   1  29
TORSDOF 18
ENDMDL
MODEL 3
REMARK VINA RESULT:      -6.0      1.963      5.604
REMARK  Name = 
REMARK  21 active torsions:
REMARK  status: ('A' for Active; 'I' for Inactive)
REMARK    1  A    between atoms: C_1  and  N_2
REMARK    2  A    between atoms: C_3  and  C_5
REMARK    3  A    between atoms: C_5  and  N_7
REMARK    4  A    between atoms: C_5  and  C_51
REMARK    5  A    between atoms: C_8  and  C_10
REMARK    6  A    between atoms: C_10  and  O_12
REMARK    7  A    between atoms: C_10  and  C_20
REMARK    8  A    between atoms: O_12  and  C_13
REMARK    9  A    between atoms: C_13  and  C_14
REMARK   10  A    between atoms: C_20  and  O_22
REMARK   11  A    between atoms: C_20  and  C_23
REMARK   12  A    between atoms: C_23  and  O_25
REMARK   13  A    between atoms: C_23  and  C_26
REMARK   14  A    between atoms: C_26  and  O_28
REMARK   15  A    between atoms: C_26  and  C_36
REMARK   16  A    between atoms: O_28  and  C_29
REMARK   17  A    between atoms: C_29  and  C_30
REMARK   18  A    between atoms: N_38  and  C_39
REMARK   19  A    between atoms: C_41  and  O_43
REMARK   20  A    between atoms: C_51  and  C_52
REMARK   21  A    between atoms: C_51  and  C_53
REMARK                            x       y       z     vdW  Elec       q    Type
REMARK                         _______ _______ _______ _____ _____    ______ ____
ROOT
ATOM      1  C   UNL     1       4.583   0.341  26.687  0.00  0.00    +0.184 C 
ENDROOT
BRANCH   1   2
ATOM      2  O   UNL     1       5.552   0.870  27.609  0.00  0.00    -0.386 OA
ATOM      3  H   UNL     1       6.192   0.162  27.817  0.00  0.00    +0.210 HD
ENDBRANCH   1   2
BRANCH   1   4
ATOM      4  C   UNL     1       4.768  -1.223  26.591  0.00  0.00    +0.184 C 
BRANCH   4   5
ATOM      5  O   UNL     1       4.563  -1.663  25.226  0.00  0.00    -0.386 OA
ATOM      6  H   UNL     1       5.385  -1.557  24.718  0.00  0.00    +0.210 HD
ENDBRANCH   4   5
BRANCH   4   7
ATOM      7  C   UNL     1       6.079  -1.914  27.092  0.00  0.00    +0.235 C 
BRANCH   7  10
ATOM      8  N   UNL     1       5.992  -4.032  25.643  0.00  0.00    -0.302 N 
ATOM      9  H   UNL     1       6.035  -3.302  24.931  0.00  0.00    +0.150 HD
ATOM     10  C   UNL     1       5.971  -3.543  26.943  0.00  0.00    +0.245 C 
ATOM     11  O   UNL     1       5.861  -4.295  27.906  0.00  0.00    -0.273 OA
BRANCH   8  12
ATOM     12  C   UNL     1       5.825  -5.400  25.026  0.00  0.00    +0.161 C 
BRANCH  12  16
ATOM     13  C   UNL     1       6.312  -5.362  21.240  0.00  0.00    +0.128 C 
ATOM     14  N   UNL     1       5.792  -5.263  22.576  0.00  0.00    -0.317 N 
ATOM     15  H   UNL     1       4.788  -5.266  22.719  0.00  0.00    +0.148 HD
ATOM     16  C   UNL     1       6.595  -5.333  23.688  0.00  0.00    +0.233 C 
ATOM     17  O   UNL     1       7.832  -5.392  23.633  0.00  0.00    -0.274 OA
ENDBRANCH  12  16
BRANCH  12  18
ATOM     18  C   UNL     1       4.422  -6.056  24.791  0.00  0.00    +0.012 C 
ATOM     19  C   UNL     1       3.262  -5.057  24.808  0.00  0.00    +0.009 C 
ATOM     20  C   UNL     1       4.078  -7.125  25.869  0.00  0.00    +0.009 C 
ENDBRANCH  12  18
ENDBRANCH   8  12
ENDBRANCH   7  10
BRANCH   7  21
ATOM     21  O   UNL     1       7.339  -1.297  26.708  0.00  0.00    -0.360 OA
BRANCH  21  22
ATOM     22  C   UNL     1       8.447  -1.965  26.048  0.00  0.00    +0.196 C 
BRANCH  22  23
ATOM     23  C   UNL     1       8.826  -1.806  24.559  0.00  0.00    -0.022 A 
ATOM     24  C   UNL     1       7.825  -2.013  23.568  0.00  0.00    +0.006 A 
ATOM     25  C   UNL     1       8.083  -1.872  22.191  0.00  0.00    +0.000 A 
ATOM     26  C   UNL     1       9.351  -1.516  21.755  0.00  0.00    +0.000 A 
ATOM     27  C   UNL     1      10.357  -1.326  22.695  0.00  0.00    +0.000 A 
ATOM     28  C   UNL     1      10.102  -1.484  24.077  0.00  0.00    +0.006 A 
ENDBRANCH  22  23
ENDBRANCH  21  22
ENDBRANCH   7  21
ENDBRANCH   4   7
ENDBRANCH   1   4
BRANCH   1  29
ATOM     29  C   UNL     1       4.838   1.091  25.324  0.00  0.00    +0.235 C 
BRANCH  29  30
ATOM     30  C   UNL     1       4.773   2.609  25.617  0.00  0.00    +0.245 C 
ATOM     31  N   UNL     1       5.973   3.193  25.991  0.00  0.00    -0.304 N 
ATOM     32  H   UNL     1       6.820   2.643  26.056  0.00  0.00    +0.149 HD
ATOM     33  O   UNL     1       3.763   3.280  25.425  0.00  0.00    -0.273 OA
BRANCH  31  34
ATOM     34  C   UNL     1       6.129   4.642  25.994  0.00  0.00    +0.132 C 
ATOM     35  C   UNL     1       6.785   5.113  24.726  0.00  0.00    -0.022 A 
ATOM     36  C   UNL     1       8.009   5.727  24.975  0.00  0.00    -0.040 A 
ATOM     37  C   UNL     1       8.812   6.178  23.935  0.00  0.00    +0.004 A 
ATOM     38  C   UNL     1       8.360   6.031  22.624  0.00  0.00    +0.000 A 
ATOM     39  C   UNL     1       7.115   5.447  22.368  0.00  0.00    +0.000 A 
ATOM     40  C   UNL     1       8.323   5.787  26.435  0.00  0.00    +0.069 C 
ATOM     41  C   UNL     1       6.326   4.978  23.421  0.00  0.00    +0.006 A 
ATOM     42  C   UNL     1       7.092   5.148  27.109  0.00  0.00    +0.143 C 
BRANCH  42  43
ATOM     43  O   UNL     1       6.459   6.112  27.962  0.00  0.00    -0.389 OA
ATOM     44  H   UNL     1       6.641   6.999  27.610  0.00  0.00    +0.210 HD
ENDBRANCH  42  43
ENDBRANCH  31  34
ENDBRANCH  29  30
BRANCH  29  45
ATOM     45  O   UNL     1       6.139   0.821  24.758  0.00  0.00    -0.360 OA
BRANCH  45  46
ATOM     46  C   UNL     1       6.394   1.273  23.418  0.00  0.00    +0.196 C 
BRANCH  46  47
ATOM     47  C   UNL     1       7.842   1.738  23.252  0.00  0.00    -0.022 A 
ATOM     48  C   UNL     1       8.427   1.892  21.978  0.00  0.00    +0.006 A 
ATOM     49  C   UNL     1       9.783   2.235  21.837  0.00  0.00    +0.000 A 
ATOM     50  C   UNL     1      10.578   2.433  22.965  0.00  0.00    +0.000 A 
ATOM     51  C   UNL     1      10.015   2.296  24.228  0.00  0.00    +0.000 A 
ATOM     52  C   UNL     1       8.665   1.948  24.369  0.00  0.00    +0.006 A 
ENDBRANCH  46  47
ENDBRANCH  45  46
ENDBRANCH  29  45
ENDBRANCH   1  29
TORSDOF 18
ENDMDL
MODEL 4
REMARK VINA RESULT:      -5.8      2.461      6.337
REMARK  Name = 
REMARK  21 active torsions:
REMARK  status: ('A' for Active; 'I' for Inactive)
REMARK    1  A    between atoms: C_1  and  N_2
REMARK    2  A    between atoms: C_3  and  C_5
REMARK    3  A    between atoms: C_5  and  N_7
REMARK    4  A    between atoms: C_5  and  C_51
REMARK    5  A    between atoms: C_8  and  C_10
REMARK    6  A    between atoms: C_10  and  O_12
REMARK    7  A    between atoms: C_10  and  C_20
REMARK    8  A    between atoms: O_12  and  C_13
REMARK    9  A    between atoms: C_13  and  C_14
REMARK   10  A    between atoms: C_20  and  O_22
REMARK   11  A    between atoms: C_20  and  C_23
REMARK   12  A    between atoms: C_23  and  O_25
REMARK   13  A    between atoms: C_23  and  C_26
REMARK   14  A    between atoms: C_26  and  O_28
REMARK   15  A    between atoms: C_26  and  C_36
REMARK   16  A    between atoms: O_28  and  C_29
REMARK   17  A    between atoms: C_29  and  C_30
REMARK   18  A    between atoms: N_38  and  C_39
REMARK   19  A    between atoms: C_41  and  O_43
REMARK   20  A    between atoms: C_51  and  C_52
REMARK   21  A    between atoms: C_51  and  C_53
REMARK                            x       y       z     vdW  Elec       q    Type
REMARK                         _______ _______ _______ _____ _____    ______ ____
ROOT
ATOM      1  C   UNL     1       8.714  -0.052  25.427  0.00  0.00    +0.184 C 
ENDROOT
BRANCH   1   2
ATOM      2  O   UNL     1      10.133  -0.068  25.184  0.00  0.00    -0.386 OA
ATOM      3  H   UNL     1      10.530   0.689  25.657  0.00  0.00    +0.210 HD
ENDBRANCH   1   2
BRANCH   1   4
ATOM      4  C   UNL     1       8.410  -0.875  26.737  0.00  0.00    +0.184 C 
BRANCH   4   5
ATOM      5  O   UNL     1       9.132  -0.307  27.858  0.00  0.00    -0.386 OA
ATOM      6  H   UNL     1       9.325  -1.000  28.512  0.00  0.00    +0.210 HD
ENDBRANCH   4   5
BRANCH   4   7
ATOM      7  C   UNL     1       6.941  -1.107  27.223  0.00  0.00    +0.235 C 
BRANCH   7  10
ATOM      8  N   UNL     1       5.625   1.035  26.704  0.00  0.00    -0.302 N 
ATOM      9  H   UNL     1       5.699   0.613  25.777  0.00  0.00    +0.150 HD
ATOM     10  C   UNL     1       6.258   0.304  27.701  0.00  0.00    +0.245 C 
ATOM     11  O   UNL     1       6.307   0.711  28.857  0.00  0.00    -0.273 OA
BRANCH   8  12
ATOM     12  C   UNL     1       4.964   2.392  26.646  0.00  0.00    +0.161 C 
BRANCH  12  16
ATOM     13  C   UNL     1       2.660   3.612  23.857  0.00  0.00    +0.128 C 
ATOM     14  N   UNL     1       3.433   3.471  25.061  0.00  0.00    -0.317 N 
ATOM     15  H   UNL     1       3.188   4.025  25.874  0.00  0.00    +0.148 HD
ATOM     16  C   UNL     1       4.387   2.495  25.216  0.00  0.00    +0.233 C 
ATOM     17  O   UNL     1       4.726   1.723  24.308  0.00  0.00    -0.274 OA
ENDBRANCH  12  16
BRANCH  12  18
ATOM     18  C   UNL     1       5.721   3.716  27.003  0.00  0.00    +0.012 C 
ATOM     19  C   UNL     1       7.238   3.630  26.819  0.00  0.00    +0.009 C 
ATOM     20  C   UNL     1       5.496   4.149  28.481  0.00  0.00    +0.009 C 
ENDBRANCH  12  18
ENDBRANCH   8  12
ENDBRANCH   7  10
BRANCH   7  21
ATOM     21  O   UNL     1       6.117  -2.007  26.431  0.00  0.00    -0.360 OA
BRANCH  21  22
ATOM     22  C   UNL     1       6.017  -3.444  26.607  0.00  0.00    +0.196 C 
BRANCH  22  23
ATOM     23  C   UNL     1       5.211  -4.401  25.701  0.00  0.00    -0.022 A 
ATOM     24  C   UNL     1       5.397  -5.805  25.846  0.00  0.00    +0.006 A 
ATOM     25  C   UNL     1       4.691  -6.746  25.072  0.00  0.00    +0.000 A 
ATOM     26  C   UNL     1       3.771  -6.316  24.126  0.00  0.00    +0.000 A 
ATOM     27  C   UNL     1       3.580  -4.951  23.944  0.00  0.00    +0.000 A 
ATOM     28  C   UNL     1       4.301  -4.007  24.710  0.00  0.00    +0.006 A 
ENDBRANCH  22  23
ENDBRANCH  21  22
ENDBRANCH   7  21
ENDBRANCH   4   7
ENDBRANCH   1   4
BRANCH   1  29
ATOM     29  C   UNL     1       8.054  -0.660  24.131  0.00  0.00    +0.235 C 
BRANCH  29  30
ATOM     30  C   UNL     1       7.930   0.485  23.098  0.00  0.00    +0.245 C 
ATOM     31  N   UNL     1       7.779   1.754  23.635  0.00  0.00    -0.304 N 
ATOM     32  H   UNL     1       7.759   1.895  24.637  0.00  0.00    +0.149 HD
ATOM     33  O   UNL     1       8.069   0.310  21.891  0.00  0.00    -0.273 OA
BRANCH  31  34
ATOM     34  C   UNL     1       7.960   2.941  22.809  0.00  0.00    +0.132 C 
ATOM     35  C   UNL     1       9.259   3.626  23.133  0.00  0.00    -0.022 A 
ATOM     36  C   UNL     1       9.056   4.911  23.626  0.00  0.00    -0.040 A 
ATOM     37  C   UNL     1      10.122   5.696  24.049  0.00  0.00    +0.004 A 
ATOM     38  C   UNL     1      11.415   5.185  23.947  0.00  0.00    +0.000 A 
ATOM     39  C   UNL     1      11.630   3.907  23.419  0.00  0.00    +0.000 A 
ATOM     40  C   UNL     1       7.608   5.278  23.665  0.00  0.00    +0.069 C 
ATOM     41  C   UNL     1      10.548   3.119  23.017  0.00  0.00    +0.006 A 
ATOM     42  C   UNL     1       6.893   4.042  23.082  0.00  0.00    +0.143 C 
BRANCH  42  43
ATOM     43  O   UNL     1       6.193   4.413  21.886  0.00  0.00    -0.389 OA
ATOM     44  H   UNL     1       6.508   3.850  21.160  0.00  0.00    +0.210 HD
ENDBRANCH  42  43
ENDBRANCH  31  34
ENDBRANCH  29  30
BRANCH  29  45
ATOM     45  O   UNL     1       8.847  -1.702  23.521  0.00  0.00    -0.360 OA
BRANCH  45  46
ATOM     46  C   UNL     1       8.690  -3.041  24.017  0.00  0.00    +0.196 C 
BRANCH  46  47
ATOM     47  C   UNL     1       7.760  -3.863  23.122  0.00  0.00    -0.022 A 
ATOM     48  C   UNL     1       7.800  -5.273  23.112  0.00  0.00    +0.006 A 
ATOM     49  C   UNL     1       7.005  -6.017  22.223  0.00  0.00    +0.000 A 
ATOM     50  C   UNL     1       6.153  -5.367  21.331  0.00  0.00    +0.000 A 
ATOM     51  C   UNL     1       6.094  -3.979  21.335  0.00  0.00    +0.000 A 
ATOM     52  C   UNL     1       6.891  -3.237  22.216  0.00  0.00    +0.006 A 
ENDBRANCH  46  47
ENDBRANCH  45  46
ENDBRANCH  29  45
ENDBRANCH   1  29
TORSDOF 18
ENDMDL
MODEL 5
REMARK VINA RESULT:      -5.8      2.480      6.395
REMARK  Name = 
REMARK  21 active torsions:
REMARK  status: ('A' for Active; 'I' for Inactive)
REMARK    1  A    between atoms: C_1  and  N_2
REMARK    2  A    between atoms: C_3  and  C_5
REMARK    3  A    between atoms: C_5  and  N_7
REMARK    4  A    between atoms: C_5  and  C_51
REMARK    5  A    between atoms: C_8  and  C_10
REMARK    6  A    between atoms: C_10  and  O_12
REMARK    7  A    between atoms: C_10  and  C_20
REMARK    8  A    between atoms: O_12  and  C_13
REMARK    9  A    between atoms: C_13  and  C_14
REMARK   10  A    between atoms: C_20  and  O_22
REMARK   11  A    between atoms: C_20  and  C_23
REMARK   12  A    between atoms: C_23  and  O_25
REMARK   13  A    between atoms: C_23  and  C_26
REMARK   14  A    between atoms: C_26  and  O_28
REMARK   15  A    between atoms: C_26  and  C_36
REMARK   16  A    between atoms: O_28  and  C_29
REMARK   17  A    between atoms: C_29  and  C_30
REMARK   18  A    between atoms: N_38  and  C_39
REMARK   19  A    between atoms: C_41  and  O_43
REMARK   20  A    between atoms: C_51  and  C_52
REMARK   21  A    between atoms: C_51  and  C_53
REMARK                            x       y       z     vdW  Elec       q    Type
REMARK                         _______ _______ _______ _____ _____    ______ ____
ROOT
ATOM      1  C   UNL     1       9.593  -0.549  23.683  0.00  0.00    +0.184 C 
ENDROOT
BRANCH   1   2
ATOM      2  O   UNL     1       9.929  -1.897  23.308  0.00  0.00    -0.386 OA
ATOM      3  H   UNL     1      10.676  -1.860  22.680  0.00  0.00    +0.210 HD
ENDBRANCH   1   2
BRANCH   1   4
ATOM      4  C   UNL     1       9.819  -0.377  25.235  0.00  0.00    +0.184 C 
BRANCH   4   5
ATOM      5  O   UNL     1       9.598   1.004  25.617  0.00  0.00    -0.386 OA
ATOM      6  H   UNL     1       9.923   1.151  26.521  0.00  0.00    +0.210 HD
ENDBRANCH   4   5
BRANCH   4   7
ATOM      7  C   UNL     1       9.039  -1.256  26.267  0.00  0.00    +0.235 C 
BRANCH   7  10
ATOM      8  N   UNL     1       6.717  -0.166  26.350  0.00  0.00    -0.302 N 
ATOM      9  H   UNL     1       6.717  -0.569  25.412  0.00  0.00    +0.150 HD
ATOM     10  C   UNL     1       7.902  -0.368  27.045  0.00  0.00    +0.245 C 
ATOM     11  O   UNL     1       8.076   0.107  28.162  0.00  0.00    -0.273 OA
BRANCH   8  12
ATOM     12  C   UNL     1       5.465   0.640  26.607  0.00  0.00    +0.161 C 
BRANCH  12  16
ATOM     13  C   UNL     1       6.888   4.147  27.109  0.00  0.00    +0.128 C 
ATOM     14  N   UNL     1       6.585   2.744  27.191  0.00  0.00    -0.317 N 
ATOM     15  H   UNL     1       6.817   2.236  28.037  0.00  0.00    +0.148 HD
ATOM     16  C   UNL     1       5.841   2.093  26.238  0.00  0.00    +0.233 C 
ATOM     17  O   UNL     1       5.453   2.631  25.191  0.00  0.00    -0.274 OA
ENDBRANCH  12  16
BRANCH  12  18
ATOM     18  C   UNL     1       4.719   0.626  27.984  0.00  0.00    +0.012 C 
ATOM     19  C   UNL     1       4.468  -0.780  28.537  0.00  0.00    +0.009 C 
ATOM     20  C   UNL     1       3.321   1.308  27.909  0.00  0.00    +0.009 C 
ENDBRANCH  12  18
ENDBRANCH   8  12
ENDBRANCH   7  10
BRANCH   7  21
ATOM     21  O   UNL     1       8.657  -2.593  25.841  0.00  0.00    -0.360 OA
BRANCH  21  22
ATOM     22  C   UNL     1       8.002  -3.594  26.665  0.00  0.00    +0.196 C 
BRANCH  22  23
ATOM     23  C   UNL     1       6.610  -4.204  26.391  0.00  0.00    -0.022 A 
ATOM     24  C   UNL     1       6.491  -5.618  26.273  0.00  0.00    +0.006 A 
ATOM     25  C   UNL     1       5.257  -6.256  26.040  0.00  0.00    +0.000 A 
ATOM     26  C   UNL     1       4.097  -5.503  25.921  0.00  0.00    +0.000 A 
ATOM     27  C   UNL     1       4.182  -4.118  26.011  0.00  0.00    +0.000 A 
ATOM     28  C   UNL     1       5.423  -3.477  26.228  0.00  0.00    +0.006 A 
ENDBRANCH  22  23
ENDBRANCH  21  22
ENDBRANCH   7  21
ENDBRANCH   4   7
ENDBRANCH   1   4
BRANCH   1  29
ATOM     29  C   UNL     1       8.096  -0.343  23.236  0.00  0.00    +0.235 C 
BRANCH  29  30
ATOM     30  C   UNL     1       8.040   0.961  22.405  0.00  0.00    +0.245 C 
ATOM     31  N   UNL     1       7.876   2.125  23.140  0.00  0.00    -0.304 N 
ATOM     32  H   UNL     1       7.807   2.097  24.149  0.00  0.00    +0.149 HD
ATOM     33  O   UNL     1       8.238   0.987  21.193  0.00  0.00    -0.273 OA
BRANCH  31  34
ATOM     34  C   UNL     1       8.115   3.429  22.535  0.00  0.00    +0.132 C 
ATOM     35  C   UNL     1       9.408   4.019  23.024  0.00  0.00    -0.022 A 
ATOM     36  C   UNL     1       9.204   5.208  23.719  0.00  0.00    -0.040 A 
ATOM     37  C   UNL     1      10.261   5.885  24.312  0.00  0.00    +0.004 A 
ATOM     38  C   UNL     1      11.550   5.367  24.181  0.00  0.00    +0.000 A 
ATOM     39  C   UNL     1      11.768   4.192  23.455  0.00  0.00    +0.000 A 
ATOM     40  C   UNL     1       7.761   5.597  23.756  0.00  0.00    +0.069 C 
ATOM     41  C   UNL     1      10.693   3.508  22.880  0.00  0.00    +0.006 A 
ATOM     42  C   UNL     1       7.054   4.494  22.944  0.00  0.00    +0.143 C 
BRANCH  42  43
ATOM     43  O   UNL     1       6.416   5.077  21.799  0.00  0.00    -0.389 OA
ATOM     44  H   UNL     1       6.476   6.044  21.874  0.00  0.00    +0.210 HD
ENDBRANCH  42  43
ENDBRANCH  31  34
ENDBRANCH  29  30
BRANCH  29  45
ATOM     45  O   UNL     1       7.600  -1.407  22.395  0.00  0.00    -0.360 OA
BRANCH  45  46
ATOM     46  C   UNL     1       6.301  -1.947  22.691  0.00  0.00    +0.196 C 
BRANCH  46  47
ATOM     47  C   UNL     1       6.313  -3.476  22.671  0.00  0.00    -0.022 A 
ATOM     48  C   UNL     1       7.516  -4.207  22.756  0.00  0.00    +0.006 A 
ATOM     49  C   UNL     1       7.526  -5.608  22.648  0.00  0.00    +0.000 A 
ATOM     50  C   UNL     1       6.334  -6.306  22.456  0.00  0.00    +0.000 A 
ATOM     51  C   UNL     1       5.138  -5.602  22.381  0.00  0.00    +0.000 A 
ATOM     52  C   UNL     1       5.129  -4.205  22.483  0.00  0.00    +0.006 A 
ENDBRANCH  46  47
ENDBRANCH  45  46
ENDBRANCH  29  45
ENDBRANCH   1  29
TORSDOF 18
ENDMDL
MODEL 6
REMARK VINA RESULT:      -5.8      2.476      7.125
REMARK  Name = 
REMARK  21 active torsions:
REMARK  status: ('A' for Active; 'I' for Inactive)
REMARK    1  A    between atoms: C_1  and  N_2
REMARK    2  A    between atoms: C_3  and  C_5
REMARK    3  A    between atoms: C_5  and  N_7
REMARK    4  A    between atoms: C_5  and  C_51
REMARK    5  A    between atoms: C_8  and  C_10
REMARK    6  A    between atoms: C_10  and  O_12
REMARK    7  A    between atoms: C_10  and  C_20
REMARK    8  A    between atoms: O_12  and  C_13
REMARK    9  A    between atoms: C_13  and  C_14
REMARK   10  A    between atoms: C_20  and  O_22
REMARK   11  A    between atoms: C_20  and  C_23
REMARK   12  A    between atoms: C_23  and  O_25
REMARK   13  A    between atoms: C_23  and  C_26
REMARK   14  A    between atoms: C_26  and  O_28
REMARK   15  A    between atoms: C_26  and  C_36
REMARK   16  A    between atoms: O_28  and  C_29
REMARK   17  A    between atoms: C_29  and  C_30
REMARK   18  A    between atoms: N_38  and  C_39
REMARK   19  A    between atoms: C_41  and  O_43
REMARK   20  A    between atoms: C_51  and  C_52
REMARK   21  A    between atoms: C_51  and  C_53
REMARK                            x       y       z     vdW  Elec       q    Type
REMARK                         _______ _______ _______ _____ _____    ______ ____
ROOT
ATOM      1  C   UNL     1       6.386  -0.836  23.602  0.00  0.00    +0.184 C 
ENDROOT
BRANCH   1   2
ATOM      2  O   UNL     1       6.451   0.172  22.578  0.00  0.00    -0.386 OA
ATOM      3  H   UNL     1       6.227  -0.248  21.725  0.00  0.00    +0.210 HD
ENDBRANCH   1   2
BRANCH   1   4
ATOM      4  C   UNL     1       6.674  -0.164  25.000  0.00  0.00    +0.184 C 
BRANCH   4   5
ATOM      5  O   UNL     1       7.418   1.067  24.814  0.00  0.00    -0.386 OA
ATOM      6  H   UNL     1       8.326   0.956  25.141  0.00  0.00    +0.210 HD
ENDBRANCH   4   5
BRANCH   4   7
ATOM      7  C   UNL     1       5.513   0.162  25.996  0.00  0.00    +0.235 C 
BRANCH   7  10
ATOM      8  N   UNL     1       4.781   2.054  24.422  0.00  0.00    -0.302 N 
ATOM      9  H   UNL     1       5.074   1.339  23.756  0.00  0.00    +0.150 HD
ATOM     10  C   UNL     1       4.946   1.681  25.750  0.00  0.00    +0.245 C 
ATOM     11  O   UNL     1       4.694   2.456  26.667  0.00  0.00    -0.273 OA
BRANCH   8  12
ATOM     12  C   UNL     1       4.395   3.338  23.725  0.00  0.00    +0.161 C 
BRANCH  12  16
ATOM     13  C   UNL     1       1.724   2.941  21.026  0.00  0.00    +0.128 C 
ATOM     14  N   UNL     1       2.955   3.014  21.764  0.00  0.00    -0.317 N 
ATOM     15  H   UNL     1       3.826   3.157  21.263  0.00  0.00    +0.148 HD
ATOM     16  C   UNL     1       2.992   3.067  23.136  0.00  0.00    +0.233 C 
ATOM     17  O   UNL     1       1.984   2.962  23.850  0.00  0.00    -0.274 OA
ENDBRANCH  12  16
BRANCH  12  18
ATOM     18  C   UNL     1       5.298   4.015  22.639  0.00  0.00    +0.012 C 
ATOM     19  C   UNL     1       6.764   3.578  22.695  0.00  0.00    +0.009 C 
ATOM     20  C   UNL     1       5.312   5.567  22.762  0.00  0.00    +0.009 C 
ENDBRANCH  12  18
ENDBRANCH   8  12
ENDBRANCH   7  10
BRANCH   7  21
ATOM     21  O   UNL     1       4.528  -0.882  26.227  0.00  0.00    -0.360 OA
BRANCH  21  22
ATOM     22  C   UNL     1       4.459  -1.743  27.394  0.00  0.00    +0.196 C 
BRANCH  22  23
ATOM     23  C   UNL     1       5.156  -3.115  27.534  0.00  0.00    -0.022 A 
ATOM     24  C   UNL     1       4.644  -4.052  28.476  0.00  0.00    +0.006 A 
ATOM     25  C   UNL     1       5.210  -5.329  28.655  0.00  0.00    +0.000 A 
ATOM     26  C   UNL     1       6.305  -5.717  27.897  0.00  0.00    +0.000 A 
ATOM     27  C   UNL     1       6.842  -4.817  26.982  0.00  0.00    +0.000 A 
ATOM     28  C   UNL     1       6.285  -3.529  26.814  0.00  0.00    +0.006 A 
ENDBRANCH  22  23
ENDBRANCH  21  22
ENDBRANCH   7  21
ENDBRANCH   4   7
ENDBRANCH   1   4
BRANCH   1  29
ATOM     29  C   UNL     1       7.449  -1.926  23.195  0.00  0.00    +0.235 C 
BRANCH  29  30
ATOM     30  C   UNL     1       6.687  -3.258  22.998  0.00  0.00    +0.245 C 
ATOM     31  N   UNL     1       5.459  -3.338  23.636  0.00  0.00    -0.304 N 
ATOM     32  H   UNL     1       5.105  -2.564  24.181  0.00  0.00    +0.149 HD
ATOM     33  O   UNL     1       7.079  -4.143  22.242  0.00  0.00    -0.273 OA
BRANCH  31  34
ATOM     34  C   UNL     1       4.507  -4.387  23.292  0.00  0.00    +0.132 C 
ATOM     35  C   UNL     1       3.524  -4.607  24.409  0.00  0.00    -0.022 A 
ATOM     36  C   UNL     1       3.617  -5.892  24.933  0.00  0.00    -0.040 A 
ATOM     37  C   UNL     1       2.842  -6.284  26.017  0.00  0.00    +0.004 A 
ATOM     38  C   UNL     1       1.940  -5.371  26.565  0.00  0.00    +0.000 A 
ATOM     39  C   UNL     1       1.817  -4.089  26.021  0.00  0.00    +0.000 A 
ATOM     40  C   UNL     1       4.638  -6.719  24.221  0.00  0.00    +0.069 C 
ATOM     41  C   UNL     1       2.617  -3.699  24.944  0.00  0.00    +0.006 A 
ATOM     42  C   UNL     1       5.176  -5.784  23.120  0.00  0.00    +0.143 C 
BRANCH  42  43
ATOM     43  O   UNL     1       4.899  -6.351  21.832  0.00  0.00    -0.389 OA
ATOM     44  H   UNL     1       5.331  -7.221  21.781  0.00  0.00    +0.210 HD
ENDBRANCH  42  43
ENDBRANCH  31  34
ENDBRANCH  29  30
BRANCH  29  45
ATOM     45  O   UNL     1       8.122  -1.631  21.952  0.00  0.00    -0.360 OA
BRANCH  45  46
ATOM     46  C   UNL     1       9.555  -1.529  21.974  0.00  0.00    +0.196 C 
BRANCH  46  47
ATOM     47  C   UNL     1      10.012  -0.187  22.548  0.00  0.00    -0.022 A 
ATOM     48  C   UNL     1      10.555  -0.084  23.845  0.00  0.00    +0.006 A 
ATOM     49  C   UNL     1      10.890   1.165  24.397  0.00  0.00    +0.000 A 
ATOM     50  C   UNL     1      10.690   2.333  23.662  0.00  0.00    +0.000 A 
ATOM     51  C   UNL     1      10.166   2.249  22.378  0.00  0.00    +0.000 A 
ATOM     52  C   UNL     1       9.827   1.005  21.831  0.00  0.00    +0.006 A 
ENDBRANCH  46  47
ENDBRANCH  45  46
ENDBRANCH  29  45
ENDBRANCH   1  29
TORSDOF 18
ENDMDL
MODEL 7
REMARK VINA RESULT:      -5.8      2.528      6.257
REMARK  Name = 
REMARK  21 active torsions:
REMARK  status: ('A' for Active; 'I' for Inactive)
REMARK    1  A    between atoms: C_1  and  N_2
REMARK    2  A    between atoms: C_3  and  C_5
REMARK    3  A    between atoms: C_5  and  N_7
REMARK    4  A    between atoms: C_5  and  C_51
REMARK    5  A    between atoms: C_8  and  C_10
REMARK    6  A    between atoms: C_10  and  O_12
REMARK    7  A    between atoms: C_10  and  C_20
REMARK    8  A    between atoms: O_12  and  C_13
REMARK    9  A    between atoms: C_13  and  C_14
REMARK   10  A    between atoms: C_20  and  O_22
REMARK   11  A    between atoms: C_20  and  C_23
REMARK   12  A    between atoms: C_23  and  O_25
REMARK   13  A    between atoms: C_23  and  C_26
REMARK   14  A    between atoms: C_26  and  O_28
REMARK   15  A    between atoms: C_26  and  C_36
REMARK   16  A    between atoms: O_28  and  C_29
REMARK   17  A    between atoms: C_29  and  C_30
REMARK   18  A    between atoms: N_38  and  C_39
REMARK   19  A    between atoms: C_41  and  O_43
REMARK   20  A    between atoms: C_51  and  C_52
REMARK   21  A    between atoms: C_51  and  C_53
REMARK                            x       y       z     vdW  Elec       q    Type
REMARK                         _______ _______ _______ _____ _____    ______ ____
ROOT
ATOM      1  C   UNL     1       7.847   0.224  24.407  0.00  0.00    +0.184 C 
ENDROOT
BRANCH   1   2
ATOM      2  O   UNL     1       7.495   1.075  23.301  0.00  0.00    -0.386 OA
ATOM      3  H   UNL     1       6.958   0.553  22.675  0.00  0.00    +0.210 HD
ENDBRANCH   1   2
BRANCH   1   4
ATOM      4  C   UNL     1       7.254   0.837  25.734  0.00  0.00    +0.184 C 
BRANCH   4   5
ATOM      5  O   UNL     1       7.866   2.123  26.001  0.00  0.00    -0.386 OA
ATOM      6  H   UNL     1       8.802   2.001  26.235  0.00  0.00    +0.210 HD
ENDBRANCH   4   5
BRANCH   4   7
ATOM      7  C   UNL     1       5.713   1.029  25.918  0.00  0.00    +0.235 C 
BRANCH   7  10
ATOM      8  N   UNL     1       4.862   2.097  23.744  0.00  0.00    -0.302 N 
ATOM      9  H   UNL     1       5.034   1.137  23.444  0.00  0.00    +0.150 HD
ATOM     10  C   UNL     1       5.184   2.331  25.075  0.00  0.00    +0.245 C 
ATOM     11  O   UNL     1       5.089   3.451  25.567  0.00  0.00    -0.273 OA
BRANCH   8  12
ATOM     12  C   UNL     1       4.444   2.975  22.588  0.00  0.00    +0.161 C 
BRANCH  12  16
ATOM     13  C   UNL     1       6.211   6.357  22.477  0.00  0.00    +0.128 C 
ATOM     14  N   UNL     1       5.317   5.263  22.741  0.00  0.00    -0.317 N 
ATOM     15  H   UNL     1       4.382   5.459  23.081  0.00  0.00    +0.148 HD
ATOM     16  C   UNL     1       5.612   3.967  22.395  0.00  0.00    +0.233 C 
ATOM     17  O   UNL     1       6.702   3.621  21.917  0.00  0.00    -0.274 OA
ENDBRANCH  12  16
BRANCH  12  18
ATOM     18  C   UNL     1       3.085   3.754  22.567  0.00  0.00    +0.012 C 
ATOM     19  C   UNL     1       2.108   3.322  23.663  0.00  0.00    +0.009 C 
ATOM     20  C   UNL     1       2.320   3.578  21.222  0.00  0.00    +0.009 C 
ENDBRANCH  12  18
ENDBRANCH   8  12
ENDBRANCH   7  10
BRANCH   7  21
ATOM     21  O   UNL     1       4.888  -0.168  25.872  0.00  0.00    -0.360 OA
BRANCH  21  22
ATOM     22  C   UNL     1       5.220  -1.453  26.461  0.00  0.00    +0.196 C 
BRANCH  22  23
ATOM     23  C   UNL     1       4.415  -2.758  26.270  0.00  0.00    -0.022 A 
ATOM     24  C   UNL     1       4.673  -3.857  27.138  0.00  0.00    +0.006 A 
ATOM     25  C   UNL     1       3.973  -5.075  27.043  0.00  0.00    +0.000 A 
ATOM     26  C   UNL     1       2.989  -5.238  26.079  0.00  0.00    +0.000 A 
ATOM     27  C   UNL     1       2.727  -4.191  25.202  0.00  0.00    +0.000 A 
ATOM     28  C   UNL     1       3.440  -2.974  25.287  0.00  0.00    +0.006 A 
ENDBRANCH  22  23
ENDBRANCH  21  22
ENDBRANCH   7  21
ENDBRANCH   4   7
ENDBRANCH   1   4
BRANCH   1  29
ATOM     29  C   UNL     1       9.421   0.143  24.397  0.00  0.00    +0.235 C 
BRANCH  29  30
ATOM     30  C   UNL     1       9.803  -1.323  24.083  0.00  0.00    +0.245 C 
ATOM     31  N   UNL     1       9.170  -2.280  24.862  0.00  0.00    -0.304 N 
ATOM     32  H   UNL     1       8.506  -2.012  25.576  0.00  0.00    +0.149 HD
ATOM     33  O   UNL     1      10.525  -1.635  23.141  0.00  0.00    -0.273 OA
BRANCH  31  34
ATOM     34  C   UNL     1       9.192  -3.686  24.481  0.00  0.00    +0.132 C 
ATOM     35  C   UNL     1       7.933  -4.064  23.752  0.00  0.00    -0.022 A 
ATOM     36  C   UNL     1       7.207  -5.031  24.441  0.00  0.00    -0.040 A 
ATOM     37  C   UNL     1       5.977  -5.475  23.974  0.00  0.00    +0.004 A 
ATOM     38  C   UNL     1       5.483  -4.954  22.778  0.00  0.00    +0.000 A 
ATOM     39  C   UNL     1       6.223  -4.008  22.062  0.00  0.00    +0.000 A 
ATOM     40  C   UNL     1       7.893  -5.461  25.697  0.00  0.00    +0.069 C 
ATOM     41  C   UNL     1       7.450  -3.553  22.552  0.00  0.00    +0.006 A 
ATOM     42  C   UNL     1       9.204  -4.650  25.705  0.00  0.00    +0.143 C 
BRANCH  42  43
ATOM     43  O   UNL     1      10.323  -5.547  25.667  0.00  0.00    -0.389 OA
ATOM     44  H   UNL     1      10.283  -6.049  24.836  0.00  0.00    +0.210 HD
ENDBRANCH  42  43
ENDBRANCH  31  34
ENDBRANCH  29  30
BRANCH  29  45
ATOM     45  O   UNL     1      10.029   0.970  23.381  0.00  0.00    -0.360 OA
BRANCH  45  46
ATOM     46  C   UNL     1      11.167   1.763  23.755  0.00  0.00    +0.196 C 
BRANCH  46  47
ATOM     47  C   UNL     1      10.868   3.259  23.638  0.00  0.00    -0.022 A 
ATOM     48  C   UNL     1      11.886   4.197  23.369  0.00  0.00    +0.006 A 
ATOM     49  C   UNL     1      11.617   5.577  23.351  0.00  0.00    +0.000 A 
ATOM     50  C   UNL     1      10.327   6.044  23.597  0.00  0.00    +0.000 A 
ATOM     51  C   UNL     1       9.309   5.132  23.854  0.00  0.00    +0.000 A 
ATOM     52  C   UNL     1       9.579   3.758  23.878  0.00  0.00    +0.006 A 
ENDBRANCH  46  47
ENDBRANCH  45  46
ENDBRANCH  29  45
ENDBRANCH   1  29
TORSDOF 18
ENDMDL
MODEL 8
REMARK VINA RESULT:      -5.7      1.543      2.614
REMARK  Name = 
REMARK  21 active torsions:
REMARK  status: ('A' for Active; 'I' for Inactive)
REMARK    1  A    between atoms: C_1  and  N_2
REMARK    2  A    between atoms: C_3  and  C_5
REMARK    3  A    between atoms: C_5  and  N_7
REMARK    4  A    between atoms: C_5  and  C_51
REMARK    5  A    between atoms: C_8  and  C_10
REMARK    6  A    between atoms: C_10  and  O_12
REMARK    7  A    between atoms: C_10  and  C_20
REMARK    8  A    between atoms: O_12  and  C_13
REMARK    9  A    between atoms: C_13  and  C_14
REMARK   10  A    between atoms: C_20  and  O_22
REMARK   11  A    between atoms: C_20  and  C_23
REMARK   12  A    between atoms: C_23  and  O_25
REMARK   13  A    between atoms: C_23  and  C_26
REMARK   14  A    between atoms: C_26  and  O_28
REMARK   15  A    between atoms: C_26  and  C_36
REMARK   16  A    between atoms: O_28  and  C_29
REMARK   17  A    between atoms: C_29  and  C_30
REMARK   18  A    between atoms: N_38  and  C_39
REMARK   19  A    between atoms: C_41  and  O_43
REMARK   20  A    between atoms: C_51  and  C_52
REMARK   21  A    between atoms: C_51  and  C_53
REMARK                            x       y       z     vdW  Elec       q    Type
REMARK                         _______ _______ _______ _____ _____    ______ ____
ROOT
ATOM      1  C   UNL     1       5.638  -1.194  27.498  0.00  0.00    +0.184 C 
ENDROOT
BRANCH   1   2
ATOM      2  O   UNL     1       6.407  -2.379  27.221  0.00  0.00    -0.386 OA
ATOM      3  H   UNL     1       7.042  -2.506  27.951  0.00  0.00    +0.210 HD
ENDBRANCH   1   2
BRANCH   1   4
ATOM      4  C   UNL     1       4.401  -1.147  26.521  0.00  0.00    +0.184 C 
BRANCH   4   5
ATOM      5  O   UNL     1       4.850  -1.259  25.148  0.00  0.00    -0.386 OA
ATOM      6  H   UNL     1       5.611  -0.672  25.001  0.00  0.00    +0.210 HD
ENDBRANCH   4   5
BRANCH   4   7
ATOM      7  C   UNL     1       3.204  -2.141  26.683  0.00  0.00    +0.235 C 
BRANCH   7  10
ATOM      8  N   UNL     1       4.549  -4.185  25.907  0.00  0.00    -0.302 N 
ATOM      9  H   UNL     1       5.163  -3.800  26.626  0.00  0.00    +0.150 HD
ATOM     10  C   UNL     1       3.394  -3.442  25.703  0.00  0.00    +0.245 C 
ATOM     11  O   UNL     1       2.585  -3.744  24.832  0.00  0.00    -0.273 OA
BRANCH   8  12
ATOM     12  C   UNL     1       5.182  -5.366  25.209  0.00  0.00    +0.161 C 
BRANCH  12  16
ATOM     13  C   UNL     1       5.612  -3.051  22.204  0.00  0.00    +0.128 C 
ATOM     14  N   UNL     1       5.240  -3.649  23.457  0.00  0.00    -0.317 N 
ATOM     15  H   UNL     1       4.416  -3.310  23.942  0.00  0.00    +0.148 HD
ATOM     16  C   UNL     1       5.855  -4.774  23.950  0.00  0.00    +0.233 C 
ATOM     17  O   UNL     1       6.834  -5.308  23.410  0.00  0.00    -0.274 OA
ENDBRANCH  12  16
BRANCH  12  18
ATOM     18  C   UNL     1       4.375  -6.650  24.818  0.00  0.00    +0.012 C 
ATOM     19  C   UNL     1       3.523  -6.483  23.556  0.00  0.00    +0.009 C 
ATOM     20  C   UNL     1       3.391  -7.098  25.938  0.00  0.00    +0.009 C 
ENDBRANCH  12  18
ENDBRANCH   8  12
ENDBRANCH   7  10
BRANCH   7  21
ATOM     21  O   UNL     1       2.733  -2.393  28.035  0.00  0.00    -0.360 OA
BRANCH  21  22
ATOM     22  C   UNL     1       1.824  -3.453  28.435  0.00  0.00    +0.196 C 
BRANCH  22  23
ATOM     23  C   UNL     1       2.247  -4.864  28.901  0.00  0.00    -0.022 A 
ATOM     24  C   UNL     1       1.252  -5.874  29.024  0.00  0.00    +0.006 A 
ATOM     25  C   UNL     1       1.555  -7.189  29.427  0.00  0.00    +0.000 A 
ATOM     26  C   UNL     1       2.865  -7.542  29.718  0.00  0.00    +0.000 A 
ATOM     27  C   UNL     1       3.858  -6.574  29.628  0.00  0.00    +0.000 A 
ATOM     28  C   UNL     1       3.552  -5.249  29.239  0.00  0.00    +0.006 A 
ENDBRANCH  22  23
ENDBRANCH  21  22
ENDBRANCH   7  21
ENDBRANCH   4   7
ENDBRANCH   1   4
BRANCH   1  29
ATOM     29  C   UNL     1       6.635   0.013  27.314  0.00  0.00    +0.235 C 
BRANCH  29  30
ATOM     30  C   UNL     1       7.959  -0.566  26.759  0.00  0.00    +0.245 C 
ATOM     31  N   UNL     1       7.946  -0.888  25.411  0.00  0.00    -0.304 N 
ATOM     32  H   UNL     1       7.118  -0.740  24.850  0.00  0.00    +0.149 HD
ATOM     33  O   UNL     1       8.987  -0.633  27.428  0.00  0.00    -0.273 OA
BRANCH  31  34
ATOM     34  C   UNL     1       9.188  -1.143  24.693  0.00  0.00    +0.132 C 
ATOM     35  C   UNL     1       9.648   0.088  23.962  0.00  0.00    -0.022 A 
ATOM     36  C   UNL     1       9.681  -0.112  22.585  0.00  0.00    -0.040 A 
ATOM     37  C   UNL     1      10.016   0.919  21.717  0.00  0.00    +0.004 A 
ATOM     38  C   UNL     1      10.349   2.165  22.249  0.00  0.00    +0.000 A 
ATOM     39  C   UNL     1      10.351   2.363  23.634  0.00  0.00    +0.000 A 
ATOM     40  C   UNL     1       9.290  -1.504  22.208  0.00  0.00    +0.069 C 
ATOM     41  C   UNL     1       9.992   1.324  24.496  0.00  0.00    +0.006 A 
ATOM     42  C   UNL     1       9.031  -2.200  23.559  0.00  0.00    +0.143 C 
BRANCH  42  43
ATOM     43  O   UNL     1       9.945  -3.293  23.719  0.00  0.00    -0.389 OA
ATOM     44  H   UNL     1       9.458  -4.047  24.091  0.00  0.00    +0.210 HD
ENDBRANCH  42  43
ENDBRANCH  31  34
ENDBRANCH  29  30
BRANCH  29  45
ATOM     45  O   UNL     1       6.170   0.998  26.367  0.00  0.00    -0.360 OA
BRANCH  45  46
ATOM     46  C   UNL     1       6.890   2.239  26.282  0.00  0.00    +0.196 C 
BRANCH  46  47
ATOM     47  C   UNL     1       6.868   2.802  24.860  0.00  0.00    -0.022 A 
ATOM     48  C   UNL     1       6.481   2.011  23.758  0.00  0.00    +0.006 A 
ATOM     49  C   UNL     1       6.549   2.510  22.445  0.00  0.00    +0.000 A 
ATOM     50  C   UNL     1       7.000   3.807  22.210  0.00  0.00    +0.000 A 
ATOM     51  C   UNL     1       7.376   4.604  23.285  0.00  0.00    +0.000 A 
ATOM     52  C   UNL     1       7.314   4.105  24.592  0.00  0.00    +0.006 A 
ENDBRANCH  46  47
ENDBRANCH  45  46
ENDBRANCH  29  45
ENDBRANCH   1  29
TORSDOF 18
ENDMDL
MODEL 9
REMARK VINA RESULT:      -5.7      2.246      7.162
REMARK  Name = 
REMARK  21 active torsions:
REMARK  status: ('A' for Active; 'I' for Inactive)
REMARK    1  A    between atoms: C_1  and  N_2
REMARK    2  A    between atoms: C_3  and  C_5
REMARK    3  A    between atoms: C_5  and  N_7
REMARK    4  A    between atoms: C_5  and  C_51
REMARK    5  A    between atoms: C_8  and  C_10
REMARK    6  A    between atoms: C_10  and  O_12
REMARK    7  A    between atoms: C_10  and  C_20
REMARK    8  A    between atoms: O_12  and  C_13
REMARK    9  A    between atoms: C_13  and  C_14
REMARK   10  A    between atoms: C_20  and  O_22
REMARK   11  A    between atoms: C_20  and  C_23
REMARK   12  A    between atoms: C_23  and  O_25
REMARK   13  A    between atoms: C_23  and  C_26
REMARK   14  A    between atoms: C_26  and  O_28
REMARK   15  A    between atoms: C_26  and  C_36
REMARK   16  A    between atoms: O_28  and  C_29
REMARK   17  A    between atoms: C_29  and  C_30
REMARK   18  A    between atoms: N_38  and  C_39
REMARK   19  A    between atoms: C_41  and  O_43
REMARK   20  A    between atoms: C_51  and  C_52
REMARK   21  A    between atoms: C_51  and  C_53
REMARK                            x       y       z     vdW  Elec       q    Type
REMARK                         _______ _______ _______ _____ _____    ______ ____
ROOT
ATOM      1  C   UNL     1       6.661  -1.327  23.949  0.00  0.00    +0.184 C 
ENDROOT
BRANCH   1   2
ATOM      2  O   UNL     1       6.053  -1.426  22.649  0.00  0.00    -0.386 OA
ATOM      3  H   UNL     1       6.607  -2.012  22.098  0.00  0.00    +0.210 HD
ENDBRANCH   1   2
BRANCH   1   4
ATOM      4  C   UNL     1       6.578   0.169  24.441  0.00  0.00    +0.184 C 
BRANCH   4   5
ATOM      5  O   UNL     1       5.202   0.623  24.415  0.00  0.00    -0.386 OA
ATOM      6  H   UNL     1       4.649   0.028  24.949  0.00  0.00    +0.210 HD
ENDBRANCH   4   5
BRANCH   4   7
ATOM      7  C   UNL     1       7.165   0.599  25.826  0.00  0.00    +0.235 C 
BRANCH   7  10
ATOM      8  N   UNL     1       6.574   2.941  24.957  0.00  0.00    -0.302 N 
ATOM      9  H   UNL     1       6.507   2.386  24.103  0.00  0.00    +0.150 HD
ATOM     10  C   UNL     1       6.956   2.206  26.072  0.00  0.00    +0.245 C 
ATOM     11  O   UNL     1       7.137   2.743  27.160  0.00  0.00    -0.273 OA
BRANCH   8  12
ATOM     12  C   UNL     1       6.366   4.412  24.682  0.00  0.00    +0.161 C 
BRANCH  12  16
ATOM     13  C   UNL     1       2.970   3.303  23.336  0.00  0.00    +0.128 C 
ATOM     14  N   UNL     1       4.293   3.361  23.895  0.00  0.00    -0.317 N 
ATOM     15  H   UNL     1       4.870   2.527  23.889  0.00  0.00    +0.148 HD
ATOM     16  C   UNL     1       4.877   4.540  24.290  0.00  0.00    +0.233 C 
ATOM     17  O   UNL     1       4.285   5.629  24.286  0.00  0.00    -0.274 OA
ENDBRANCH  12  16
BRANCH  12  18
ATOM     18  C   UNL     1       7.247   5.213  23.664  0.00  0.00    +0.012 C 
ATOM     19  C   UNL     1       7.271   4.608  22.257  0.00  0.00    +0.009 C 
ATOM     20  C   UNL     1       8.735   5.309  24.111  0.00  0.00    +0.009 C 
ENDBRANCH  12  18
ENDBRANCH   8  12
ENDBRANCH   7  10
BRANCH   7  21
ATOM     21  O   UNL     1       6.908  -0.283  26.954  0.00  0.00    -0.360 OA
BRANCH  21  22
ATOM     22  C   UNL     1       5.672  -0.354  27.713  0.00  0.00    +0.196 C 
BRANCH  22  23
ATOM     23  C   UNL     1       4.600  -1.457  27.571  0.00  0.00    -0.022 A 
ATOM     24  C   UNL     1       4.066  -2.052  28.750  0.00  0.00    +0.006 A 
ATOM     25  C   UNL     1       3.074  -3.051  28.710  0.00  0.00    +0.000 A 
ATOM     26  C   UNL     1       2.579  -3.490  27.491  0.00  0.00    +0.000 A 
ATOM     27  C   UNL     1       3.094  -2.944  26.320  0.00  0.00    +0.000 A 
ATOM     28  C   UNL     1       4.101  -1.953  26.359  0.00  0.00    +0.006 A 
ENDBRANCH  22  23
ENDBRANCH  21  22
ENDBRANCH   7  21
ENDBRANCH   4   7
ENDBRANCH   1   4
BRANCH   1  29
ATOM     29  C   UNL     1       8.137  -1.852  23.769  0.00  0.00    +0.235 C 
BRANCH  29  30
ATOM     30  C   UNL     1       8.260  -3.164  24.581  0.00  0.00    +0.245 C 
ATOM     31  N   UNL     1       7.060  -3.702  25.021  0.00  0.00    -0.304 N 
ATOM     32  H   UNL     1       6.180  -3.253  24.808  0.00  0.00    +0.149 HD
ATOM     33  O   UNL     1       9.325  -3.754  24.733  0.00  0.00    -0.273 OA
BRANCH  31  34
ATOM     34  C   UNL     1       6.995  -5.071  25.517  0.00  0.00    +0.132 C 
ATOM     35  C   UNL     1       5.690  -5.716  25.142  0.00  0.00    -0.022 A 
ATOM     36  C   UNL     1       4.944  -6.063  26.264  0.00  0.00    -0.040 A 
ATOM     37  C   UNL     1       3.675  -6.614  26.141  0.00  0.00    +0.004 A 
ATOM     38  C   UNL     1       3.162  -6.843  24.864  0.00  0.00    +0.000 A 
ATOM     39  C   UNL     1       3.920  -6.529  23.732  0.00  0.00    +0.000 A 
ATOM     40  C   UNL     1       5.656  -5.738  27.537  0.00  0.00    +0.069 C 
ATOM     41  C   UNL     1       5.187  -5.956  23.868  0.00  0.00    +0.006 A 
ATOM     42  C   UNL     1       7.006  -5.156  27.073  0.00  0.00    +0.143 C 
BRANCH  42  43
ATOM     43  O   UNL     1       8.075  -5.983  27.554  0.00  0.00    -0.389 OA
ATOM     44  H   UNL     1       8.485  -5.540  28.316  0.00  0.00    +0.210 HD
ENDBRANCH  42  43
ENDBRANCH  31  34
ENDBRANCH  29  30
BRANCH  29  45
ATOM     45  O   UNL     1       8.470  -2.165  22.399  0.00  0.00    -0.360 OA
BRANCH  45  46
ATOM     46  C   UNL     1       9.645  -1.557  21.839  0.00  0.00    +0.196 C 
BRANCH  46  47
ATOM     47  C   UNL     1       9.943  -0.208  22.495  0.00  0.00    -0.022 A 
ATOM     48  C   UNL     1       9.679   1.010  21.834  0.00  0.00    +0.006 A 
ATOM     49  C   UNL     1      10.038   2.242  22.408  0.00  0.00    +0.000 A 
ATOM     50  C   UNL     1      10.664   2.281  23.654  0.00  0.00    +0.000 A 
ATOM     51  C   UNL     1      10.921   1.091  24.324  0.00  0.00    +0.000 A 
ATOM     52  C   UNL     1      10.569  -0.137  23.748  0.00  0.00    +0.006 A 
ENDBRANCH  46  47
ENDBRANCH  45  46
ENDBRANCH  29  45
ENDBRANCH   1  29
TORSDOF 18
ENDMDL
