MODEL 1
REMARK VINA RESULT:      -7.6      0.000      0.000
REMARK  Name = 
REMARK  10 active torsions:
REMARK  status: ('A' for Active; 'I' for Inactive)
REMARK    1  A    between atoms: C_4  and  C_5
REMARK    2  A    between atoms: C_4  and  C_6
REMARK    3  A    between atoms: CA_7  and  C_27
REMARK    4  A    between atoms: CA_12  and  N_14
REMARK    5  A    between atoms: C_15  and  C_17
REMARK    6  A    between atoms: C_18  and  O_19
REMARK    7  A    between atoms: O_19  and  C_20
REMARK    8  A    between atoms: C_24  and  O_25
REMARK    9  A    between atoms: O_25  and  C_26
REMARK   10  A    between atoms: C_27  and  O_28
REMARK                            x       y       z     vdW  Elec       q    Type
REMARK                         _______ _______ _______ _____ _____    ______ ____
ROOT
ATOM      1  C   UNL     1      10.026  -1.075  22.826  0.00  0.00    +0.165 C 
ATOM      2  CA  UNL     1       9.790  -2.067  24.007  0.00  0.00    +0.190 C 
ATOM      3  C   UNL     1       9.811  -0.797  24.878  0.00  0.00    +0.240 C 
ATOM      4  O   UNL     1       9.493  -0.495  25.999  0.00  0.00    -0.273 OA
ATOM      5  N   UNL     1      10.156   0.020  23.826  0.00  0.00    -0.271 N 
ATOM      6  CA  UNL     1       9.356   1.240  23.578  0.00  0.00    +0.201 C 
ATOM      7  C   UNL     1       8.082   0.806  22.819  0.00  0.00    +0.042 C 
ATOM      8  C   UNL     1       6.995   0.273  23.772  0.00  0.00    +0.025 C 
ATOM      9  C   UNL     1       7.421   1.859  21.925  0.00  0.00    +0.025 C 
ATOM     10  S   UNL     1       8.624  -0.583  21.757  0.00  0.00    -0.127 S 
ENDROOT
BRANCH   2  11
ATOM     11  N   UNL     1       8.531  -2.888  24.041  0.00  0.00    -0.298 N 
ATOM     12  H   UNL     1       7.633  -2.493  23.774  0.00  0.00    +0.150 HD
ATOM     13  C   UNL     1       8.581  -4.211  24.434  0.00  0.00    +0.252 C 
ATOM     14  O   UNL     1       9.668  -4.674  24.767  0.00  0.00    -0.270 OA
BRANCH  13  15
ATOM     15  C   UNL     1       7.330  -5.046  24.451  0.00  0.00    +0.120 A 
ATOM     16  C   UNL     1       6.703  -5.374  23.223  0.00  0.00    +0.136 A 
ATOM     17  C   UNL     1       5.449  -6.006  23.209  0.00  0.00    +0.046 A 
ATOM     18  C   UNL     1       4.819  -6.371  24.387  0.00  0.00    +0.007 A 
ATOM     19  C   UNL     1       5.437  -6.097  25.601  0.00  0.00    +0.046 A 
ATOM     20  C   UNL     1       6.670  -5.415  25.655  0.00  0.00    +0.136 A 
BRANCH  16  21
ATOM     21  O   UNL     1       7.110  -5.038  21.955  0.00  0.00    -0.494 OA
ATOM     22  C   UNL     1       6.349  -5.556  20.866  0.00  0.00    +0.277 C 
ENDBRANCH  16  21
BRANCH  20  23
ATOM     23  O   UNL     1       7.247  -5.095  26.867  0.00  0.00    -0.494 OA
ATOM     24  C   UNL     1       6.591  -5.630  28.024  0.00  0.00    +0.277 C 
ENDBRANCH  20  23
ENDBRANCH  13  15
ENDBRANCH   2  11
BRANCH   6  25
ATOM     25  C   UNL     1      10.230   2.282  22.857  0.00  0.00    +0.327 C 
ATOM     26  OXT UNL     1      10.877   3.156  23.416  0.00  0.00    -0.249 OA
BRANCH  25  27
ATOM     27  O   UNL     1      10.303   2.102  21.513  0.00  0.00    -0.479 OA
ATOM     28  H   UNL     1      10.202   2.959  21.049  0.00  0.00    +0.295 HD
ENDBRANCH  25  27
ENDBRANCH   6  25
TORSDOF 6
ENDMDL
MODEL 2
REMARK VINA RESULT:      -7.5      0.257      2.597
REMARK  Name = 
REMARK  10 active torsions:
REMARK  status: ('A' for Active; 'I' for Inactive)
REMARK    1  A    between atoms: C_4  and  C_5
REMARK    2  A    between atoms: C_4  and  C_6
REMARK    3  A    between atoms: CA_7  and  C_27
REMARK    4  A    between atoms: CA_12  and  N_14
REMARK    5  A    between atoms: C_15  and  C_17
REMARK    6  A    between atoms: C_18  and  O_19
REMARK    7  A    between atoms: O_19  and  C_20
REMARK    8  A    between atoms: C_24  and  O_25
REMARK    9  A    between atoms: O_25  and  C_26
REMARK   10  A    between atoms: C_27  and  O_28
REMARK                            x       y       z     vdW  Elec       q    Type
REMARK                         _______ _______ _______ _____ _____    ______ ____
ROOT
ATOM      1  C   UNL     1       9.926  -0.907  22.736  0.00  0.00    +0.165 C 
ATOM      2  CA  UNL     1       9.712  -1.940  23.885  0.00  0.00    +0.190 C 
ATOM      3  C   UNL     1       9.846  -0.713  24.807  0.00  0.00    +0.240 C 
ATOM      4  O   UNL     1       9.609  -0.448  25.957  0.00  0.00    -0.273 OA
ATOM      5  N   UNL     1      10.168   0.134  23.772  0.00  0.00    -0.271 N 
ATOM      6  CA  UNL     1       9.416   1.400  23.625  0.00  0.00    +0.201 C 
ATOM      7  C   UNL     1       8.080   1.060  22.927  0.00  0.00    +0.042 C 
ATOM      8  C   UNL     1       7.026   0.536  23.921  0.00  0.00    +0.025 C 
ATOM      9  C   UNL     1       7.420   2.182  22.121  0.00  0.00    +0.025 C 
ATOM     10  S   UNL     1       8.490  -0.302  21.776  0.00  0.00    -0.127 S 
ENDROOT
BRANCH   2  11
ATOM     11  N   UNL     1       8.418  -2.702  23.961  0.00  0.00    -0.298 N 
ATOM     12  H   UNL     1       7.528  -2.257  23.753  0.00  0.00    +0.150 HD
ATOM     13  C   UNL     1       8.424  -4.038  24.311  0.00  0.00    +0.252 C 
ATOM     14  O   UNL     1       9.503  -4.561  24.574  0.00  0.00    -0.270 OA
BRANCH  13  15
ATOM     15  C   UNL     1       7.138  -4.814  24.369  0.00  0.00    +0.120 A 
ATOM     16  C   UNL     1       6.618  -5.193  25.633  0.00  0.00    +0.136 A 
ATOM     17  C   UNL     1       5.515  -6.058  25.719  0.00  0.00    +0.046 A 
ATOM     18  C   UNL     1       4.875  -6.518  24.580  0.00  0.00    +0.007 A 
ATOM     19  C   UNL     1       5.342  -6.122  23.333  0.00  0.00    +0.046 A 
ATOM     20  C   UNL     1       6.481  -5.300  23.206  0.00  0.00    +0.136 A 
BRANCH  16  21
ATOM     21  O   UNL     1       7.140  -4.920  26.873  0.00  0.00    -0.494 OA
ATOM     22  C   UNL     1       6.261  -5.031  27.990  0.00  0.00    +0.277 C 
ENDBRANCH  16  21
BRANCH  20  23
ATOM     23  O   UNL     1       6.972  -4.962  21.962  0.00  0.00    -0.494 OA
ATOM     24  C   UNL     1       6.311  -5.576  20.849  0.00  0.00    +0.277 C 
ENDBRANCH  20  23
ENDBRANCH  13  15
ENDBRANCH   2  11
BRANCH   6  25
ATOM     25  C   UNL     1      10.296   2.432  22.898  0.00  0.00    +0.327 C 
ATOM     26  OXT UNL     1      10.929   3.321  23.450  0.00  0.00    -0.249 OA
BRANCH  25  27
ATOM     27  O   UNL     1      10.392   2.226  21.559  0.00  0.00    -0.479 OA
ATOM     28  H   UNL     1      11.329   2.257  21.277  0.00  0.00    +0.295 HD
ENDBRANCH  25  27
ENDBRANCH   6  25
TORSDOF 6
ENDMDL
MODEL 3
REMARK VINA RESULT:      -7.4      1.692      2.325
REMARK  Name = 
REMARK  10 active torsions:
REMARK  status: ('A' for Active; 'I' for Inactive)
REMARK    1  A    between atoms: C_4  and  C_5
REMARK    2  A    between atoms: C_4  and  C_6
REMARK    3  A    between atoms: CA_7  and  C_27
REMARK    4  A    between atoms: CA_12  and  N_14
REMARK    5  A    between atoms: C_15  and  C_17
REMARK    6  A    between atoms: C_18  and  O_19
REMARK    7  A    between atoms: O_19  and  C_20
REMARK    8  A    between atoms: C_24  and  O_25
REMARK    9  A    between atoms: O_25  and  C_26
REMARK   10  A    between atoms: C_27  and  O_28
REMARK                            x       y       z     vdW  Elec       q    Type
REMARK                         _______ _______ _______ _____ _____    ______ ____
ROOT
ATOM      1  C   UNL     1       7.726  -1.001  22.324  0.00  0.00    +0.165 C 
ATOM      2  CA  UNL     1       8.005  -2.515  22.575  0.00  0.00    +0.190 C 
ATOM      3  C   UNL     1       9.473  -2.067  22.700  0.00  0.00    +0.240 C 
ATOM      4  O   UNL     1      10.502  -2.535  23.115  0.00  0.00    -0.273 OA
ATOM      5  N   UNL     1       9.196  -0.770  22.337  0.00  0.00    -0.271 N 
ATOM      6  CA  UNL     1       9.684   0.331  23.196  0.00  0.00    +0.201 C 
ATOM      7  C   UNL     1       8.702   0.457  24.383  0.00  0.00    +0.042 C 
ATOM      8  C   UNL     1       9.007  -0.563  25.496  0.00  0.00    +0.025 C 
ATOM      9  C   UNL     1       8.597   1.832  25.048  0.00  0.00    +0.025 C 
ATOM     10  S   UNL     1       7.065   0.040  23.677  0.00  0.00    -0.127 S 
ENDROOT
BRANCH   2  11
ATOM     11  N   UNL     1       7.400  -3.187  23.776  0.00  0.00    -0.298 N 
ATOM     12  H   UNL     1       7.107  -2.654  24.591  0.00  0.00    +0.150 HD
ATOM     13  C   UNL     1       7.225  -4.557  23.784  0.00  0.00    +0.252 C 
ATOM     14  O   UNL     1       7.594  -5.193  22.801  0.00  0.00    -0.270 OA
BRANCH  13  15
ATOM     15  C   UNL     1       6.602  -5.236  24.972  0.00  0.00    +0.120 A 
ATOM     16  C   UNL     1       5.484  -6.086  24.773  0.00  0.00    +0.136 A 
ATOM     17  C   UNL     1       4.776  -6.601  25.871  0.00  0.00    +0.046 A 
ATOM     18  C   UNL     1       5.180  -6.339  27.170  0.00  0.00    +0.007 A 
ATOM     19  C   UNL     1       6.299  -5.545  27.386  0.00  0.00    +0.046 A 
ATOM     20  C   UNL     1       7.002  -4.964  26.309  0.00  0.00    +0.136 A 
BRANCH  16  21
ATOM     21  O   UNL     1       4.873  -6.407  23.586  0.00  0.00    -0.494 OA
ATOM     22  C   UNL     1       3.733  -5.640  23.210  0.00  0.00    +0.277 C 
ENDBRANCH  16  21
BRANCH  20  23
ATOM     23  O   UNL     1       8.075  -4.129  26.537  0.00  0.00    -0.494 OA
ATOM     24  C   UNL     1       9.366  -4.749  26.472  0.00  0.00    +0.277 C 
ENDBRANCH  20  23
ENDBRANCH  13  15
ENDBRANCH   2  11
BRANCH   6  25
ATOM     25  C   UNL     1       9.855   1.603  22.346  0.00  0.00    +0.327 C 
ATOM     26  OXT UNL     1      10.611   2.525  22.615  0.00  0.00    -0.249 OA
BRANCH  25  27
ATOM     27  O   UNL     1       9.146   1.588  21.188  0.00  0.00    -0.479 OA
ATOM     28  H   UNL     1       8.741   2.465  21.026  0.00  0.00    +0.295 HD
ENDBRANCH  25  27
ENDBRANCH   6  25
TORSDOF 6
ENDMDL
MODEL 4
REMARK VINA RESULT:      -7.3      1.694      3.006
REMARK  Name = 
REMARK  10 active torsions:
REMARK  status: ('A' for Active; 'I' for Inactive)
REMARK    1  A    between atoms: C_4  and  C_5
REMARK    2  A    between atoms: C_4  and  C_6
REMARK    3  A    between atoms: CA_7  and  C_27
REMARK    4  A    between atoms: CA_12  and  N_14
REMARK    5  A    between atoms: C_15  and  C_17
REMARK    6  A    between atoms: C_18  and  O_19
REMARK    7  A    between atoms: O_19  and  C_20
REMARK    8  A    between atoms: C_24  and  O_25
REMARK    9  A    between atoms: O_25  and  C_26
REMARK   10  A    between atoms: C_27  and  O_28
REMARK                            x       y       z     vdW  Elec       q    Type
REMARK                         _______ _______ _______ _____ _____    ______ ____
ROOT
ATOM      1  C   UNL     1       7.710  -1.078  22.340  0.00  0.00    +0.165 C 
ATOM      2  CA  UNL     1       7.918  -2.586  22.680  0.00  0.00    +0.190 C 
ATOM      3  C   UNL     1       9.375  -2.168  22.951  0.00  0.00    +0.240 C 
ATOM      4  O   UNL     1      10.338  -2.640  23.497  0.00  0.00    -0.273 OA
ATOM      5  N   UNL     1       9.175  -0.880  22.510  0.00  0.00    -0.271 N 
ATOM      6  CA  UNL     1       9.594   0.244  23.376  0.00  0.00    +0.201 C 
ATOM      7  C   UNL     1       8.489   0.440  24.439  0.00  0.00    +0.042 C 
ATOM      8  C   UNL     1       8.641  -0.540  25.617  0.00  0.00    +0.025 C 
ATOM      9  C   UNL     1       8.349   1.844  25.035  0.00  0.00    +0.025 C 
ATOM     10  S   UNL     1       6.931   0.033  23.570  0.00  0.00    -0.127 S 
ENDROOT
BRANCH   2  11
ATOM     11  N   UNL     1       7.166  -3.195  23.830  0.00  0.00    -0.298 N 
ATOM     12  H   UNL     1       6.704  -2.616  24.527  0.00  0.00    +0.150 HD
ATOM     13  C   UNL     1       7.082  -4.568  23.951  0.00  0.00    +0.252 C 
ATOM     14  O   UNL     1       7.654  -5.258  23.110  0.00  0.00    -0.270 OA
BRANCH  13  15
ATOM     15  C   UNL     1       6.315  -5.186  25.086  0.00  0.00    +0.120 A 
ATOM     16  C   UNL     1       6.739  -4.945  26.417  0.00  0.00    +0.136 A 
ATOM     17  C   UNL     1       6.152  -5.637  27.489  0.00  0.00    +0.046 A 
ATOM     18  C   UNL     1       5.113  -6.529  27.281  0.00  0.00    +0.007 A 
ATOM     19  C   UNL     1       4.653  -6.747  25.989  0.00  0.00    +0.046 A 
ATOM     20  C   UNL     1       5.255  -6.112  24.882  0.00  0.00    +0.136 A 
BRANCH  16  21
ATOM     21  O   UNL     1       7.792  -4.170  26.837  0.00  0.00    -0.494 OA
ATOM     22  C   UNL     1       9.106  -4.662  26.586  0.00  0.00    +0.277 C 
ENDBRANCH  16  21
BRANCH  20  23
ATOM     23  O   UNL     1       4.831  -6.381  23.598  0.00  0.00    -0.494 OA
ATOM     24  C   UNL     1       3.600  -5.758  23.210  0.00  0.00    +0.277 C 
ENDBRANCH  20  23
ENDBRANCH  13  15
ENDBRANCH   2  11
BRANCH   6  25
ATOM     25  C   UNL     1       9.893   1.475  22.502  0.00  0.00    +0.327 C 
ATOM     26  OXT UNL     1      10.639   2.391  22.818  0.00  0.00    -0.249 OA
BRANCH  25  27
ATOM     27  O   UNL     1       9.318   1.429  21.273  0.00  0.00    -0.479 OA
ATOM     28  H   UNL     1       8.526   0.852  21.290  0.00  0.00    +0.295 HD
ENDBRANCH  25  27
ENDBRANCH   6  25
TORSDOF 6
ENDMDL
MODEL 5
REMARK VINA RESULT:      -7.2      0.981      2.794
REMARK  Name = 
REMARK  10 active torsions:
REMARK  status: ('A' for Active; 'I' for Inactive)
REMARK    1  A    between atoms: C_4  and  C_5
REMARK    2  A    between atoms: C_4  and  C_6
REMARK    3  A    between atoms: CA_7  and  C_27
REMARK    4  A    between atoms: CA_12  and  N_14
REMARK    5  A    between atoms: C_15  and  C_17
REMARK    6  A    between atoms: C_18  and  O_19
REMARK    7  A    between atoms: O_19  and  C_20
REMARK    8  A    between atoms: C_24  and  O_25
REMARK    9  A    between atoms: O_25  and  C_26
REMARK   10  A    between atoms: C_27  and  O_28
REMARK                            x       y       z     vdW  Elec       q    Type
REMARK                         _______ _______ _______ _____ _____    ______ ____
ROOT
ATOM      1  C   UNL     1       9.311  -1.540  23.650  0.00  0.00    +0.165 C 
ATOM      2  CA  UNL     1       8.984  -2.436  24.885  0.00  0.00    +0.190 C 
ATOM      3  C   UNL     1       9.046  -1.112  25.670  0.00  0.00    +0.240 C 
ATOM      4  O   UNL     1       8.708  -0.717  26.756  0.00  0.00    -0.273 OA
ATOM      5  N   UNL     1       9.467  -0.388  24.579  0.00  0.00    -0.271 N 
ATOM      6  CA  UNL     1       8.744   0.852  24.221  0.00  0.00    +0.201 C 
ATOM      7  C   UNL     1       7.473   0.433  23.447  0.00  0.00    +0.042 C 
ATOM      8  C   UNL     1       6.329   0.024  24.394  0.00  0.00    +0.025 C 
ATOM      9  C   UNL     1       6.899   1.455  22.462  0.00  0.00    +0.025 C 
ATOM     10  S   UNL     1       7.973  -1.051  22.501  0.00  0.00    -0.127 S 
ENDROOT
BRANCH   2  11
ATOM     11  N   UNL     1       7.682  -3.186  24.929  0.00  0.00    -0.298 N 
ATOM     12  H   UNL     1       6.828  -2.746  25.263  0.00  0.00    +0.150 HD
ATOM     13  C   UNL     1       7.627  -4.498  24.501  0.00  0.00    +0.252 C 
ATOM     14  O   UNL     1       8.666  -5.023  24.112  0.00  0.00    -0.270 OA
BRANCH  13  15
ATOM     15  C   UNL     1       6.325  -5.250  24.522  0.00  0.00    +0.120 A 
ATOM     16  C   UNL     1       5.943  -5.934  25.703  0.00  0.00    +0.136 A 
ATOM     17  C   UNL     1       4.822  -6.781  25.706  0.00  0.00    +0.046 A 
ATOM     18  C   UNL     1       4.034  -6.927  24.577  0.00  0.00    +0.007 A 
ATOM     19  C   UNL     1       4.366  -6.231  23.422  0.00  0.00    +0.046 A 
ATOM     20  C   UNL     1       5.515  -5.415  23.365  0.00  0.00    +0.136 A 
BRANCH  16  21
ATOM     21  O   UNL     1       6.619  -5.993  26.897  0.00  0.00    -0.494 OA
ATOM     22  C   UNL     1       6.250  -5.053  27.903  0.00  0.00    +0.277 C 
ENDBRANCH  16  21
BRANCH  20  23
ATOM     23  O   UNL     1       5.869  -4.775  22.196  0.00  0.00    -0.494 OA
ATOM     24  C   UNL     1       6.359  -5.623  21.150  0.00  0.00    +0.277 C 
ENDBRANCH  20  23
ENDBRANCH  13  15
ENDBRANCH   2  11
BRANCH   6  25
ATOM     25  C   UNL     1       9.695   1.795  23.464  0.00  0.00    +0.327 C 
ATOM     26  OXT UNL     1      10.308   1.500  22.448  0.00  0.00    -0.249 OA
BRANCH  25  27
ATOM     27  O   UNL     1       9.741   3.053  23.973  0.00  0.00    -0.479 OA
ATOM     28  H   UNL     1      10.461   3.565  23.551  0.00  0.00    +0.295 HD
ENDBRANCH  25  27
ENDBRANCH   6  25
TORSDOF 6
ENDMDL
MODEL 6
REMARK VINA RESULT:      -7.2      2.473      7.568
REMARK  Name = 
REMARK  10 active torsions:
REMARK  status: ('A' for Active; 'I' for Inactive)
REMARK    1  A    between atoms: C_4  and  C_5
REMARK    2  A    between atoms: C_4  and  C_6
REMARK    3  A    between atoms: CA_7  and  C_27
REMARK    4  A    between atoms: CA_12  and  N_14
REMARK    5  A    between atoms: C_15  and  C_17
REMARK    6  A    between atoms: C_18  and  O_19
REMARK    7  A    between atoms: O_19  and  C_20
REMARK    8  A    between atoms: C_24  and  O_25
REMARK    9  A    between atoms: O_25  and  C_26
REMARK   10  A    between atoms: C_27  and  O_28
REMARK                            x       y       z     vdW  Elec       q    Type
REMARK                         _______ _______ _______ _____ _____    ______ ____
ROOT
ATOM      1  C   UNL     1       4.943  -2.871  23.798  0.00  0.00    +0.165 C 
ATOM      2  CA  UNL     1       5.681  -2.067  24.912  0.00  0.00    +0.190 C 
ATOM      3  C   UNL     1       5.856  -3.445  25.579  0.00  0.00    +0.240 C 
ATOM      4  O   UNL     1       6.528  -3.916  26.460  0.00  0.00    -0.273 OA
ATOM      5  N   UNL     1       5.080  -4.088  24.643  0.00  0.00    -0.271 N 
ATOM      6  CA  UNL     1       5.617  -5.297  23.979  0.00  0.00    +0.201 C 
ATOM      7  C   UNL     1       6.566  -4.819  22.857  0.00  0.00    +0.042 C 
ATOM      8  C   UNL     1       7.969  -4.477  23.395  0.00  0.00    +0.025 C 
ATOM      9  C   UNL     1       6.758  -5.765  21.668  0.00  0.00    +0.025 C 
ATOM     10  S   UNL     1       5.811  -3.272  22.237  0.00  0.00    -0.127 S 
ENDROOT
BRANCH   2  11
ATOM     11  N   UNL     1       6.939  -1.318  24.572  0.00  0.00    -0.298 N 
ATOM     12  H   UNL     1       7.840  -1.788  24.525  0.00  0.00    +0.150 HD
ATOM     13  C   UNL     1       6.885   0.036  24.304  0.00  0.00    +0.252 C 
ATOM     14  O   UNL     1       5.795   0.596  24.375  0.00  0.00    -0.270 OA
BRANCH  13  15
ATOM     15  C   UNL     1       8.135   0.790  23.942  0.00  0.00    +0.120 A 
ATOM     16  C   UNL     1       8.505   1.921  24.712  0.00  0.00    +0.136 A 
ATOM     17  C   UNL     1       9.567   2.745  24.304  0.00  0.00    +0.046 A 
ATOM     18  C   UNL     1      10.311   2.445  23.175  0.00  0.00    +0.007 A 
ATOM     19  C   UNL     1       9.992   1.316  22.431  0.00  0.00    +0.046 A 
ATOM     20  C   UNL     1       8.898   0.497  22.779  0.00  0.00    +0.136 A 
BRANCH  16  21
ATOM     21  O   UNL     1       7.861   2.439  25.809  0.00  0.00    -0.494 OA
ATOM     22  C   UNL     1       7.562   3.833  25.794  0.00  0.00    +0.277 C 
ENDBRANCH  16  21
BRANCH  20  23
ATOM     23  O   UNL     1       8.553  -0.588  22.000  0.00  0.00    -0.494 OA
ATOM     24  C   UNL     1       9.567  -1.590  21.852  0.00  0.00    +0.277 C 
ENDBRANCH  20  23
ENDBRANCH  13  15
ENDBRANCH   2  11
BRANCH   6  25
ATOM     25  C   UNL     1       4.448  -6.186  23.519  0.00  0.00    +0.327 C 
ATOM     26  OXT UNL     1       3.517  -5.809  22.822  0.00  0.00    -0.249 OA
BRANCH  25  27
ATOM     27  O   UNL     1       4.573  -7.488  23.883  0.00  0.00    -0.479 OA
ATOM     28  H   UNL     1       5.180  -7.571  24.647  0.00  0.00    +0.295 HD
ENDBRANCH  25  27
ENDBRANCH   6  25
TORSDOF 6
ENDMDL
MODEL 7
REMARK VINA RESULT:      -6.9      2.348      7.756
REMARK  Name = 
REMARK  10 active torsions:
REMARK  status: ('A' for Active; 'I' for Inactive)
REMARK    1  A    between atoms: C_4  and  C_5
REMARK    2  A    between atoms: C_4  and  C_6
REMARK    3  A    between atoms: CA_7  and  C_27
REMARK    4  A    between atoms: CA_12  and  N_14
REMARK    5  A    between atoms: C_15  and  C_17
REMARK    6  A    between atoms: C_18  and  O_19
REMARK    7  A    between atoms: O_19  and  C_20
REMARK    8  A    between atoms: C_24  and  O_25
REMARK    9  A    between atoms: O_25  and  C_26
REMARK   10  A    between atoms: C_27  and  O_28
REMARK                            x       y       z     vdW  Elec       q    Type
REMARK                         _______ _______ _______ _____ _____    ______ ____
ROOT
ATOM      1  C   UNL     1       9.906  -1.853  24.244  0.00  0.00    +0.165 C 
ATOM      2  CA  UNL     1      10.167  -0.602  23.350  0.00  0.00    +0.190 C 
ATOM      3  C   UNL     1       9.312  -1.355  22.313  0.00  0.00    +0.240 C 
ATOM      4  O   UNL     1       8.738  -1.090  21.288  0.00  0.00    -0.273 OA
ATOM      5  N   UNL     1       9.226  -2.490  23.084  0.00  0.00    -0.271 N 
ATOM      6  CA  UNL     1       7.893  -3.080  23.341  0.00  0.00    +0.201 C 
ATOM      7  C   UNL     1       7.242  -2.262  24.479  0.00  0.00    +0.042 C 
ATOM      8  C   UNL     1       6.584  -0.970  23.958  0.00  0.00    +0.025 C 
ATOM      9  C   UNL     1       6.200  -2.985  25.338  0.00  0.00    +0.025 C 
ATOM     10  S   UNL     1       8.637  -1.781  25.562  0.00  0.00    -0.127 S 
ENDROOT
BRANCH   2  11
ATOM     11  N   UNL     1       9.660   0.742  23.794  0.00  0.00    -0.298 N 
ATOM     12  H   UNL     1       9.194   0.863  24.689  0.00  0.00    +0.150 HD
ATOM     13  C   UNL     1       9.833   1.846  22.983  0.00  0.00    +0.252 C 
ATOM     14  O   UNL     1      10.386   1.686  21.898  0.00  0.00    -0.270 OA
BRANCH  13  15
ATOM     15  C   UNL     1       9.349   3.198  23.427  0.00  0.00    +0.120 A 
ATOM     16  C   UNL     1      10.292   4.241  23.615  0.00  0.00    +0.136 A 
ATOM     17  C   UNL     1       9.900   5.461  24.188  0.00  0.00    +0.046 A 
ATOM     18  C   UNL     1       8.580   5.699  24.534  0.00  0.00    +0.007 A 
ATOM     19  C   UNL     1       7.632   4.706  24.317  0.00  0.00    +0.046 A 
ATOM     20  C   UNL     1       7.999   3.448  23.796  0.00  0.00    +0.136 A 
BRANCH  16  21
ATOM     21  O   UNL     1      11.650   4.192  23.418  0.00  0.00    -0.494 OA
ATOM     22  C   UNL     1      12.381   5.402  23.602  0.00  0.00    +0.277 C 
ENDBRANCH  16  21
BRANCH  20  23
ATOM     23  O   UNL     1       7.061   2.449  23.640  0.00  0.00    -0.494 OA
ATOM     24  C   UNL     1       6.097   2.662  22.601  0.00  0.00    +0.277 C 
ENDBRANCH  20  23
ENDBRANCH  13  15
ENDBRANCH   2  11
BRANCH   6  25
ATOM     25  C   UNL     1       8.048  -4.586  23.618  0.00  0.00    +0.327 C 
ATOM     26  OXT UNL     1       8.930  -5.082  24.305  0.00  0.00    -0.249 OA
BRANCH  25  27
ATOM     27  O   UNL     1       7.050  -5.345  23.097  0.00  0.00    -0.479 OA
ATOM     28  H   UNL     1       6.544  -4.832  22.433  0.00  0.00    +0.295 HD
ENDBRANCH  25  27
ENDBRANCH   6  25
TORSDOF 6
ENDMDL
MODEL 8
REMARK VINA RESULT:      -6.9      1.571      1.780
REMARK  Name = 
REMARK  10 active torsions:
REMARK  status: ('A' for Active; 'I' for Inactive)
REMARK    1  A    between atoms: C_4  and  C_5
REMARK    2  A    between atoms: C_4  and  C_6
REMARK    3  A    between atoms: CA_7  and  C_27
REMARK    4  A    between atoms: CA_12  and  N_14
REMARK    5  A    between atoms: C_15  and  C_17
REMARK    6  A    between atoms: C_18  and  O_19
REMARK    7  A    between atoms: O_19  and  C_20
REMARK    8  A    between atoms: C_24  and  O_25
REMARK    9  A    between atoms: O_25  and  C_26
REMARK   10  A    between atoms: C_27  and  O_28
REMARK                            x       y       z     vdW  Elec       q    Type
REMARK                         _______ _______ _______ _____ _____    ______ ____
ROOT
ATOM      1  C   UNL     1       9.512  -1.239  25.289  0.00  0.00    +0.165 C 
ATOM      2  CA  UNL     1       8.304  -1.723  26.149  0.00  0.00    +0.190 C 
ATOM      3  C   UNL     1       7.867  -0.247  26.092  0.00  0.00    +0.240 C 
ATOM      4  O   UNL     1       6.867   0.383  26.318  0.00  0.00    -0.273 OA
ATOM      5  N   UNL     1       9.017   0.155  25.453  0.00  0.00    -0.271 N 
ATOM      6  CA  UNL     1       8.903   0.965  24.220  0.00  0.00    +0.201 C 
ATOM      7  C   UNL     1       8.603  -0.008  23.058  0.00  0.00    +0.042 C 
ATOM      8  C   UNL     1       7.107  -0.365  22.976  0.00  0.00    +0.025 C 
ATOM      9  C   UNL     1       9.038   0.435  21.659  0.00  0.00    +0.025 C 
ATOM     10  S   UNL     1       9.519  -1.534  23.482  0.00  0.00    -0.127 S 
ENDROOT
BRANCH   2  11
ATOM     11  N   UNL     1       7.348  -2.732  25.577  0.00  0.00    -0.298 N 
ATOM     12  H   UNL     1       6.580  -2.451  24.971  0.00  0.00    +0.150 HD
ATOM     13  C   UNL     1       7.507  -4.074  25.863  0.00  0.00    +0.252 C 
ATOM     14  O   UNL     1       8.429  -4.400  26.605  0.00  0.00    -0.270 OA
BRANCH  13  15
ATOM     15  C   UNL     1       6.568  -5.092  25.279  0.00  0.00    +0.120 A 
ATOM     16  C   UNL     1       6.423  -5.167  23.870  0.00  0.00    +0.136 A 
ATOM     17  C   UNL     1       5.435  -5.986  23.299  0.00  0.00    +0.046 A 
ATOM     18  C   UNL     1       4.618  -6.779  24.088  0.00  0.00    +0.007 A 
ATOM     19  C   UNL     1       4.775  -6.753  25.468  0.00  0.00    +0.046 A 
ATOM     20  C   UNL     1       5.717  -5.901  26.080  0.00  0.00    +0.136 A 
BRANCH  16  21
ATOM     21  O   UNL     1       7.066  -4.417  22.917  0.00  0.00    -0.494 OA
ATOM     22  C   UNL     1       6.264  -3.833  21.894  0.00  0.00    +0.277 C 
ENDBRANCH  16  21
BRANCH  20  23
ATOM     23  O   UNL     1       5.824  -5.839  27.454  0.00  0.00    -0.494 OA
ATOM     24  C   UNL     1       5.053  -6.805  28.178  0.00  0.00    +0.277 C 
ENDBRANCH  20  23
ENDBRANCH  13  15
ENDBRANCH   2  11
BRANCH   6  25
ATOM     25  C   UNL     1      10.173   1.819  24.053  0.00  0.00    +0.327 C 
ATOM     26  OXT UNL     1      11.316   1.395  24.151  0.00  0.00    -0.249 OA
BRANCH  25  27
ATOM     27  O   UNL     1       9.927   3.104  23.691  0.00  0.00    -0.479 OA
ATOM     28  H   UNL     1       9.324   3.130  22.919  0.00  0.00    +0.295 HD
ENDBRANCH  25  27
ENDBRANCH   6  25
TORSDOF 6
ENDMDL
MODEL 9
REMARK VINA RESULT:      -6.9      1.885      2.753
REMARK  Name = 
REMARK  10 active torsions:
REMARK  status: ('A' for Active; 'I' for Inactive)
REMARK    1  A    between atoms: C_4  and  C_5
REMARK    2  A    between atoms: C_4  and  C_6
REMARK    3  A    between atoms: CA_7  and  C_27
REMARK    4  A    between atoms: CA_12  and  N_14
REMARK    5  A    between atoms: C_15  and  C_17
REMARK    6  A    between atoms: C_18  and  O_19
REMARK    7  A    between atoms: O_19  and  C_20
REMARK    8  A    between atoms: C_24  and  O_25
REMARK    9  A    between atoms: O_25  and  C_26
REMARK   10  A    between atoms: C_27  and  O_28
REMARK                            x       y       z     vdW  Elec       q    Type
REMARK                         _______ _______ _______ _____ _____    ______ ____
ROOT
ATOM      1  C   UNL     1       7.713  -1.731  22.698  0.00  0.00    +0.165 C 
ATOM      2  CA  UNL     1       7.846  -3.254  23.007  0.00  0.00    +0.190 C 
ATOM      3  C   UNL     1       9.242  -2.870  23.531  0.00  0.00    +0.240 C 
ATOM      4  O   UNL     1      10.097  -3.379  24.210  0.00  0.00    -0.273 OA
ATOM      5  N   UNL     1       9.131  -1.564  23.114  0.00  0.00    -0.271 N 
ATOM      6  CA  UNL     1       9.413  -0.480  24.080  0.00  0.00    +0.201 C 
ATOM      7  C   UNL     1       8.151  -0.304  24.954  0.00  0.00    +0.042 C 
ATOM      8  C   UNL     1       8.095  -1.330  26.102  0.00  0.00    +0.025 C 
ATOM      9  C   UNL     1       7.928   1.078  25.573  0.00  0.00    +0.025 C 
ATOM     10  S   UNL     1       6.753  -0.653  23.825  0.00  0.00    -0.127 S 
ENDROOT
BRANCH   2  11
ATOM     11  N   UNL     1       6.907  -3.892  23.993  0.00  0.00    -0.298 N 
ATOM     12  H   UNL     1       6.775  -3.507  24.925  0.00  0.00    +0.150 HD
ATOM     13  C   UNL     1       6.195  -5.020  23.637  0.00  0.00    +0.252 C 
ATOM     14  O   UNL     1       6.371  -5.484  22.514  0.00  0.00    -0.270 OA
BRANCH  13  15
ATOM     15  C   UNL     1       5.238  -5.653  24.609  0.00  0.00    +0.120 A 
ATOM     16  C   UNL     1       3.861  -5.715  24.280  0.00  0.00    +0.136 A 
ATOM     17  C   UNL     1       2.919  -6.144  25.229  0.00  0.00    +0.046 A 
ATOM     18  C   UNL     1       3.314  -6.566  26.488  0.00  0.00    +0.007 A 
ATOM     19  C   UNL     1       4.663  -6.555  26.816  0.00  0.00    +0.046 A 
ATOM     20  C   UNL     1       5.632  -6.078  25.908  0.00  0.00    +0.136 A 
BRANCH  16  21
ATOM     21  O   UNL     1       3.250  -5.275  23.131  0.00  0.00    -0.494 OA
ATOM     22  C   UNL     1       1.875  -5.606  22.954  0.00  0.00    +0.277 C 
ENDBRANCH  16  21
BRANCH  20  23
ATOM     23  O   UNL     1       6.962  -6.015  26.265  0.00  0.00    -0.494 OA
ATOM     24  C   UNL     1       7.279  -5.089  27.311  0.00  0.00    +0.277 C 
ENDBRANCH  20  23
ENDBRANCH  13  15
ENDBRANCH   2  11
BRANCH   6  25
ATOM     25  C   UNL     1       9.866   0.777  23.316  0.00  0.00    +0.327 C 
ATOM     26  OXT UNL     1       9.382   1.165  22.262  0.00  0.00    -0.249 OA
BRANCH  25  27
ATOM     27  O   UNL     1      10.816   1.500  23.963  0.00  0.00    -0.479 OA
ATOM     28  H   UNL     1      10.603   2.456  23.921  0.00  0.00    +0.295 HD
ENDBRANCH  25  27
ENDBRANCH   6  25
TORSDOF 6
ENDMDL
