MODEL 1
REMARK VINA RESULT:      -7.2      0.000      0.000
REMARK  Name = 
REMARK  4 active torsions:
REMARK  status: ('A' for Active; 'I' for Inactive)
REMARK    1  A    between atoms: C_8  and  O_11
REMARK    2  A    between atoms: O_11  and  C_12
REMARK    3  A    between atoms: C_12  and  C_14
REMARK    4  A    between atoms: N_23  and  C_24
REMARK                            x       y       z     vdW  Elec       q    Type
REMARK                         _______ _______ _______ _____ _____    ______ ____
ROOT
ATOM      1  C   UNL     1       9.429  -2.506  24.047  0.00  0.00    +0.342 C 
ATOM      2  O   UNL     1      10.481  -3.017  23.683  0.00  0.00    -0.245 OA
ENDROOT
BRANCH   1   3
ATOM      3  C   UNL     1       9.294  -1.114  24.446  0.00  0.00    +0.085 A 
ATOM      4  C   UNL     1       9.492   0.040  23.625  0.00  0.00    +0.033 A 
ATOM      5  C   UNL     1       9.807   0.273  22.275  0.00  0.00    +0.014 A 
ATOM      6  C   UNL     1       9.946   1.597  21.860  0.00  0.00    +0.020 A 
ATOM      7  C   UNL     1       9.774   2.614  22.787  0.00  0.00    +0.113 A 
ATOM      8  N   UNL     1       9.478   2.449  24.097  0.00  0.00    -0.237 NA
ATOM      9  C   UNL     1       9.353   1.155  24.444  0.00  0.00    +0.139 A 
ATOM     10  N   UNL     1       9.080   0.721  25.709  0.00  0.00    -0.345 N 
ATOM     11  H   UNL     1       8.955   1.341  26.497  0.00  0.00    +0.167 HD
ATOM     12  C   UNL     1       9.040  -0.648  25.731  0.00  0.00    +0.100 A 
ENDBRANCH   1   3
BRANCH   1  13
ATOM     13  O   UNL     1       8.285  -3.217  24.275  0.00  0.00    -0.458 OA
BRANCH  13  19
ATOM     14  C   UNL     1       5.322  -3.726  22.379  0.00  0.00    +0.060 C 
ATOM     15  N   UNL     1       5.398  -5.166  22.116  0.00  0.00    -0.299 NA
ATOM     16  C   UNL     1       6.068  -5.552  20.884  0.00  0.00    +0.105 C 
ATOM     17  C   UNL     1       5.983  -5.702  23.346  0.00  0.00    +0.060 C 
ATOM     18  C   UNL     1       7.454  -5.319  23.508  0.00  0.00    +0.063 C 
ATOM     19  C   UNL     1       7.796  -3.876  23.095  0.00  0.00    +0.180 C 
ATOM     20  C   UNL     1       5.113  -5.024  24.409  0.00  0.00    +0.020 C 
ATOM     21  C   UNL     1       6.697  -3.051  22.412  0.00  0.00    +0.063 C 
ATOM     22  C   UNL     1       4.673  -3.713  23.766  0.00  0.00    +0.020 C 
ENDBRANCH  13  19
ENDBRANCH   1  13
TORSDOF 3
ENDMDL
MODEL 2
REMARK VINA RESULT:      -7.1      1.676      6.436
REMARK  Name = 
REMARK  4 active torsions:
REMARK  status: ('A' for Active; 'I' for Inactive)
REMARK    1  A    between atoms: C_8  and  O_11
REMARK    2  A    between atoms: O_11  and  C_12
REMARK    3  A    between atoms: C_12  and  C_14
REMARK    4  A    between atoms: N_23  and  C_24
REMARK                            x       y       z     vdW  Elec       q    Type
REMARK                         _______ _______ _______ _____ _____    ______ ____
ROOT
ATOM      1  C   UNL     1       8.285  -4.785  24.129  0.00  0.00    +0.342 C 
ATOM      2  O   UNL     1       9.258  -5.492  24.359  0.00  0.00    -0.245 OA
ENDROOT
BRANCH   1   3
ATOM      3  C   UNL     1       7.133  -5.212  23.350  0.00  0.00    +0.085 A 
ATOM      4  C   UNL     1       5.754  -5.005  23.668  0.00  0.00    +0.033 A 
ATOM      5  C   UNL     1       5.044  -4.358  24.693  0.00  0.00    +0.014 A 
ATOM      6  C   UNL     1       3.651  -4.416  24.655  0.00  0.00    +0.020 A 
ATOM      7  C   UNL     1       3.035  -5.106  23.621  0.00  0.00    +0.113 A 
ATOM      8  N   UNL     1       3.666  -5.752  22.614  0.00  0.00    -0.237 NA
ATOM      9  C   UNL     1       5.006  -5.663  22.698  0.00  0.00    +0.139 A 
ATOM     10  N   UNL     1       5.872  -6.247  21.818  0.00  0.00    -0.345 N 
ATOM     11  H   UNL     1       5.575  -6.803  21.029  0.00  0.00    +0.167 HD
ATOM     12  C   UNL     1       7.163  -5.985  22.195  0.00  0.00    +0.100 A 
ENDBRANCH   1   3
BRANCH   1  13
ATOM     13  O   UNL     1       8.228  -3.456  24.442  0.00  0.00    -0.458 OA
BRANCH  13  19
ATOM     14  C   UNL     1      10.224  -0.617  23.671  0.00  0.00    +0.060 C 
ATOM     15  N   UNL     1       9.307   0.150  22.822  0.00  0.00    -0.299 NA
ATOM     16  C   UNL     1       9.398  -0.108  21.394  0.00  0.00    +0.105 C 
ATOM     17  C   UNL     1       7.999  -0.101  23.427  0.00  0.00    +0.060 C 
ATOM     18  C   UNL     1       7.522  -1.538  23.210  0.00  0.00    +0.063 C 
ATOM     19  C   UNL     1       8.617  -2.611  23.347  0.00  0.00    +0.180 C 
ATOM     20  C   UNL     1       8.298   0.167  24.906  0.00  0.00    +0.020 C 
ATOM     21  C   UNL     1      10.068  -2.133  23.501  0.00  0.00    +0.063 C 
ATOM     22  C   UNL     1       9.776  -0.175  25.067  0.00  0.00    +0.020 C 
ENDBRANCH  13  19
ENDBRANCH   1  13
TORSDOF 3
ENDMDL
MODEL 3
REMARK VINA RESULT:      -7.1      0.717      1.821
REMARK  Name = 
REMARK  4 active torsions:
REMARK  status: ('A' for Active; 'I' for Inactive)
REMARK    1  A    between atoms: C_8  and  O_11
REMARK    2  A    between atoms: O_11  and  C_12
REMARK    3  A    between atoms: C_12  and  C_14
REMARK    4  A    between atoms: N_23  and  C_24
REMARK                            x       y       z     vdW  Elec       q    Type
REMARK                         _______ _______ _______ _____ _____    ______ ____
ROOT
ATOM      1  C   UNL     1       9.465  -2.593  23.753  0.00  0.00    +0.342 C 
ATOM      2  O   UNL     1      10.228  -3.452  24.176  0.00  0.00    -0.245 OA
ENDROOT
BRANCH   1   3
ATOM      3  C   UNL     1       9.356  -1.253  24.310  0.00  0.00    +0.085 A 
ATOM      4  C   UNL     1       9.576  -0.016  23.627  0.00  0.00    +0.033 A 
ATOM      5  C   UNL     1       9.897   0.364  22.312  0.00  0.00    +0.014 A 
ATOM      6  C   UNL     1      10.062   1.724  22.052  0.00  0.00    +0.020 A 
ATOM      7  C   UNL     1       9.908   2.631  23.090  0.00  0.00    +0.113 A 
ATOM      8  N   UNL     1       9.608   2.322  24.373  0.00  0.00    -0.237 NA
ATOM      9  C   UNL     1       9.458   1.000  24.569  0.00  0.00    +0.139 A 
ATOM     10  N   UNL     1       9.176   0.428  25.776  0.00  0.00    -0.345 N 
ATOM     11  H   UNL     1       9.061   0.955  26.630  0.00  0.00    +0.167 HD
ATOM     12  C   UNL     1       9.110  -0.934  25.639  0.00  0.00    +0.100 A 
ENDBRANCH   1   3
BRANCH   1  13
ATOM     13  O   UNL     1       8.509  -2.833  22.807  0.00  0.00    -0.458 OA
BRANCH  13  19
ATOM     14  C   UNL     1       6.253  -5.461  23.612  0.00  0.00    +0.060 C 
ATOM     15  N   UNL     1       4.989  -4.910  23.114  0.00  0.00    -0.299 NA
ATOM     16  C   UNL     1       4.205  -4.150  24.076  0.00  0.00    +0.105 C 
ATOM     17  C   UNL     1       5.391  -4.180  21.911  0.00  0.00    +0.060 C 
ATOM     18  C   UNL     1       6.194  -2.919  22.234  0.00  0.00    +0.063 C 
ATOM     19  C   UNL     1       7.213  -3.076  23.377  0.00  0.00    +0.180 C 
ATOM     20  C   UNL     1       6.260  -5.225  21.204  0.00  0.00    +0.020 C 
ATOM     21  C   UNL     1       7.192  -4.388  24.175  0.00  0.00    +0.063 C 
ATOM     22  C   UNL     1       6.831  -6.076  22.334  0.00  0.00    +0.020 C 
ENDBRANCH  13  19
ENDBRANCH   1  13
TORSDOF 3
ENDMDL
MODEL 4
REMARK VINA RESULT:      -7.1      2.554      6.339
REMARK  Name = 
REMARK  4 active torsions:
REMARK  status: ('A' for Active; 'I' for Inactive)
REMARK    1  A    between atoms: C_8  and  O_11
REMARK    2  A    between atoms: O_11  and  C_12
REMARK    3  A    between atoms: C_12  and  C_14
REMARK    4  A    between atoms: N_23  and  C_24
REMARK                            x       y       z     vdW  Elec       q    Type
REMARK                         _______ _______ _______ _____ _____    ______ ____
ROOT
ATOM      1  C   UNL     1       8.337  -3.517  23.366  0.00  0.00    +0.342 C 
ATOM      2  O   UNL     1       7.481  -3.712  22.512  0.00  0.00    -0.245 OA
ENDROOT
BRANCH   1   3
ATOM      3  C   UNL     1       8.440  -4.273  24.604  0.00  0.00    +0.085 A 
ATOM      4  C   UNL     1       7.377  -4.600  25.505  0.00  0.00    +0.033 A 
ATOM      5  C   UNL     1       5.987  -4.394  25.538  0.00  0.00    +0.014 A 
ATOM      6  C   UNL     1       5.289  -4.857  26.652  0.00  0.00    +0.020 A 
ATOM      7  C   UNL     1       5.989  -5.489  27.669  0.00  0.00    +0.113 A 
ATOM      8  N   UNL     1       7.324  -5.707  27.695  0.00  0.00    -0.237 NA
ATOM      9  C   UNL     1       7.948  -5.243  26.597  0.00  0.00    +0.139 A 
ATOM     10  N   UNL     1       9.296  -5.318  26.389  0.00  0.00    -0.345 N 
ATOM     11  H   UNL     1       9.940  -5.726  27.050  0.00  0.00    +0.167 HD
ATOM     12  C   UNL     1       9.612  -4.738  25.189  0.00  0.00    +0.100 A 
ENDBRANCH   1   3
BRANCH   1  13
ATOM     13  O   UNL     1       9.205  -2.462  23.336  0.00  0.00    -0.458 OA
BRANCH  13  19
ATOM     14  C   UNL     1       9.989   0.888  22.442  0.00  0.00    +0.060 C 
ATOM     15  N   UNL     1       8.753   1.579  22.825  0.00  0.00    -0.299 NA
ATOM     16  C   UNL     1       7.745   1.700  21.783  0.00  0.00    +0.105 C 
ATOM     17  C   UNL     1       8.331   0.868  24.032  0.00  0.00    +0.060 C 
ATOM     18  C   UNL     1       7.836  -0.547  23.733  0.00  0.00    +0.063 C 
ATOM     19  C   UNL     1       8.656  -1.310  22.676  0.00  0.00    +0.180 C 
ATOM     20  C   UNL     1       9.636   0.842  24.834  0.00  0.00    +0.020 C 
ATOM     21  C   UNL     1       9.742  -0.532  21.920  0.00  0.00    +0.063 C 
ATOM     22  C   UNL     1      10.736   0.857  23.778  0.00  0.00    +0.020 C 
ENDBRANCH  13  19
ENDBRANCH   1  13
TORSDOF 3
ENDMDL
MODEL 5
REMARK VINA RESULT:      -6.8      1.411      6.562
REMARK  Name = 
REMARK  4 active torsions:
REMARK  status: ('A' for Active; 'I' for Inactive)
REMARK    1  A    between atoms: C_8  and  O_11
REMARK    2  A    between atoms: O_11  and  C_12
REMARK    3  A    between atoms: C_12  and  C_14
REMARK    4  A    between atoms: N_23  and  C_24
REMARK                            x       y       z     vdW  Elec       q    Type
REMARK                         _______ _______ _______ _____ _____    ______ ____
ROOT
ATOM      1  C   UNL     1       8.251  -4.270  23.572  0.00  0.00    +0.342 C 
ATOM      2  O   UNL     1       9.011  -4.799  24.374  0.00  0.00    -0.245 OA
ENDROOT
BRANCH   1   3
ATOM      3  C   UNL     1       7.074  -4.918  23.013  0.00  0.00    +0.085 A 
ATOM      4  C   UNL     1       5.715  -4.726  23.413  0.00  0.00    +0.033 A 
ATOM      5  C   UNL     1       5.044  -3.915  24.344  0.00  0.00    +0.014 A 
ATOM      6  C   UNL     1       3.662  -4.058  24.453  0.00  0.00    +0.020 A 
ATOM      7  C   UNL     1       3.017  -4.987  23.651  0.00  0.00    +0.113 A 
ATOM      8  N   UNL     1       3.610  -5.799  22.745  0.00  0.00    -0.237 NA
ATOM      9  C   UNL     1       4.941  -5.619  22.679  0.00  0.00    +0.139 A 
ATOM     10  N   UNL     1       5.773  -6.328  21.861  0.00  0.00    -0.345 N 
ATOM     11  H   UNL     1       5.455  -7.057  21.238  0.00  0.00    +0.167 HD
ATOM     12  C   UNL     1       7.067  -5.919  22.049  0.00  0.00    +0.100 A 
ENDBRANCH   1   3
BRANCH   1  13
ATOM     13  O   UNL     1       8.500  -3.064  22.980  0.00  0.00    -0.458 OA
BRANCH  13  19
ATOM     14  C   UNL     1       7.819   0.424  22.902  0.00  0.00    +0.060 C 
ATOM     15  N   UNL     1       8.655   0.900  24.009  0.00  0.00    -0.299 NA
ATOM     16  C   UNL     1       8.012   0.961  25.312  0.00  0.00    +0.105 C 
ATOM     17  C   UNL     1       9.838   0.043  23.928  0.00  0.00    +0.060 C 
ATOM     18  C   UNL     1       9.542  -1.400  24.339  0.00  0.00    +0.063 C 
ATOM     19  C   UNL     1       8.194  -1.952  23.837  0.00  0.00    +0.180 C 
ATOM     20  C   UNL     1      10.175   0.138  22.437  0.00  0.00    +0.020 C 
ATOM     21  C   UNL     1       7.233  -0.970  23.154  0.00  0.00    +0.063 C 
ATOM     22  C   UNL     1       8.833   0.393  21.756  0.00  0.00    +0.020 C 
ENDBRANCH  13  19
ENDBRANCH   1  13
TORSDOF 3
ENDMDL
MODEL 6
REMARK VINA RESULT:      -6.7      1.712      6.389
REMARK  Name = 
REMARK  4 active torsions:
REMARK  status: ('A' for Active; 'I' for Inactive)
REMARK    1  A    between atoms: C_8  and  O_11
REMARK    2  A    between atoms: O_11  and  C_12
REMARK    3  A    between atoms: C_12  and  C_14
REMARK    4  A    between atoms: N_23  and  C_24
REMARK                            x       y       z     vdW  Elec       q    Type
REMARK                         _______ _______ _______ _____ _____    ______ ____
ROOT
ATOM      1  C   UNL     1       8.845  -1.725  25.319  0.00  0.00    +0.342 C 
ATOM      2  O   UNL     1       8.670  -1.481  26.506  0.00  0.00    -0.245 OA
ENDROOT
BRANCH   1   3
ATOM      3  C   UNL     1       8.615  -3.027  24.713  0.00  0.00    +0.085 A 
ATOM      4  C   UNL     1       7.712  -3.334  23.647  0.00  0.00    +0.033 A 
ATOM      5  C   UNL     1       6.832  -2.601  22.831  0.00  0.00    +0.014 A 
ATOM      6  C   UNL     1       6.077  -3.306  21.895  0.00  0.00    +0.020 A 
ATOM      7  C   UNL     1       6.220  -4.683  21.814  0.00  0.00    +0.113 A 
ATOM      8  N   UNL     1       7.043  -5.440  22.577  0.00  0.00    -0.237 NA
ATOM      9  C   UNL     1       7.749  -4.711  23.460  0.00  0.00    +0.139 A 
ATOM     10  N   UNL     1       8.632  -5.237  24.359  0.00  0.00    -0.345 N 
ATOM     11  H   UNL     1       8.824  -6.225  24.439  0.00  0.00    +0.167 HD
ATOM     12  C   UNL     1       9.166  -4.234  25.125  0.00  0.00    +0.100 A 
ENDBRANCH   1   3
BRANCH   1  13
ATOM     13  O   UNL     1       9.427  -0.849  24.447  0.00  0.00    -0.458 OA
BRANCH  13  19
ATOM     14  C   UNL     1       7.934   2.041  23.014  0.00  0.00    +0.060 C 
ATOM     15  N   UNL     1       8.898   3.077  23.398  0.00  0.00    -0.299 NA
ATOM     16  C   UNL     1       8.635   3.755  24.658  0.00  0.00    +0.105 C 
ATOM     17  C   UNL     1      10.185   2.387  23.310  0.00  0.00    +0.060 C 
ATOM     18  C   UNL     1      10.365   1.345  24.414  0.00  0.00    +0.063 C 
ATOM     19  C   UNL     1       9.106   0.521  24.738  0.00  0.00    +0.180 C 
ATOM     20  C   UNL     1      10.074   1.723  21.933  0.00  0.00    +0.020 C 
ATOM     21  C   UNL     1       7.789   0.939  24.069  0.00  0.00    +0.063 C 
ATOM     22  C   UNL     1       8.578   1.495  21.737  0.00  0.00    +0.020 C 
ENDBRANCH  13  19
ENDBRANCH   1  13
TORSDOF 3
ENDMDL
MODEL 7
REMARK VINA RESULT:      -6.7      1.453      2.555
REMARK  Name = 
REMARK  4 active torsions:
REMARK  status: ('A' for Active; 'I' for Inactive)
REMARK    1  A    between atoms: C_8  and  O_11
REMARK    2  A    between atoms: O_11  and  C_12
REMARK    3  A    between atoms: C_12  and  C_14
REMARK    4  A    between atoms: N_23  and  C_24
REMARK                            x       y       z     vdW  Elec       q    Type
REMARK                         _______ _______ _______ _____ _____    ______ ____
ROOT
ATOM      1  C   UNL     1       8.816  -2.338  24.523  0.00  0.00    +0.342 C 
ATOM      2  O   UNL     1       8.707  -2.031  25.703  0.00  0.00    -0.245 OA
ENDROOT
BRANCH   1   3
ATOM      3  C   UNL     1       9.293  -1.436  23.486  0.00  0.00    +0.085 A 
ATOM      4  C   UNL     1       9.511  -0.028  23.603  0.00  0.00    +0.033 A 
ATOM      5  C   UNL     1       9.414   0.923  24.634  0.00  0.00    +0.014 A 
ATOM      6  C   UNL     1       9.693   2.252  24.319  0.00  0.00    +0.020 A 
ATOM      7  C   UNL     1      10.047   2.575  23.017  0.00  0.00    +0.113 A 
ATOM      8  N   UNL     1      10.149   1.705  21.986  0.00  0.00    -0.237 NA
ATOM      9  C   UNL     1       9.871   0.438  22.344  0.00  0.00    +0.139 A 
ATOM     10  N   UNL     1       9.880  -0.623  21.485  0.00  0.00    -0.345 N 
ATOM     11  H   UNL     1      10.092  -0.543  20.501  0.00  0.00    +0.167 HD
ATOM     12  C   UNL     1       9.534  -1.765  22.157  0.00  0.00    +0.100 A 
ENDBRANCH   1   3
BRANCH   1  13
ATOM     13  O   UNL     1       8.355  -3.516  24.005  0.00  0.00    -0.458 OA
BRANCH  13  19
ATOM     14  C   UNL     1       5.672  -5.714  23.228  0.00  0.00    +0.060 C 
ATOM     15  N   UNL     1       4.611  -4.758  22.895  0.00  0.00    -0.299 NA
ATOM     16  C   UNL     1       3.754  -4.351  23.998  0.00  0.00    +0.105 C 
ATOM     17  C   UNL     1       5.332  -3.676  22.224  0.00  0.00    +0.060 C 
ATOM     18  C   UNL     1       6.207  -2.873  23.187  0.00  0.00    +0.063 C 
ATOM     19  C   UNL     1       6.952  -3.715  24.239  0.00  0.00    +0.180 C 
ATOM     20  C   UNL     1       6.185  -4.462  21.223  0.00  0.00    +0.020 C 
ATOM     21  C   UNL     1       6.608  -5.208  24.331  0.00  0.00    +0.063 C 
ATOM     22  C   UNL     1       6.408  -5.816  21.889  0.00  0.00    +0.020 C 
ENDBRANCH  13  19
ENDBRANCH   1  13
TORSDOF 3
ENDMDL
MODEL 8
REMARK VINA RESULT:      -6.7      1.617      6.348
REMARK  Name = 
REMARK  4 active torsions:
REMARK  status: ('A' for Active; 'I' for Inactive)
REMARK    1  A    between atoms: C_8  and  O_11
REMARK    2  A    between atoms: O_11  and  C_12
REMARK    3  A    between atoms: C_12  and  C_14
REMARK    4  A    between atoms: N_23  and  C_24
REMARK                            x       y       z     vdW  Elec       q    Type
REMARK                         _______ _______ _______ _____ _____    ______ ____
ROOT
ATOM      1  C   UNL     1       9.277  -2.617  23.646  0.00  0.00    +0.342 C 
ATOM      2  O   UNL     1      10.447  -2.971  23.722  0.00  0.00    -0.245 OA
ENDROOT
BRANCH   1   3
ATOM      3  C   UNL     1       8.159  -3.374  24.187  0.00  0.00    +0.085 A 
ATOM      4  C   UNL     1       7.326  -4.300  23.484  0.00  0.00    +0.033 A 
ATOM      5  C   UNL     1       7.279  -4.822  22.179  0.00  0.00    +0.014 A 
ATOM      6  C   UNL     1       6.250  -5.712  21.873  0.00  0.00    +0.020 A 
ATOM      7  C   UNL     1       5.326  -6.035  22.856  0.00  0.00    +0.113 A 
ATOM      8  N   UNL     1       5.318  -5.559  24.123  0.00  0.00    -0.237 NA
ATOM      9  C   UNL     1       6.331  -4.708  24.365  0.00  0.00    +0.139 A 
ATOM     10  N   UNL     1       6.534  -4.073  25.557  0.00  0.00    -0.345 N 
ATOM     11  H   UNL     1       5.930  -4.186  26.359  0.00  0.00    +0.167 HD
ATOM     12  C   UNL     1       7.635  -3.263  25.468  0.00  0.00    +0.100 A 
ENDBRANCH   1   3
BRANCH   1  13
ATOM     13  O   UNL     1       8.861  -1.546  22.906  0.00  0.00    -0.458 OA
BRANCH  13  19
ATOM     14  C   UNL     1       8.494   1.775  24.118  0.00  0.00    +0.060 C 
ATOM     15  N   UNL     1       9.292   2.522  23.141  0.00  0.00    -0.299 NA
ATOM     16  C   UNL     1      10.693   2.718  23.482  0.00  0.00    +0.105 C 
ATOM     17  C   UNL     1       9.041   1.811  21.888  0.00  0.00    +0.060 C 
ATOM     18  C   UNL     1       9.696   0.430  21.859  0.00  0.00    +0.063 C 
ATOM     19  C   UNL     1       9.613  -0.353  23.182  0.00  0.00    +0.180 C 
ATOM     20  C   UNL     1       7.513   1.700  21.909  0.00  0.00    +0.020 C 
ATOM     21  C   UNL     1       9.060   0.381  24.411  0.00  0.00    +0.063 C 
ATOM     22  C   UNL     1       7.150   1.678  23.390  0.00  0.00    +0.020 C 
ENDBRANCH  13  19
ENDBRANCH   1  13
TORSDOF 3
ENDMDL
MODEL 9
REMARK VINA RESULT:      -6.6      1.422      2.146
REMARK  Name = 
REMARK  4 active torsions:
REMARK  status: ('A' for Active; 'I' for Inactive)
REMARK    1  A    between atoms: C_8  and  O_11
REMARK    2  A    between atoms: O_11  and  C_12
REMARK    3  A    between atoms: C_12  and  C_14
REMARK    4  A    between atoms: N_23  and  C_24
REMARK                            x       y       z     vdW  Elec       q    Type
REMARK                         _______ _______ _______ _____ _____    ______ ____
ROOT
ATOM      1  C   UNL     1       9.414  -1.491  22.901  0.00  0.00    +0.342 C 
ATOM      2  O   UNL     1      10.477  -2.097  22.845  0.00  0.00    -0.245 OA
ENDROOT
BRANCH   1   3
ATOM      3  C   UNL     1       9.253  -0.091  22.540  0.00  0.00    +0.085 A 
ATOM      4  C   UNL     1       8.904   0.988  23.412  0.00  0.00    +0.033 A 
ATOM      5  C   UNL     1       8.652   1.129  24.788  0.00  0.00    +0.014 A 
ATOM      6  C   UNL     1       8.297   2.393  25.256  0.00  0.00    +0.020 A 
ATOM      7  C   UNL     1       8.204   3.443  24.355  0.00  0.00    +0.113 A 
ATOM      8  N   UNL     1       8.427   3.364  23.022  0.00  0.00    -0.237 NA
ATOM      9  C   UNL     1       8.767   2.125  22.624  0.00  0.00    +0.139 A 
ATOM     10  N   UNL     1       9.022   1.776  21.329  0.00  0.00    -0.345 N 
ATOM     11  H   UNL     1       8.968   2.424  20.556  0.00  0.00    +0.167 HD
ATOM     12  C   UNL     1       9.318   0.441  21.258  0.00  0.00    +0.100 A 
ENDBRANCH   1   3
BRANCH   1  13
ATOM     13  O   UNL     1       8.279  -2.010  23.458  0.00  0.00    -0.458 OA
BRANCH  13  19
ATOM     14  C   UNL     1       5.223  -3.671  22.723  0.00  0.00    +0.060 C 
ATOM     15  N   UNL     1       5.624  -5.074  22.861  0.00  0.00    -0.299 NA
ATOM     16  C   UNL     1       6.090  -5.724  21.646  0.00  0.00    +0.105 C 
ATOM     17  C   UNL     1       6.582  -5.043  23.967  0.00  0.00    +0.060 C 
ATOM     18  C   UNL     1       7.896  -4.362  23.581  0.00  0.00    +0.063 C 
ATOM     19  C   UNL     1       7.742  -3.108  22.702  0.00  0.00    +0.180 C 
ATOM     20  C   UNL     1       5.813  -4.218  25.004  0.00  0.00    +0.020 C 
ATOM     21  C   UNL     1       6.341  -2.782  22.166  0.00  0.00    +0.063 C 
ATOM     22  C   UNL     1       4.910  -3.308  24.177  0.00  0.00    +0.020 C 
ENDBRANCH  13  19
ENDBRANCH   1  13
TORSDOF 3
ENDMDL
