MODEL 1
REMARK VINA RESULT:      -6.8      0.000      0.000
REMARK  Name = 
REMARK  9 active torsions:
REMARK  status: ('A' for Active; 'I' for Inactive)
REMARK    1  A    between atoms: C_2  and  O_3
REMARK    2  A    between atoms: N_5  and  C_6
REMARK    3  A    between atoms: C_6  and  C_7
REMARK    4  A    between atoms: C_18  and  C_20
REMARK    5  A    between atoms: C_20  and  S_21
REMARK    6  A    between atoms: S_21  and  C_22
REMARK    7  A    between atoms: C_22  and  C_23
REMARK    8  A    between atoms: C_23  and  C_24
REMARK    9  A    between atoms: C_24  and  C_25
REMARK                            x       y       z     vdW  Elec       q    Type
REMARK                         _______ _______ _______ _____ _____    ______ ____
ROOT
ATOM      1  C   UNL     1       8.687  -1.359  24.421  0.00  0.00    +0.123 C 
ENDROOT
BRANCH   1   2
ATOM      2  C   UNL     1       8.401  -2.775  24.030  0.00  0.00    +0.010 A 
ATOM      3  C   UNL     1       7.396  -3.200  23.116  0.00  0.00    +0.098 A 
ATOM      4  N   UNL     1       6.520  -2.455  22.404  0.00  0.00    -0.233 NA
ATOM      5  C   UNL     1       5.668  -3.199  21.681  0.00  0.00    +0.224 A 
ATOM      6  N   UNL     1       5.609  -4.542  21.583  0.00  0.00    -0.219 NA
ATOM      7  C   UNL     1       6.489  -5.267  22.291  0.00  0.00    +0.144 A 
ATOM      8  N   UNL     1       6.423  -6.647  22.202  0.00  0.00    -0.341 N 
ATOM      9  H   UNL     1       7.309  -7.125  22.235  0.00  0.00    +0.144 HD
ATOM     10  H   UNL     1       5.819  -6.908  21.429  0.00  0.00    +0.144 HD
ATOM     11  C   UNL     1       7.409  -4.584  23.069  0.00  0.00    +0.105 A 
ATOM     12  N   UNL     1       8.411  -5.006  23.909  0.00  0.00    -0.356 N 
ATOM     13  H   UNL     1       8.631  -5.974  24.096  0.00  0.00    +0.165 HD
ATOM     14  C   UNL     1       9.029  -3.925  24.482  0.00  0.00    +0.090 A 
ENDBRANCH   1   2
BRANCH   1  18
ATOM     15  C   UNL     1       9.358   0.978  22.604  0.00  0.00    +0.134 C 
ATOM     16  C   UNL     1      10.016   1.521  23.877  0.00  0.00    +0.043 C 
ATOM     17  C   UNL     1      10.519   0.272  24.613  0.00  0.00    +0.091 C 
ATOM     18  N   UNL     1      10.000  -0.917  23.905  0.00  0.00    -0.295 NA
ATOM     19  C   UNL     1       9.878  -0.457  22.510  0.00  0.00    +0.116 C 
BRANCH  15  20
ATOM     20  O   UNL     1       9.707   1.762  21.470  0.00  0.00    -0.390 OA
ATOM     21  H   UNL     1      10.603   2.118  21.607  0.00  0.00    +0.210 HD
ENDBRANCH  15  20
BRANCH  16  22
ATOM     22  C   UNL     1       9.043   2.383  24.685  0.00  0.00    +0.076 C 
BRANCH  22  23
ATOM     23  S   UNL     1       8.822   4.084  24.050  0.00  0.00    -0.160 S 
BRANCH  23  24
ATOM     24  C   UNL     1      10.533   4.492  23.571  0.00  0.00    +0.069 C 
BRANCH  24  25
ATOM     25  C   UNL     1      10.847   5.912  24.030  0.00  0.00    +0.010 C 
BRANCH  25  26
ATOM     26  C   UNL     1      12.356   6.147  24.121  0.00  0.00    -0.003 C 
ATOM     27  C   UNL     1      13.099   5.278  23.119  0.00  0.00    +0.004 C 
ENDBRANCH  25  26
ENDBRANCH  24  25
ENDBRANCH  23  24
ENDBRANCH  22  23
ENDBRANCH  16  22
ENDBRANCH   1  18
TORSDOF 8
ENDMDL
MODEL 2
REMARK VINA RESULT:      -6.7      4.164      7.936
REMARK  Name = 
REMARK  9 active torsions:
REMARK  status: ('A' for Active; 'I' for Inactive)
REMARK    1  A    between atoms: C_2  and  O_3
REMARK    2  A    between atoms: N_5  and  C_6
REMARK    3  A    between atoms: C_6  and  C_7
REMARK    4  A    between atoms: C_18  and  C_20
REMARK    5  A    between atoms: C_20  and  S_21
REMARK    6  A    between atoms: S_21  and  C_22
REMARK    7  A    between atoms: C_22  and  C_23
REMARK    8  A    between atoms: C_23  and  C_24
REMARK    9  A    between atoms: C_24  and  C_25
REMARK                            x       y       z     vdW  Elec       q    Type
REMARK                         _______ _______ _______ _____ _____    ______ ____
ROOT
ATOM      1  C   UNL     1       8.605  -2.441  25.368  0.00  0.00    +0.123 C 
ENDROOT
BRANCH   1   2
ATOM      2  C   UNL     1       9.189  -1.540  24.326  0.00  0.00    +0.010 A 
ATOM      3  C   UNL     1       9.086  -0.121  24.300  0.00  0.00    +0.098 A 
ATOM      4  N   UNL     1       8.482   0.708  25.182  0.00  0.00    -0.233 NA
ATOM      5  C   UNL     1       8.529   1.995  24.806  0.00  0.00    +0.224 A 
ATOM      6  N   UNL     1       9.102   2.523  23.706  0.00  0.00    -0.219 NA
ATOM      7  C   UNL     1       9.702   1.689  22.843  0.00  0.00    +0.144 A 
ATOM      8  N   UNL     1      10.280   2.227  21.707  0.00  0.00    -0.341 N 
ATOM      9  H   UNL     1      11.128   1.778  21.398  0.00  0.00    +0.144 HD
ATOM     10  H   UNL     1      10.336   3.237  21.800  0.00  0.00    +0.144 HD
ATOM     11  C   UNL     1       9.703   0.338  23.147  0.00  0.00    +0.105 A 
ATOM     12  N   UNL     1      10.199  -0.762  22.491  0.00  0.00    -0.356 N 
ATOM     13  H   UNL     1      10.676  -0.731  21.601  0.00  0.00    +0.165 HD
ATOM     14  C   UNL     1       9.911  -1.900  23.199  0.00  0.00    +0.090 A 
ENDBRANCH   1   2
BRANCH   1  18
ATOM     15  C   UNL     1       7.778  -4.959  26.848  0.00  0.00    +0.134 C 
ATOM     16  C   UNL     1       7.198  -5.334  25.480  0.00  0.00    +0.043 C 
ATOM     17  C   UNL     1       8.151  -4.685  24.467  0.00  0.00    +0.091 C 
ATOM     18  N   UNL     1       9.096  -3.828  25.211  0.00  0.00    -0.295 NA
ATOM     19  C   UNL     1       9.198  -4.490  26.524  0.00  0.00    +0.116 C 
BRANCH  15  20
ATOM     20  O   UNL     1       7.758  -6.070  27.737  0.00  0.00    -0.390 OA
ATOM     21  H   UNL     1       7.381  -5.777  28.585  0.00  0.00    +0.210 HD
ENDBRANCH  15  20
BRANCH  16  22
ATOM     22  C   UNL     1       5.739  -4.888  25.350  0.00  0.00    +0.076 C 
BRANCH  22  23
ATOM     23  S   UNL     1       4.621  -6.139  24.621  0.00  0.00    -0.160 S 
BRANCH  23  24
ATOM     24  C   UNL     1       4.469  -5.507  22.919  0.00  0.00    +0.069 C 
BRANCH  24  25
ATOM     25  C   UNL     1       5.667  -5.986  22.106  0.00  0.00    +0.010 C 
BRANCH  25  26
ATOM     26  C   UNL     1       6.240  -4.862  21.243  0.00  0.00    -0.003 C 
ATOM     27  C   UNL     1       5.884  -3.502  21.822  0.00  0.00    +0.004 C 
ENDBRANCH  25  26
ENDBRANCH  24  25
ENDBRANCH  23  24
ENDBRANCH  22  23
ENDBRANCH  16  22
ENDBRANCH   1  18
TORSDOF 8
ENDMDL
MODEL 3
REMARK VINA RESULT:      -6.4      3.842      7.461
REMARK  Name = 
REMARK  9 active torsions:
REMARK  status: ('A' for Active; 'I' for Inactive)
REMARK    1  A    between atoms: C_2  and  O_3
REMARK    2  A    between atoms: N_5  and  C_6
REMARK    3  A    between atoms: C_6  and  C_7
REMARK    4  A    between atoms: C_18  and  C_20
REMARK    5  A    between atoms: C_20  and  S_21
REMARK    6  A    between atoms: S_21  and  C_22
REMARK    7  A    between atoms: C_22  and  C_23
REMARK    8  A    between atoms: C_23  and  C_24
REMARK    9  A    between atoms: C_24  and  C_25
REMARK                            x       y       z     vdW  Elec       q    Type
REMARK                         _______ _______ _______ _____ _____    ______ ____
ROOT
ATOM      1  C   UNL     1       7.357  -2.758  23.773  0.00  0.00    +0.123 C 
ENDROOT
BRANCH   1   2
ATOM      2  C   UNL     1       8.317  -1.725  23.273  0.00  0.00    +0.010 A 
ATOM      3  C   UNL     1       7.996  -0.376  22.951  0.00  0.00    +0.098 A 
ATOM      4  N   UNL     1       6.808   0.263  23.039  0.00  0.00    -0.233 NA
ATOM      5  C   UNL     1       6.859   1.526  22.590  0.00  0.00    +0.224 A 
ATOM      6  N   UNL     1       7.921   2.196  22.102  0.00  0.00    -0.219 NA
ATOM      7  C   UNL     1       9.095   1.551  22.027  0.00  0.00    +0.144 A 
ATOM      8  N   UNL     1      10.186   2.232  21.514  0.00  0.00    -0.341 N 
ATOM      9  H   UNL     1      11.072   2.013  21.940  0.00  0.00    +0.144 HD
ATOM     10  H   UNL     1       9.969   3.222  21.453  0.00  0.00    +0.144 HD
ATOM     11  C   UNL     1       9.140   0.238  22.467  0.00  0.00    +0.105 A 
ATOM     12  N   UNL     1      10.147  -0.694  22.513  0.00  0.00    -0.356 N 
ATOM     13  H   UNL     1      11.092  -0.532  22.192  0.00  0.00    +0.165 HD
ATOM     14  C   UNL     1       9.670  -1.877  23.012  0.00  0.00    +0.090 A 
ENDBRANCH   1   2
BRANCH   1  18
ATOM     15  C   UNL     1       6.554  -5.516  22.789  0.00  0.00    +0.134 C 
ATOM     16  C   UNL     1       5.227  -5.151  23.462  0.00  0.00    +0.043 C 
ATOM     17  C   UNL     1       5.110  -3.631  23.284  0.00  0.00    +0.091 C 
ATOM     18  N   UNL     1       6.384  -3.136  22.725  0.00  0.00    -0.295 NA
ATOM     19  C   UNL     1       6.884  -4.283  21.946  0.00  0.00    +0.116 C 
BRANCH  15  20
ATOM     20  O   UNL     1       6.426  -6.696  22.006  0.00  0.00    -0.390 OA
ATOM     21  H   UNL     1       6.912  -7.413  22.451  0.00  0.00    +0.210 HD
ENDBRANCH  15  20
BRANCH  16  22
ATOM     22  C   UNL     1       5.191  -5.621  24.919  0.00  0.00    +0.076 C 
BRANCH  22  23
ATOM     23  S   UNL     1       4.772  -4.318  26.132  0.00  0.00    -0.160 S 
BRANCH  23  24
ATOM     24  C   UNL     1       6.272  -4.322  27.166  0.00  0.00    +0.069 C 
BRANCH  24  25
ATOM     25  C   UNL     1       7.287  -5.285  26.558  0.00  0.00    +0.010 C 
BRANCH  25  26
ATOM     26  C   UNL     1       8.689  -4.676  26.537  0.00  0.00    -0.003 C 
ATOM     27  C   UNL     1       9.514  -5.259  25.400  0.00  0.00    +0.004 C 
ENDBRANCH  25  26
ENDBRANCH  24  25
ENDBRANCH  23  24
ENDBRANCH  22  23
ENDBRANCH  16  22
ENDBRANCH   1  18
TORSDOF 8
ENDMDL
MODEL 4
REMARK VINA RESULT:      -6.4      1.716      2.056
REMARK  Name = 
REMARK  9 active torsions:
REMARK  status: ('A' for Active; 'I' for Inactive)
REMARK    1  A    between atoms: C_2  and  O_3
REMARK    2  A    between atoms: N_5  and  C_6
REMARK    3  A    between atoms: C_6  and  C_7
REMARK    4  A    between atoms: C_18  and  C_20
REMARK    5  A    between atoms: C_20  and  S_21
REMARK    6  A    between atoms: S_21  and  C_22
REMARK    7  A    between atoms: C_22  and  C_23
REMARK    8  A    between atoms: C_23  and  C_24
REMARK    9  A    between atoms: C_24  and  C_25
REMARK                            x       y       z     vdW  Elec       q    Type
REMARK                         _______ _______ _______ _____ _____    ______ ____
ROOT
ATOM      1  C   UNL     1       8.778  -1.427  24.750  0.00  0.00    +0.123 C 
ENDROOT
BRANCH   1   2
ATOM      2  C   UNL     1       8.459  -2.800  24.250  0.00  0.00    +0.010 A 
ATOM      3  C   UNL     1       7.423  -3.134  23.332  0.00  0.00    +0.098 A 
ATOM      4  N   UNL     1       6.541  -2.320  22.710  0.00  0.00    -0.233 NA
ATOM      5  C   UNL     1       5.658  -2.989  21.952  0.00  0.00    +0.224 A 
ATOM      6  N   UNL     1       5.575  -4.318  21.745  0.00  0.00    -0.219 NA
ATOM      7  C   UNL     1       6.461  -5.112  22.365  0.00  0.00    +0.144 A 
ATOM      8  N   UNL     1       6.371  -6.478  22.163  0.00  0.00    -0.341 N 
ATOM      9  H   UNL     1       7.250  -6.970  22.131  0.00  0.00    +0.144 HD
ATOM     10  H   UNL     1       5.742  -6.666  21.388  0.00  0.00    +0.144 HD
ATOM     11  C   UNL     1       7.413  -4.510  23.170  0.00  0.00    +0.105 A 
ATOM     12  N   UNL     1       8.430  -5.013  23.944  0.00  0.00    -0.356 N 
ATOM     13  H   UNL     1       8.640  -5.997  24.043  0.00  0.00    +0.165 HD
ATOM     14  C   UNL     1       9.080  -3.993  24.587  0.00  0.00    +0.090 A 
ENDBRANCH   1   2
BRANCH   1  18
ATOM     15  C   UNL     1       9.365   0.714  22.678  0.00  0.00    +0.134 C 
ATOM     16  C   UNL     1       9.931   1.454  23.895  0.00  0.00    +0.043 C 
ATOM     17  C   UNL     1      10.486   0.344  24.797  0.00  0.00    +0.091 C 
ATOM     18  N   UNL     1      10.079  -0.956  24.226  0.00  0.00    -0.295 NA
ATOM     19  C   UNL     1       9.985  -0.681  22.782  0.00  0.00    +0.116 C 
BRANCH  15  20
ATOM     20  O   UNL     1       9.707   1.376  21.467  0.00  0.00    -0.390 OA
ATOM     21  H   UNL     1       9.284   2.253  21.467  0.00  0.00    +0.210 HD
ENDBRANCH  15  20
BRANCH  16  22
ATOM     22  C   UNL     1       8.868   2.336  24.557  0.00  0.00    +0.076 C 
BRANCH  22  23
ATOM     23  S   UNL     1       7.142   1.875  24.165  0.00  0.00    -0.160 S 
BRANCH  23  24
ATOM     24  C   UNL     1       6.517   3.446  23.486  0.00  0.00    +0.069 C 
BRANCH  24  25
ATOM     25  C   UNL     1       7.552   4.011  22.518  0.00  0.00    +0.010 C 
BRANCH  25  26
ATOM     26  C   UNL     1       7.266   5.477  22.191  0.00  0.00    -0.003 C 
ATOM     27  C   UNL     1       8.316   6.383  22.813  0.00  0.00    +0.004 C 
ENDBRANCH  25  26
ENDBRANCH  24  25
ENDBRANCH  23  24
ENDBRANCH  22  23
ENDBRANCH  16  22
ENDBRANCH   1  18
TORSDOF 8
ENDMDL
MODEL 5
REMARK VINA RESULT:      -6.4      3.916      7.466
REMARK  Name = 
REMARK  9 active torsions:
REMARK  status: ('A' for Active; 'I' for Inactive)
REMARK    1  A    between atoms: C_2  and  O_3
REMARK    2  A    between atoms: N_5  and  C_6
REMARK    3  A    between atoms: C_6  and  C_7
REMARK    4  A    between atoms: C_18  and  C_20
REMARK    5  A    between atoms: C_20  and  S_21
REMARK    6  A    between atoms: S_21  and  C_22
REMARK    7  A    between atoms: C_22  and  C_23
REMARK    8  A    between atoms: C_23  and  C_24
REMARK    9  A    between atoms: C_24  and  C_25
REMARK                            x       y       z     vdW  Elec       q    Type
REMARK                         _______ _______ _______ _____ _____    ______ ____
ROOT
ATOM      1  C   UNL     1       8.562  -1.001  22.763  0.00  0.00    +0.123 C 
ENDROOT
BRANCH   1   2
ATOM      2  C   UNL     1       8.615   0.453  22.414  0.00  0.00    +0.010 A 
ATOM      3  C   UNL     1       7.615   1.419  22.717  0.00  0.00    +0.098 A 
ATOM      4  N   UNL     1       6.447   1.260  23.379  0.00  0.00    -0.233 NA
ATOM      5  C   UNL     1       5.716   2.385  23.428  0.00  0.00    +0.224 A 
ATOM      6  N   UNL     1       6.019   3.599  22.927  0.00  0.00    -0.219 NA
ATOM      7  C   UNL     1       7.184   3.743  22.278  0.00  0.00    +0.144 A 
ATOM      8  N   UNL     1       7.492   4.986  21.752  0.00  0.00    -0.341 N 
ATOM      9  H   UNL     1       8.467   5.241  21.786  0.00  0.00    +0.144 HD
ATOM     10  H   UNL     1       6.850   5.680  22.122  0.00  0.00    +0.144 HD
ATOM     11  C   UNL     1       8.007   2.633  22.176  0.00  0.00    +0.105 A 
ATOM     12  N   UNL     1       9.227   2.432  21.578  0.00  0.00    -0.356 N 
ATOM     13  H   UNL     1       9.742   3.142  21.075  0.00  0.00    +0.165 HD
ATOM     14  C   UNL     1       9.614   1.126  21.729  0.00  0.00    +0.090 A 
ENDBRANCH   1   2
BRANCH   1  18
ATOM     15  C   UNL     1       8.701  -0.992  25.795  0.00  0.00    +0.134 C 
ATOM     16  C   UNL     1       8.745  -2.511  25.599  0.00  0.00    +0.043 C 
ATOM     17  C   UNL     1       9.491  -2.707  24.273  0.00  0.00    +0.091 C 
ATOM     18  N   UNL     1       9.680  -1.379  23.653  0.00  0.00    -0.295 NA
ATOM     19  C   UNL     1       9.748  -0.469  24.811  0.00  0.00    +0.116 C 
BRANCH  15  20
ATOM     20  O   UNL     1       8.992  -0.639  27.142  0.00  0.00    -0.390 OA
ATOM     21  H   UNL     1       9.524  -1.352  27.538  0.00  0.00    +0.210 HD
ENDBRANCH  15  20
BRANCH  16  22
ATOM     22  C   UNL     1       7.340  -3.120  25.630  0.00  0.00    +0.076 C 
BRANCH  22  23
ATOM     23  S   UNL     1       7.302  -4.945  25.757  0.00  0.00    -0.160 S 
BRANCH  23  24
ATOM     24  C   UNL     1       6.220  -5.359  24.351  0.00  0.00    +0.069 C 
BRANCH  24  25
ATOM     25  C   UNL     1       6.177  -4.171  23.394  0.00  0.00    +0.010 C 
BRANCH  25  26
ATOM     26  C   UNL     1       6.975  -4.453  22.121  0.00  0.00    -0.003 C 
ATOM     27  C   UNL     1       6.969  -5.938  21.797  0.00  0.00    +0.004 C 
ENDBRANCH  25  26
ENDBRANCH  24  25
ENDBRANCH  23  24
ENDBRANCH  22  23
ENDBRANCH  16  22
ENDBRANCH   1  18
TORSDOF 8
ENDMDL
MODEL 6
REMARK VINA RESULT:      -6.4      3.104      3.774
REMARK  Name = 
REMARK  9 active torsions:
REMARK  status: ('A' for Active; 'I' for Inactive)
REMARK    1  A    between atoms: C_2  and  O_3
REMARK    2  A    between atoms: N_5  and  C_6
REMARK    3  A    between atoms: C_6  and  C_7
REMARK    4  A    between atoms: C_18  and  C_20
REMARK    5  A    between atoms: C_20  and  S_21
REMARK    6  A    between atoms: S_21  and  C_22
REMARK    7  A    between atoms: C_22  and  C_23
REMARK    8  A    between atoms: C_23  and  C_24
REMARK    9  A    between atoms: C_24  and  C_25
REMARK                            x       y       z     vdW  Elec       q    Type
REMARK                         _______ _______ _______ _____ _____    ______ ____
ROOT
ATOM      1  C   UNL     1       7.585  -3.036  24.793  0.00  0.00    +0.123 C 
ENDROOT
BRANCH   1   2
ATOM      2  C   UNL     1       7.361  -4.175  25.737  0.00  0.00    +0.010 A 
ATOM      3  C   UNL     1       6.120  -4.834  25.967  0.00  0.00    +0.098 A 
ATOM      4  N   UNL     1       4.916  -4.609  25.395  0.00  0.00    -0.233 NA
ATOM      5  C   UNL     1       3.944  -5.386  25.900  0.00  0.00    +0.224 A 
ATOM      6  N   UNL     1       4.044  -6.330  26.856  0.00  0.00    -0.219 NA
ATOM      7  C   UNL     1       5.247  -6.546  27.409  0.00  0.00    +0.144 A 
ATOM      8  N   UNL     1       5.349  -7.508  28.400  0.00  0.00    -0.341 N 
ATOM      9  H   UNL     1       6.209  -8.034  28.404  0.00  0.00    +0.144 HD
ATOM     10  H   UNL     1       4.501  -8.065  28.421  0.00  0.00    +0.144 HD
ATOM     11  C   UNL     1       6.312  -5.789  26.951  0.00  0.00    +0.105 A 
ATOM     12  N   UNL     1       7.639  -5.743  27.304  0.00  0.00    -0.356 N 
ATOM     13  H   UNL     1       8.060  -6.313  28.024  0.00  0.00    +0.165 HD
ATOM     14  C   UNL     1       8.287  -4.786  26.567  0.00  0.00    +0.090 A 
ENDBRANCH   1   2
BRANCH   1  18
ATOM     15  C   UNL     1       9.451  -1.809  22.736  0.00  0.00    +0.134 C 
ATOM     16  C   UNL     1       9.116  -0.520  23.495  0.00  0.00    +0.043 C 
ATOM     17  C   UNL     1       8.912  -0.970  24.948  0.00  0.00    +0.091 C 
ATOM     18  N   UNL     1       8.929  -2.446  24.977  0.00  0.00    -0.295 NA
ATOM     19  C   UNL     1       9.806  -2.800  23.846  0.00  0.00    +0.116 C 
BRANCH  15  20
ATOM     20  O   UNL     1      10.521  -1.604  21.822  0.00  0.00    -0.390 OA
ATOM     21  H   UNL     1      11.356  -1.605  22.322  0.00  0.00    +0.210 HD
ENDBRANCH  15  20
BRANCH  16  22
ATOM     22  C   UNL     1       7.910   0.194  22.878  0.00  0.00    +0.076 C 
BRANCH  22  23
ATOM     23  S   UNL     1       8.328   1.639  21.838  0.00  0.00    -0.160 S 
BRANCH  23  24
ATOM     24  C   UNL     1      10.081   1.875  22.276  0.00  0.00    +0.069 C 
BRANCH  24  25
ATOM     25  C   UNL     1      10.166   2.789  23.494  0.00  0.00    +0.010 C 
BRANCH  25  26
ATOM     26  C   UNL     1       8.985   3.759  23.546  0.00  0.00    -0.003 C 
ATOM     27  C   UNL     1       8.544   3.997  24.981  0.00  0.00    +0.004 C 
ENDBRANCH  25  26
ENDBRANCH  24  25
ENDBRANCH  23  24
ENDBRANCH  22  23
ENDBRANCH  16  22
ENDBRANCH   1  18
TORSDOF 8
ENDMDL
MODEL 7
REMARK VINA RESULT:      -6.3      3.556      8.406
REMARK  Name = 
REMARK  9 active torsions:
REMARK  status: ('A' for Active; 'I' for Inactive)
REMARK    1  A    between atoms: C_2  and  O_3
REMARK    2  A    between atoms: N_5  and  C_6
REMARK    3  A    between atoms: C_6  and  C_7
REMARK    4  A    between atoms: C_18  and  C_20
REMARK    5  A    between atoms: C_20  and  S_21
REMARK    6  A    between atoms: S_21  and  C_22
REMARK    7  A    between atoms: C_22  and  C_23
REMARK    8  A    between atoms: C_23  and  C_24
REMARK    9  A    between atoms: C_24  and  C_25
REMARK                            x       y       z     vdW  Elec       q    Type
REMARK                         _______ _______ _______ _____ _____    ______ ____
ROOT
ATOM      1  C   UNL     1       8.766  -0.117  23.968  0.00  0.00    +0.123 C 
ENDROOT
BRANCH   1   2
ATOM      2  C   UNL     1       9.292   1.221  23.551  0.00  0.00    +0.010 A 
ATOM      3  C   UNL     1       9.009   2.462  24.187  0.00  0.00    +0.098 A 
ATOM      4  N   UNL     1       8.251   2.708  25.279  0.00  0.00    -0.233 NA
ATOM      5  C   UNL     1       8.154   4.016  25.565  0.00  0.00    +0.224 A 
ATOM      6  N   UNL     1       8.720   5.055  24.920  0.00  0.00    -0.219 NA
ATOM      7  C   UNL     1       9.475   4.794  23.841  0.00  0.00    +0.144 A 
ATOM      8  N   UNL     1      10.048   5.861  23.170  0.00  0.00    -0.341 N 
ATOM      9  H   UNL     1      10.964   5.688  22.786  0.00  0.00    +0.144 HD
ATOM     10  H   UNL     1       9.967   6.700  23.734  0.00  0.00    +0.144 HD
ATOM     11  C   UNL     1       9.632   3.470  23.468  0.00  0.00    +0.105 A 
ATOM     12  N   UNL     1      10.304   2.869  22.433  0.00  0.00    -0.356 N 
ATOM     13  H   UNL     1      10.827   3.366  21.725  0.00  0.00    +0.165 HD
ATOM     14  C   UNL     1      10.123   1.511  22.480  0.00  0.00    +0.090 A 
ENDBRANCH   1   2
BRANCH   1  18
ATOM     15  C   UNL     1       9.314  -3.071  24.400  0.00  0.00    +0.134 C 
ATOM     16  C   UNL     1       7.995  -3.223  23.633  0.00  0.00    +0.043 C 
ATOM     17  C   UNL     1       7.981  -2.042  22.654  0.00  0.00    +0.091 C 
ATOM     18  N   UNL     1       9.120  -1.161  22.982  0.00  0.00    -0.295 NA
ATOM     19  C   UNL     1      10.117  -2.088  23.547  0.00  0.00    +0.116 C 
BRANCH  15  20
ATOM     20  O   UNL     1       9.968  -4.325  24.551  0.00  0.00    -0.390 OA
ATOM     21  H   UNL     1      10.817  -4.175  25.003  0.00  0.00    +0.210 HD
ENDBRANCH  15  20
BRANCH  16  22
ATOM     22  C   UNL     1       6.797  -3.270  24.586  0.00  0.00    +0.076 C 
BRANCH  22  23
ATOM     23  S   UNL     1       6.378  -4.940  25.203  0.00  0.00    -0.160 S 
BRANCH  23  24
ATOM     24  C   UNL     1       4.717  -5.159  24.488  0.00  0.00    +0.069 C 
BRANCH  24  25
ATOM     25  C   UNL     1       4.815  -5.042  22.970  0.00  0.00    +0.010 C 
BRANCH  25  26
ATOM     26  C   UNL     1       5.756  -6.097  22.389  0.00  0.00    -0.003 C 
ATOM     27  C   UNL     1       6.317  -5.643  21.051  0.00  0.00    +0.004 C 
ENDBRANCH  25  26
ENDBRANCH  24  25
ENDBRANCH  23  24
ENDBRANCH  22  23
ENDBRANCH  16  22
ENDBRANCH   1  18
TORSDOF 8
ENDMDL
MODEL 8
REMARK VINA RESULT:      -6.2      2.261      2.822
REMARK  Name = 
REMARK  9 active torsions:
REMARK  status: ('A' for Active; 'I' for Inactive)
REMARK    1  A    between atoms: C_2  and  O_3
REMARK    2  A    between atoms: N_5  and  C_6
REMARK    3  A    between atoms: C_6  and  C_7
REMARK    4  A    between atoms: C_18  and  C_20
REMARK    5  A    between atoms: C_20  and  S_21
REMARK    6  A    between atoms: S_21  and  C_22
REMARK    7  A    between atoms: C_22  and  C_23
REMARK    8  A    between atoms: C_23  and  C_24
REMARK    9  A    between atoms: C_24  and  C_25
REMARK                            x       y       z     vdW  Elec       q    Type
REMARK                         _______ _______ _______ _____ _____    ______ ____
ROOT
ATOM      1  C   UNL     1       8.240  -0.845  23.702  0.00  0.00    +0.123 C 
ENDROOT
BRANCH   1   2
ATOM      2  C   UNL     1       7.890  -1.821  24.781  0.00  0.00    +0.010 A 
ATOM      3  C   UNL     1       8.512  -3.084  24.995  0.00  0.00    +0.098 A 
ATOM      4  N   UNL     1       9.531  -3.659  24.317  0.00  0.00    -0.233 NA
ATOM      5  C   UNL     1       9.822  -4.892  24.760  0.00  0.00    +0.224 A 
ATOM      6  N   UNL     1       9.246  -5.574  25.768  0.00  0.00    -0.219 NA
ATOM      7  C   UNL     1       8.240  -4.988  26.435  0.00  0.00    +0.144 A 
ATOM      8  N   UNL     1       7.637  -5.691  27.464  0.00  0.00    -0.341 N 
ATOM      9  H   UNL     1       7.339  -5.137  28.251  0.00  0.00    +0.144 HD
ATOM     10  H   UNL     1       8.202  -6.503  27.697  0.00  0.00    +0.144 HD
ATOM     11  C   UNL     1       7.867  -3.711  26.048  0.00  0.00    +0.105 A 
ATOM     12  N   UNL     1       6.892  -2.852  26.493  0.00  0.00    -0.356 N 
ATOM     13  H   UNL     1       6.243  -3.060  27.238  0.00  0.00    +0.165 HD
ATOM     14  C   UNL     1       6.905  -1.701  25.749  0.00  0.00    +0.090 A 
ENDBRANCH   1   2
BRANCH   1  18
ATOM     15  C   UNL     1       9.659   1.602  22.600  0.00  0.00    +0.134 C 
ATOM     16  C   UNL     1       9.850   1.915  24.088  0.00  0.00    +0.043 C 
ATOM     17  C   UNL     1       9.978   0.540  24.757  0.00  0.00    +0.091 C 
ATOM     18  N   UNL     1       9.675  -0.492  23.745  0.00  0.00    -0.295 NA
ATOM     19  C   UNL     1      10.089   0.139  22.479  0.00  0.00    +0.116 C 
BRANCH  15  20
ATOM     20  O   UNL     1      10.438   2.471  21.787  0.00  0.00    -0.390 OA
ATOM     21  H   UNL     1      10.971   1.927  21.181  0.00  0.00    +0.210 HD
ENDBRANCH  15  20
BRANCH  16  22
ATOM     22  C   UNL     1       8.707   2.778  24.629  0.00  0.00    +0.076 C 
BRANCH  22  23
ATOM     23  S   UNL     1       8.545   4.417  23.831  0.00  0.00    -0.160 S 
BRANCH  23  24
ATOM     24  C   UNL     1       8.939   5.515  25.231  0.00  0.00    +0.069 C 
BRANCH  24  25
ATOM     25  C   UNL     1      10.129   6.390  24.851  0.00  0.00    +0.010 C 
BRANCH  25  26
ATOM     26  C   UNL     1      10.893   5.806  23.662  0.00  0.00    -0.003 C 
ATOM     27  C   UNL     1      12.391   5.832  23.917  0.00  0.00    +0.004 C 
ENDBRANCH  25  26
ENDBRANCH  24  25
ENDBRANCH  23  24
ENDBRANCH  22  23
ENDBRANCH  16  22
ENDBRANCH   1  18
TORSDOF 8
ENDMDL
MODEL 9
REMARK VINA RESULT:      -6.1      3.525      5.655
REMARK  Name = 
REMARK  9 active torsions:
REMARK  status: ('A' for Active; 'I' for Inactive)
REMARK    1  A    between atoms: C_2  and  O_3
REMARK    2  A    between atoms: N_5  and  C_6
REMARK    3  A    between atoms: C_6  and  C_7
REMARK    4  A    between atoms: C_18  and  C_20
REMARK    5  A    between atoms: C_20  and  S_21
REMARK    6  A    between atoms: S_21  and  C_22
REMARK    7  A    between atoms: C_22  and  C_23
REMARK    8  A    between atoms: C_23  and  C_24
REMARK    9  A    between atoms: C_24  and  C_25
REMARK                            x       y       z     vdW  Elec       q    Type
REMARK                         _______ _______ _______ _____ _____    ______ ____
ROOT
ATOM      1  C   UNL     1       5.830  -5.612  23.197  0.00  0.00    +0.123 C 
ENDROOT
BRANCH   1   2
ATOM      2  C   UNL     1       5.254  -6.151  24.468  0.00  0.00    +0.010 A 
ATOM      3  C   UNL     1       5.810  -5.991  25.769  0.00  0.00    +0.098 A 
ATOM      4  N   UNL     1       6.926  -5.326  26.144  0.00  0.00    -0.233 NA
ATOM      5  C   UNL     1       7.184  -5.435  27.456  0.00  0.00    +0.224 A 
ATOM      6  N   UNL     1       6.473  -6.091  28.394  0.00  0.00    -0.219 NA
ATOM      7  C   UNL     1       5.364  -6.740  28.008  0.00  0.00    +0.144 A 
ATOM      8  N   UNL     1       4.638  -7.425  28.968  0.00  0.00    -0.341 N 
ATOM      9  H   UNL     1       3.638  -7.414  28.843  0.00  0.00    +0.144 HD
ATOM     10  H   UNL     1       4.960  -7.157  29.893  0.00  0.00    +0.144 HD
ATOM     11  C   UNL     1       5.017  -6.685  26.668  0.00  0.00    +0.105 A 
ATOM     12  N   UNL     1       3.984  -7.238  25.951  0.00  0.00    -0.356 N 
ATOM     13  H   UNL     1       3.264  -7.825  26.347  0.00  0.00    +0.165 HD
ATOM     14  C   UNL     1       4.104  -6.910  24.626  0.00  0.00    +0.090 A 
ENDBRANCH   1   2
BRANCH   1  18
ATOM     15  C   UNL     1       5.717  -2.654  23.867  0.00  0.00    +0.134 C 
ATOM     16  C   UNL     1       6.299  -2.516  22.456  0.00  0.00    +0.043 C 
ATOM     17  C   UNL     1       5.691  -3.686  21.673  0.00  0.00    +0.091 C 
ATOM     18  N   UNL     1       4.970  -4.552  22.628  0.00  0.00    -0.295 NA
ATOM     19  C   UNL     1       4.541  -3.615  23.682  0.00  0.00    +0.116 C 
BRANCH  15  20
ATOM     20  O   UNL     1       5.315  -1.391  24.383  0.00  0.00    -0.390 OA
ATOM     21  H   UNL     1       5.070  -0.818  23.635  0.00  0.00    +0.210 HD
ENDBRANCH  15  20
BRANCH  16  22
ATOM     22  C   UNL     1       7.830  -2.499  22.483  0.00  0.00    +0.076 C 
BRANCH  22  23
ATOM     23  S   UNL     1       8.566  -0.935  23.083  0.00  0.00    -0.160 S 
BRANCH  23  24
ATOM     24  C   UNL     1       9.359  -0.327  21.559  0.00  0.00    +0.069 C 
BRANCH  24  25
ATOM     25  C   UNL     1       9.442   1.194  21.620  0.00  0.00    +0.010 C 
BRANCH  25  26
ATOM     26  C   UNL     1      10.207   1.661  22.859  0.00  0.00    -0.003 C 
ATOM     27  C   UNL     1       9.519   2.856  23.500  0.00  0.00    +0.004 C 
ENDBRANCH  25  26
ENDBRANCH  24  25
ENDBRANCH  23  24
ENDBRANCH  22  23
ENDBRANCH  16  22
ENDBRANCH   1  18
TORSDOF 8
ENDMDL
