MODEL 1
REMARK VINA RESULT:      -7.4      0.000      0.000
REMARK  Name = 
REMARK  8 active torsions:
REMARK  status: ('A' for Active; 'I' for Inactive)
REMARK    1  A    between atoms: N_6  and  C_7
REMARK    2  A    between atoms: C_16  and  C_21
REMARK    3  A    between atoms: N_19  and  C_20
REMARK    4  A    between atoms: N_23  and  CA_24
REMARK    5  A    between atoms: CA_24  and  C_25
REMARK    6  A    between atoms: CA_24  and  C_27
REMARK    7  A    between atoms: C_25  and  C_26
REMARK    8  A    between atoms: C_27  and  O_28
REMARK                            x       y       z     vdW  Elec       q    Type
REMARK                         _______ _______ _______ _____ _____    ______ ____
ROOT
ATOM      1  C   UNL     1       8.974   0.043  23.848  0.00  0.00    +0.091 C 
ATOM      2  N   UNL     1       7.718   0.089  23.124  0.00  0.00    -0.297 NA
ATOM      3  C   UNL     1       7.307   1.340  22.518  0.00  0.00    +0.105 C 
ATOM      4  C   UNL     1       7.367  -1.194  22.631  0.00  0.00    +0.101 C 
ATOM      5  C   UNL     1       8.725  -1.904  22.405  0.00  0.00    +0.112 C 
ATOM      6  C   UNL     1       9.854  -0.625  22.039  0.00  0.00    -0.007 C 
ATOM      7  C   UNL     1       9.957   0.598  22.823  0.00  0.00    -0.025 C 
ATOM      8  C   UNL     1      10.013   1.975  23.795  0.00  0.00    -0.011 A 
ATOM      9  C   UNL     1      10.570   3.178  23.356  0.00  0.00    +0.009 A 
ATOM     10  C   UNL     1       9.996   4.426  23.735  0.00  0.00    +0.003 A 
ATOM     11  C   UNL     1       8.818   4.565  24.511  0.00  0.00    +0.026 A 
ATOM     12  C   UNL     1       8.319   3.411  25.093  0.00  0.00    +0.050 A 
ATOM     13  N   UNL     1       7.168   3.122  25.839  0.00  0.00    -0.349 N 
ATOM     14  C   UNL     1       6.070   3.989  26.206  0.00  0.00    +0.149 C 
ATOM     15  C   UNL     1       7.100   1.787  26.110  0.00  0.00    +0.090 A 
ATOM     16  C   UNL     1       8.248   1.271  25.602  0.00  0.00    -0.020 A 
ATOM     17  C   UNL     1       8.994   2.213  24.860  0.00  0.00    +0.011 A 
ATOM     18  C   UNL     1       8.605  -0.072  25.335  0.00  0.00    +0.061 C 
ENDROOT
BRANCH   5  19
ATOM     19  C   UNL     1       9.297  -2.642  23.649  0.00  0.00    +0.221 C 
ATOM     20  N   UNL     1       8.248  -3.047  24.505  0.00  0.00    -0.310 N 
ATOM     21  H   UNL     1       7.322  -3.080  24.109  0.00  0.00    +0.149 HD
ATOM     22  O   UNL     1      10.469  -3.001  23.735  0.00  0.00    -0.275 OA
BRANCH  20  23
ATOM     23  CA  UNL     1       8.404  -3.966  25.633  0.00  0.00    +0.098 C 
BRANCH  23  24
ATOM     24  C   UNL     1       7.077  -3.940  26.363  0.00  0.00    +0.021 C 
ATOM     25  C   UNL     1       6.859  -5.243  27.119  0.00  0.00    +0.006 C 
ENDBRANCH  23  24
BRANCH  23  26
ATOM     26  C   UNL     1       8.792  -5.401  25.157  0.00  0.00    +0.178 C 
BRANCH  26  27
ATOM     27  O   UNL     1      10.193  -5.642  25.234  0.00  0.00    -0.393 OA
ATOM     28  H   UNL     1      10.424  -5.766  26.171  0.00  0.00    +0.209 HD
ENDBRANCH  26  27
ENDBRANCH  23  26
ENDBRANCH  20  23
ENDBRANCH   5  19
TORSDOF 5
ENDMDL
MODEL 2
REMARK VINA RESULT:      -7.0      2.159      3.016
REMARK  Name = 
REMARK  8 active torsions:
REMARK  status: ('A' for Active; 'I' for Inactive)
REMARK    1  A    between atoms: N_6  and  C_7
REMARK    2  A    between atoms: C_16  and  C_21
REMARK    3  A    between atoms: N_19  and  C_20
REMARK    4  A    between atoms: N_23  and  CA_24
REMARK    5  A    between atoms: CA_24  and  C_25
REMARK    6  A    between atoms: CA_24  and  C_27
REMARK    7  A    between atoms: C_25  and  C_26
REMARK    8  A    between atoms: C_27  and  O_28
REMARK                            x       y       z     vdW  Elec       q    Type
REMARK                         _______ _______ _______ _____ _____    ______ ____
ROOT
ATOM      1  C   UNL     1       8.293  -1.668  24.188  0.00  0.00    +0.091 C 
ATOM      2  N   UNL     1       8.136  -1.923  22.770  0.00  0.00    -0.297 NA
ATOM      3  C   UNL     1       8.890  -1.120  21.827  0.00  0.00    +0.105 C 
ATOM      4  C   UNL     1       7.729  -3.262  22.535  0.00  0.00    +0.101 C 
ATOM      5  C   UNL     1       8.326  -4.059  23.722  0.00  0.00    +0.112 C 
ATOM      6  C   UNL     1       9.768  -3.190  24.177  0.00  0.00    -0.007 C 
ATOM      7  C   UNL     1       9.806  -1.746  24.365  0.00  0.00    -0.025 C 
ATOM      8  C   UNL     1       9.751  -0.073  24.570  0.00  0.00    -0.011 A 
ATOM      9  C   UNL     1      10.898   0.723  24.530  0.00  0.00    +0.009 A 
ATOM     10  C   UNL     1      10.861   2.022  23.944  0.00  0.00    +0.003 A 
ATOM     11  C   UNL     1       9.722   2.588  23.317  0.00  0.00    +0.026 A 
ATOM     12  C   UNL     1       8.528   1.903  23.465  0.00  0.00    +0.050 A 
ATOM     13  N   UNL     1       7.238   2.081  22.946  0.00  0.00    -0.349 N 
ATOM     14  C   UNL     1       6.754   3.070  22.009  0.00  0.00    +0.149 C 
ATOM     15  C   UNL     1       6.422   1.063  23.341  0.00  0.00    +0.090 A 
ATOM     16  C   UNL     1       7.187   0.305  24.167  0.00  0.00    -0.020 A 
ATOM     17  C   UNL     1       8.539   0.714  24.196  0.00  0.00    +0.011 A 
ATOM     18  C   UNL     1       6.983  -1.010  24.650  0.00  0.00    +0.061 C 
ENDROOT
BRANCH   5  19
ATOM     19  C   UNL     1       7.432  -4.109  24.995  0.00  0.00    +0.221 C 
ATOM     20  N   UNL     1       6.099  -4.423  24.647  0.00  0.00    -0.310 N 
ATOM     21  H   UNL     1       5.948  -4.837  23.741  0.00  0.00    +0.149 HD
ATOM     22  O   UNL     1       7.890  -4.097  26.135  0.00  0.00    -0.275 OA
BRANCH  20  23
ATOM     23  CA  UNL     1       5.054  -4.785  25.605  0.00  0.00    +0.098 C 
BRANCH  23  24
ATOM     24  C   UNL     1       3.743  -4.500  24.901  0.00  0.00    +0.021 C 
ATOM     25  C   UNL     1       3.931  -4.538  23.391  0.00  0.00    +0.006 C 
ENDBRANCH  23  24
BRANCH  23  26
ATOM     26  C   UNL     1       5.176  -6.275  26.055  0.00  0.00    +0.178 C 
BRANCH  26  27
ATOM     27  O   UNL     1       6.106  -6.449  27.119  0.00  0.00    -0.393 OA
ATOM     28  H   UNL     1       6.612  -5.624  27.212  0.00  0.00    +0.209 HD
ENDBRANCH  26  27
ENDBRANCH  23  26
ENDBRANCH  20  23
ENDBRANCH   5  19
TORSDOF 5
ENDMDL
MODEL 3
REMARK VINA RESULT:      -7.0      2.817      6.495
REMARK  Name = 
REMARK  8 active torsions:
REMARK  status: ('A' for Active; 'I' for Inactive)
REMARK    1  A    between atoms: N_6  and  C_7
REMARK    2  A    between atoms: C_16  and  C_21
REMARK    3  A    between atoms: N_19  and  C_20
REMARK    4  A    between atoms: N_23  and  CA_24
REMARK    5  A    between atoms: CA_24  and  C_25
REMARK    6  A    between atoms: CA_24  and  C_27
REMARK    7  A    between atoms: C_25  and  C_26
REMARK    8  A    between atoms: C_27  and  O_28
REMARK                            x       y       z     vdW  Elec       q    Type
REMARK                         _______ _______ _______ _____ _____    ______ ____
ROOT
ATOM      1  C   UNL     1       8.293  -1.050  23.364  0.00  0.00    +0.091 C 
ATOM      2  N   UNL     1       8.877  -1.246  24.677  0.00  0.00    -0.297 NA
ATOM      3  C   UNL     1       8.799  -2.559  25.287  0.00  0.00    +0.105 C 
ATOM      4  C   UNL     1       9.918  -0.311  24.916  0.00  0.00    +0.101 C 
ATOM      5  C   UNL     1      10.487  -0.001  23.509  0.00  0.00    +0.112 C 
ATOM      6  C   UNL     1      10.220  -1.452  22.578  0.00  0.00    -0.007 C 
ATOM      7  C   UNL     1       8.947  -2.160  22.550  0.00  0.00    -0.025 C 
ATOM      8  C   UNL     1       7.436  -2.907  22.571  0.00  0.00    -0.011 A 
ATOM      9  C   UNL     1       7.255  -4.242  22.202  0.00  0.00    +0.009 A 
ATOM     10  C   UNL     1       6.311  -5.063  22.885  0.00  0.00    +0.003 A 
ATOM     11  C   UNL     1       5.537  -4.644  23.996  0.00  0.00    +0.026 A 
ATOM     12  C   UNL     1       5.569  -3.293  24.300  0.00  0.00    +0.050 A 
ATOM     13  N   UNL     1       5.028  -2.520  25.336  0.00  0.00    -0.349 N 
ATOM     14  C   UNL     1       4.265  -2.938  26.491  0.00  0.00    +0.149 C 
ATOM     15  C   UNL     1       5.430  -1.222  25.221  0.00  0.00    +0.090 A 
ATOM     16  C   UNL     1       6.148  -1.182  24.070  0.00  0.00    -0.020 A 
ATOM     17  C   UNL     1       6.364  -2.461  23.510  0.00  0.00    +0.011 A 
ATOM     18  C   UNL     1       7.036  -0.193  23.582  0.00  0.00    +0.061 C 
ENDROOT
BRANCH   5  19
ATOM     19  C   UNL     1       9.763   1.143  22.744  0.00  0.00    +0.221 C 
ATOM     20  N   UNL     1       9.471   2.212  23.621  0.00  0.00    -0.310 N 
ATOM     21  H   UNL     1       9.982   2.244  24.489  0.00  0.00    +0.149 HD
ATOM     22  O   UNL     1       9.675   1.178  21.519  0.00  0.00    -0.275 OA
BRANCH  20  23
ATOM     23  CA  UNL     1       9.016   3.536  23.194  0.00  0.00    +0.098 C 
BRANCH  23  24
ATOM     24  C   UNL     1       7.518   3.542  23.421  0.00  0.00    +0.021 C 
ATOM     25  C   UNL     1       6.780   3.340  22.105  0.00  0.00    +0.006 C 
ENDBRANCH  23  24
BRANCH  23  26
ATOM     26  C   UNL     1       9.741   4.675  23.978  0.00  0.00    +0.178 C 
BRANCH  26  27
ATOM     27  O   UNL     1      10.195   5.721  23.127  0.00  0.00    -0.393 OA
ATOM     28  H   UNL     1       9.520   6.421  23.127  0.00  0.00    +0.209 HD
ENDBRANCH  26  27
ENDBRANCH  23  26
ENDBRANCH  20  23
ENDBRANCH   5  19
TORSDOF 5
ENDMDL
MODEL 4
REMARK VINA RESULT:      -6.9      2.624      6.613
REMARK  Name = 
REMARK  8 active torsions:
REMARK  status: ('A' for Active; 'I' for Inactive)
REMARK    1  A    between atoms: N_6  and  C_7
REMARK    2  A    between atoms: C_16  and  C_21
REMARK    3  A    between atoms: N_19  and  C_20
REMARK    4  A    between atoms: N_23  and  CA_24
REMARK    5  A    between atoms: CA_24  and  C_25
REMARK    6  A    between atoms: CA_24  and  C_27
REMARK    7  A    between atoms: C_25  and  C_26
REMARK    8  A    between atoms: C_27  and  O_28
REMARK                            x       y       z     vdW  Elec       q    Type
REMARK                         _______ _______ _______ _____ _____    ______ ____
ROOT
ATOM      1  C   UNL     1       8.177  -1.074  23.196  0.00  0.00    +0.091 C 
ATOM      2  N   UNL     1       9.392  -1.318  23.949  0.00  0.00    -0.297 NA
ATOM      3  C   UNL     1       9.826  -2.686  24.151  0.00  0.00    +0.105 C 
ATOM      4  C   UNL     1      10.265  -0.202  23.882  0.00  0.00    +0.101 C 
ATOM      5  C   UNL     1       9.949   0.453  22.514  0.00  0.00    +0.112 C 
ATOM      6  C   UNL     1       9.420  -0.858  21.492  0.00  0.00    -0.007 C 
ATOM      7  C   UNL     1       8.436  -1.848  21.907  0.00  0.00    -0.025 C 
ATOM      8  C   UNL     1       7.283  -2.942  22.470  0.00  0.00    -0.011 A 
ATOM      9  C   UNL     1       7.112  -4.206  21.903  0.00  0.00    +0.009 A 
ATOM     10  C   UNL     1       6.796  -5.332  22.719  0.00  0.00    +0.003 A 
ATOM     11  C   UNL     1       6.687  -5.295  24.132  0.00  0.00    +0.026 A 
ATOM     12  C   UNL     1       6.698  -4.042  24.722  0.00  0.00    +0.050 A 
ATOM     13  N   UNL     1       6.698  -3.597  26.051  0.00  0.00    -0.349 N 
ATOM     14  C   UNL     1       6.733  -4.364  27.276  0.00  0.00    +0.149 C 
ATOM     15  C   UNL     1       6.800  -2.238  26.098  0.00  0.00    +0.090 A 
ATOM     16  C   UNL     1       6.781  -1.844  24.799  0.00  0.00    -0.020 A 
ATOM     17  C   UNL     1       6.831  -2.927  23.894  0.00  0.00    +0.011 A 
ATOM     18  C   UNL     1       7.131  -0.602  24.216  0.00  0.00    +0.061 C 
ENDROOT
BRANCH   5  19
ATOM     19  C   UNL     1       8.785   1.484  22.532  0.00  0.00    +0.221 C 
ATOM     20  N   UNL     1       8.736   2.148  23.778  0.00  0.00    -0.310 N 
ATOM     21  H   UNL     1       9.564   2.106  24.352  0.00  0.00    +0.149 HD
ATOM     22  O   UNL     1       8.162   1.809  21.524  0.00  0.00    -0.275 OA
BRANCH  20  23
ATOM     23  CA  UNL     1       7.929   3.337  24.055  0.00  0.00    +0.098 C 
BRANCH  23  24
ATOM     24  C   UNL     1       7.892   3.459  25.565  0.00  0.00    +0.021 C 
ATOM     25  C   UNL     1       7.946   4.922  25.982  0.00  0.00    +0.006 C 
ENDBRANCH  23  24
BRANCH  23  26
ATOM     26  C   UNL     1       8.522   4.609  23.370  0.00  0.00    +0.178 C 
BRANCH  26  27
ATOM     27  O   UNL     1       7.934   4.868  22.100  0.00  0.00    -0.393 OA
ATOM     28  H   UNL     1       8.571   4.599  21.415  0.00  0.00    +0.209 HD
ENDBRANCH  26  27
ENDBRANCH  23  26
ENDBRANCH  20  23
ENDBRANCH   5  19
TORSDOF 5
ENDMDL
MODEL 5
REMARK VINA RESULT:      -6.5      2.521      7.054
REMARK  Name = 
REMARK  8 active torsions:
REMARK  status: ('A' for Active; 'I' for Inactive)
REMARK    1  A    between atoms: N_6  and  C_7
REMARK    2  A    between atoms: C_16  and  C_21
REMARK    3  A    between atoms: N_19  and  C_20
REMARK    4  A    between atoms: N_23  and  CA_24
REMARK    5  A    between atoms: CA_24  and  C_25
REMARK    6  A    between atoms: CA_24  and  C_27
REMARK    7  A    between atoms: C_25  and  C_26
REMARK    8  A    between atoms: C_27  and  O_28
REMARK                            x       y       z     vdW  Elec       q    Type
REMARK                         _______ _______ _______ _____ _____    ______ ____
ROOT
ATOM      1  C   UNL     1       7.560  -1.851  25.180  0.00  0.00    +0.091 C 
ATOM      2  N   UNL     1       6.287  -1.304  24.755  0.00  0.00    -0.297 NA
ATOM      3  C   UNL     1       5.073  -2.032  25.070  0.00  0.00    +0.105 C 
ATOM      4  C   UNL     1       6.360   0.105  24.608  0.00  0.00    +0.101 C 
ATOM      5  C   UNL     1       7.443   0.542  25.627  0.00  0.00    +0.112 C 
ATOM      6  C   UNL     1       7.366  -0.639  26.909  0.00  0.00    -0.007 C 
ATOM      7  C   UNL     1       7.333  -2.076  26.671  0.00  0.00    -0.025 C 
ATOM      8  C   UNL     1       7.308  -3.720  26.300  0.00  0.00    -0.011 A 
ATOM      9  C   UNL     1       6.850  -4.683  27.202  0.00  0.00    +0.009 A 
ATOM     10  C   UNL     1       6.120  -5.819  26.744  0.00  0.00    +0.003 A 
ATOM     11  C   UNL     1       5.750  -6.044  25.394  0.00  0.00    +0.026 A 
ATOM     12  C   UNL     1       6.308  -5.200  24.448  0.00  0.00    +0.050 A 
ATOM     13  N   UNL     1       6.136  -5.046  23.066  0.00  0.00    -0.349 N 
ATOM     14  C   UNL     1       5.235  -5.736  22.170  0.00  0.00    +0.149 C 
ATOM     15  C   UNL     1       6.875  -3.994  22.610  0.00  0.00    +0.090 A 
ATOM     16  C   UNL     1       7.562  -3.556  23.695  0.00  0.00    -0.020 A 
ATOM     17  C   UNL     1       7.168  -4.195  24.892  0.00  0.00    +0.011 A 
ATOM     18  C   UNL     1       8.261  -2.343  23.904  0.00  0.00    +0.061 C 
ENDROOT
BRANCH   5  19
ATOM     19  C   UNL     1       8.903   0.503  25.091  0.00  0.00    +0.221 C 
ATOM     20  N   UNL     1       8.992   1.190  23.859  0.00  0.00    -0.310 N 
ATOM     21  H   UNL     1       8.242   1.825  23.634  0.00  0.00    +0.149 HD
ATOM     22  O   UNL     1       9.855   0.124  25.768  0.00  0.00    -0.275 OA
BRANCH  20  23
ATOM     23  CA  UNL     1      10.247   1.554  23.200  0.00  0.00    +0.098 C 
BRANCH  23  24
ATOM     24  C   UNL     1       9.950   1.518  21.715  0.00  0.00    +0.021 C 
ATOM     25  C   UNL     1       8.454   1.367  21.476  0.00  0.00    +0.006 C 
ENDBRANCH  23  24
BRANCH  23  26
ATOM     26  C   UNL     1      10.759   2.952  23.671  0.00  0.00    +0.178 C 
BRANCH  26  27
ATOM     27  O   UNL     1      11.248   3.745  22.594  0.00  0.00    -0.393 OA
ATOM     28  H   UNL     1      12.174   3.972  22.786  0.00  0.00    +0.209 HD
ENDBRANCH  26  27
ENDBRANCH  23  26
ENDBRANCH  20  23
ENDBRANCH   5  19
TORSDOF 5
ENDMDL
MODEL 6
REMARK VINA RESULT:      -6.4      2.077      2.792
REMARK  Name = 
REMARK  8 active torsions:
REMARK  status: ('A' for Active; 'I' for Inactive)
REMARK    1  A    between atoms: N_6  and  C_7
REMARK    2  A    between atoms: C_16  and  C_21
REMARK    3  A    between atoms: N_19  and  C_20
REMARK    4  A    between atoms: N_23  and  CA_24
REMARK    5  A    between atoms: CA_24  and  C_25
REMARK    6  A    between atoms: CA_24  and  C_27
REMARK    7  A    between atoms: C_25  and  C_26
REMARK    8  A    between atoms: C_27  and  O_28
REMARK                            x       y       z     vdW  Elec       q    Type
REMARK                         _______ _______ _______ _____ _____    ______ ____
ROOT
ATOM      1  C   UNL     1       7.875  -2.106  23.936  0.00  0.00    +0.091 C 
ATOM      2  N   UNL     1       6.700  -1.546  23.298  0.00  0.00    -0.297 NA
ATOM      3  C   UNL     1       6.784  -0.218  22.723  0.00  0.00    +0.105 C 
ATOM      4  C   UNL     1       5.839  -2.571  22.826  0.00  0.00    +0.101 C 
ATOM      5  C   UNL     1       6.787  -3.754  22.508  0.00  0.00    +0.112 C 
ATOM      6  C   UNL     1       8.307  -3.016  22.071  0.00  0.00    -0.007 C 
ATOM      7  C   UNL     1       8.935  -1.958  22.849  0.00  0.00    -0.025 C 
ATOM      8  C   UNL     1       9.591  -0.744  23.818  0.00  0.00    -0.011 A 
ATOM      9  C   UNL     1      10.553   0.152  23.346  0.00  0.00    +0.009 A 
ATOM     10  C   UNL     1      10.545   1.514  23.766  0.00  0.00    +0.003 A 
ATOM     11  C   UNL     1       9.568   2.086  24.619  0.00  0.00    +0.026 A 
ATOM     12  C   UNL     1       8.688   1.208  25.231  0.00  0.00    +0.050 A 
ATOM     13  N   UNL     1       7.564   1.378  26.051  0.00  0.00    -0.349 N 
ATOM     14  C   UNL     1       6.926   2.597  26.493  0.00  0.00    +0.149 C 
ATOM     15  C   UNL     1       6.988   0.172  26.322  0.00  0.00    +0.090 A 
ATOM     16  C   UNL     1       7.804  -0.742  25.738  0.00  0.00    -0.020 A 
ATOM     17  C   UNL     1       8.817  -0.153  24.950  0.00  0.00    +0.011 A 
ATOM     18  C   UNL     1       7.581  -2.109  25.444  0.00  0.00    +0.061 C 
ENDROOT
BRANCH   5  19
ATOM     19  C   UNL     1       7.093  -4.693  23.710  0.00  0.00    +0.221 C 
ATOM     20  N   UNL     1       5.908  -4.975  24.426  0.00  0.00    -0.310 N 
ATOM     21  H   UNL     1       5.035  -4.802  23.952  0.00  0.00    +0.149 HD
ATOM     22  O   UNL     1       8.169  -5.267  23.854  0.00  0.00    -0.275 OA
BRANCH  20  23
ATOM     23  CA  UNL     1       5.787  -6.005  25.458  0.00  0.00    +0.098 C 
BRANCH  23  24
ATOM     24  C   UNL     1       5.802  -5.260  26.778  0.00  0.00    +0.021 C 
ATOM     25  C   UNL     1       7.180  -5.344  27.419  0.00  0.00    +0.006 C 
ENDBRANCH  23  24
BRANCH  23  26
ATOM     26  C   UNL     1       4.492  -6.857  25.271  0.00  0.00    +0.178 C 
BRANCH  26  27
ATOM     27  O   UNL     1       4.446  -7.511  24.007  0.00  0.00    -0.393 OA
ATOM     28  H   UNL     1       4.859  -8.385  24.108  0.00  0.00    +0.209 HD
ENDBRANCH  26  27
ENDBRANCH  23  26
ENDBRANCH  20  23
ENDBRANCH   5  19
TORSDOF 5
ENDMDL
MODEL 7
REMARK VINA RESULT:      -6.2      2.890      6.773
REMARK  Name = 
REMARK  8 active torsions:
REMARK  status: ('A' for Active; 'I' for Inactive)
REMARK    1  A    between atoms: N_6  and  C_7
REMARK    2  A    between atoms: C_16  and  C_21
REMARK    3  A    between atoms: N_19  and  C_20
REMARK    4  A    between atoms: N_23  and  CA_24
REMARK    5  A    between atoms: CA_24  and  C_25
REMARK    6  A    between atoms: CA_24  and  C_27
REMARK    7  A    between atoms: C_25  and  C_26
REMARK    8  A    between atoms: C_27  and  O_28
REMARK                            x       y       z     vdW  Elec       q    Type
REMARK                         _______ _______ _______ _____ _____    ______ ____
ROOT
ATOM      1  C   UNL     1       7.574  -2.204  23.914  0.00  0.00    +0.091 C 
ATOM      2  N   UNL     1       7.829  -2.596  25.286  0.00  0.00    -0.297 NA
ATOM      3  C   UNL     1       7.778  -4.003  25.632  0.00  0.00    +0.105 C 
ATOM      4  C   UNL     1       8.638  -1.637  25.948  0.00  0.00    +0.101 C 
ATOM      5  C   UNL     1       9.497  -1.014  24.819  0.00  0.00    +0.112 C 
ATOM      6  C   UNL     1       9.673  -2.278  23.630  0.00  0.00    -0.007 C 
ATOM      7  C   UNL     1       8.558  -3.077  23.141  0.00  0.00    -0.025 C 
ATOM      8  C   UNL     1       7.206  -3.943  22.628  0.00  0.00    -0.011 A 
ATOM      9  C   UNL     1       7.308  -5.194  22.014  0.00  0.00    +0.009 A 
ATOM     10  C   UNL     1       6.342  -6.211  22.271  0.00  0.00    +0.003 A 
ATOM     11  C   UNL     1       5.263  -6.081  23.181  0.00  0.00    +0.026 A 
ATOM     12  C   UNL     1       5.033  -4.816  23.695  0.00  0.00    +0.050 A 
ATOM     13  N   UNL     1       4.148  -4.307  24.655  0.00  0.00    -0.349 N 
ATOM     14  C   UNL     1       3.182  -5.004  25.475  0.00  0.00    +0.149 C 
ATOM     15  C   UNL     1       4.385  -2.980  24.864  0.00  0.00    +0.090 A 
ATOM     16  C   UNL     1       5.360  -2.658  23.976  0.00  0.00    -0.020 A 
ATOM     17  C   UNL     1       5.881  -3.782  23.298  0.00  0.00    +0.011 A 
ATOM     18  C   UNL     1       6.199  -1.519  23.914  0.00  0.00    +0.061 C 
ENDROOT
BRANCH   5  19
ATOM     19  C   UNL     1       8.841   0.187  24.080  0.00  0.00    +0.221 C 
ATOM     20  N   UNL     1       8.138   1.002  24.995  0.00  0.00    -0.310 N 
ATOM     21  H   UNL     1       8.367   0.897  25.971  0.00  0.00    +0.149 HD
ATOM     22  O   UNL     1       9.102   0.480  22.916  0.00  0.00    -0.275 OA
BRANCH  20  23
ATOM     23  CA  UNL     1       7.609   2.332  24.688  0.00  0.00    +0.098 C 
BRANCH  23  24
ATOM     24  C   UNL     1       6.290   2.090  23.982  0.00  0.00    +0.021 C 
ATOM     25  C   UNL     1       6.333   2.653  22.568  0.00  0.00    +0.006 C 
ENDBRANCH  23  24
BRANCH  23  26
ATOM     26  C   UNL     1       7.444   3.197  25.977  0.00  0.00    +0.178 C 
BRANCH  26  27
ATOM     27  O   UNL     1       7.519   2.422  27.168  0.00  0.00    -0.393 OA
ATOM     28  H   UNL     1       8.311   2.702  27.658  0.00  0.00    +0.209 HD
ENDBRANCH  26  27
ENDBRANCH  23  26
ENDBRANCH  20  23
ENDBRANCH   5  19
TORSDOF 5
ENDMDL
MODEL 8
REMARK VINA RESULT:      -6.1      2.487      3.738
REMARK  Name = 
REMARK  8 active torsions:
REMARK  status: ('A' for Active; 'I' for Inactive)
REMARK    1  A    between atoms: N_6  and  C_7
REMARK    2  A    between atoms: C_16  and  C_21
REMARK    3  A    between atoms: N_19  and  C_20
REMARK    4  A    between atoms: N_23  and  CA_24
REMARK    5  A    between atoms: CA_24  and  C_25
REMARK    6  A    between atoms: CA_24  and  C_27
REMARK    7  A    between atoms: C_25  and  C_26
REMARK    8  A    between atoms: C_27  and  O_28
REMARK                            x       y       z     vdW  Elec       q    Type
REMARK                         _______ _______ _______ _____ _____    ______ ____
ROOT
ATOM      1  C   UNL     1       7.552  -1.274  25.010  0.00  0.00    +0.091 C 
ATOM      2  N   UNL     1       8.871  -1.163  24.418  0.00  0.00    -0.297 NA
ATOM      3  C   UNL     1       9.657   0.027  24.683  0.00  0.00    +0.105 C 
ATOM      4  C   UNL     1       9.420  -2.443  24.153  0.00  0.00    +0.101 C 
ATOM      5  C   UNL     1       8.786  -3.364  25.225  0.00  0.00    +0.112 C 
ATOM      6  C   UNL     1       8.484  -2.327  26.596  0.00  0.00    -0.007 C 
ATOM      7  C   UNL     1       7.839  -1.026  26.487  0.00  0.00    -0.025 C 
ATOM      8  C   UNL     1       7.075   0.460  26.265  0.00  0.00    -0.011 A 
ATOM      9  C   UNL     1       7.160   1.492  27.203  0.00  0.00    +0.009 A 
ATOM     10  C   UNL     1       7.239   2.852  26.782  0.00  0.00    +0.003 A 
ATOM     11  C   UNL     1       7.297   3.272  25.430  0.00  0.00    +0.026 A 
ATOM     12  C   UNL     1       7.064   2.302  24.469  0.00  0.00    +0.050 A 
ATOM     13  N   UNL     1       7.112   2.296  23.068  0.00  0.00    -0.349 N 
ATOM     14  C   UNL     1       7.487   3.354  22.157  0.00  0.00    +0.149 C 
ATOM     15  C   UNL     1       6.874   1.041  22.590  0.00  0.00    +0.090 A 
ATOM     16  C   UNL     1       6.599   0.296  23.691  0.00  0.00    -0.020 A 
ATOM     17  C   UNL     1       6.810   0.999  24.898  0.00  0.00    +0.011 A 
ATOM     18  C   UNL     1       6.552  -1.109  23.855  0.00  0.00    +0.061 C 
ENDROOT
BRANCH   5  19
ATOM     19  C   UNL     1       7.411  -3.976  24.835  0.00  0.00    +0.221 C 
ATOM     20  N   UNL     1       7.411  -4.358  23.475  0.00  0.00    -0.310 N 
ATOM     21  H   UNL     1       8.309  -4.461  23.029  0.00  0.00    +0.149 HD
ATOM     22  O   UNL     1       6.553  -4.278  25.662  0.00  0.00    -0.275 OA
BRANCH  20  23
ATOM     23  CA  UNL     1       6.377  -5.178  22.842  0.00  0.00    +0.098 C 
BRANCH  23  24
ATOM     24  C   UNL     1       5.209  -4.244  22.601  0.00  0.00    +0.021 C 
ATOM     25  C   UNL     1       3.967  -4.749  23.321  0.00  0.00    +0.006 C 
ENDBRANCH  23  24
BRANCH  23  26
ATOM     26  C   UNL     1       6.893  -5.838  21.524  0.00  0.00    +0.178 C 
BRANCH  26  27
ATOM     27  O   UNL     1       6.022  -5.609  20.421  0.00  0.00    -0.393 OA
ATOM     28  H   UNL     1       5.393  -4.913  20.677  0.00  0.00    +0.209 HD
ENDBRANCH  26  27
ENDBRANCH  23  26
ENDBRANCH  20  23
ENDBRANCH   5  19
TORSDOF 5
ENDMDL
MODEL 9
REMARK VINA RESULT:      -6.1      2.655      6.541
REMARK  Name = 
REMARK  8 active torsions:
REMARK  status: ('A' for Active; 'I' for Inactive)
REMARK    1  A    between atoms: N_6  and  C_7
REMARK    2  A    between atoms: C_16  and  C_21
REMARK    3  A    between atoms: N_19  and  C_20
REMARK    4  A    between atoms: N_23  and  CA_24
REMARK    5  A    between atoms: CA_24  and  C_25
REMARK    6  A    between atoms: CA_24  and  C_27
REMARK    7  A    between atoms: C_25  and  C_26
REMARK    8  A    between atoms: C_27  and  O_28
REMARK                            x       y       z     vdW  Elec       q    Type
REMARK                         _______ _______ _______ _____ _____    ______ ____
ROOT
ATOM      1  C   UNL     1       8.608  -0.156  23.573  0.00  0.00    +0.091 C 
ATOM      2  N   UNL     1       9.981  -0.592  23.737  0.00  0.00    -0.297 NA
ATOM      3  C   UNL     1      10.330  -1.952  23.377  0.00  0.00    +0.105 C 
ATOM      4  C   UNL     1      10.876   0.508  23.676  0.00  0.00    +0.101 C 
ATOM      5  C   UNL     1      10.164   1.532  22.757  0.00  0.00    +0.112 C 
ATOM      6  C   UNL     1       9.193   0.573  21.671  0.00  0.00    -0.007 C 
ATOM      7  C   UNL     1       8.328  -0.511  22.117  0.00  0.00    -0.025 C 
ATOM      8  C   UNL     1       7.348  -1.740  22.727  0.00  0.00    -0.011 A 
ATOM      9  C   UNL     1       6.874  -2.784  21.929  0.00  0.00    +0.009 A 
ATOM     10  C   UNL     1       6.760  -4.105  22.453  0.00  0.00    +0.003 A 
ATOM     11  C   UNL     1       7.155  -4.487  23.759  0.00  0.00    +0.026 A 
ATOM     12  C   UNL     1       7.487  -3.464  24.632  0.00  0.00    +0.050 A 
ATOM     13  N   UNL     1       7.991  -3.432  25.939  0.00  0.00    -0.349 N 
ATOM     14  C   UNL     1       8.380  -4.525  26.801  0.00  0.00    +0.149 C 
ATOM     15  C   UNL     1       8.228  -2.145  26.325  0.00  0.00    +0.090 A 
ATOM     16  C   UNL     1       7.794  -1.386  25.287  0.00  0.00    -0.020 A 
ATOM     17  C   UNL     1       7.425  -2.153  24.160  0.00  0.00    +0.011 A 
ATOM     18  C   UNL     1       8.032  -0.022  24.991  0.00  0.00    +0.061 C 
ENDROOT
BRANCH   5  19
ATOM     19  C   UNL     1       9.180   2.493  23.482  0.00  0.00    +0.221 C 
ATOM     20  N   UNL     1       8.303   3.093  22.551  0.00  0.00    -0.310 N 
ATOM     21  H   UNL     1       8.219   2.649  21.650  0.00  0.00    +0.149 HD
ATOM     22  O   UNL     1       9.058   2.530  24.704  0.00  0.00    -0.275 OA
BRANCH  20  23
ATOM     23  CA  UNL     1       7.107   3.857  22.908  0.00  0.00    +0.098 C 
BRANCH  23  24
ATOM     24  C   UNL     1       7.274   5.207  22.242  0.00  0.00    +0.021 C 
ATOM     25  C   UNL     1       8.271   6.061  23.014  0.00  0.00    +0.006 C 
ENDBRANCH  23  24
BRANCH  23  26
ATOM     26  C   UNL     1       5.802   3.128  22.455  0.00  0.00    +0.178 C 
BRANCH  26  27
ATOM     27  O   UNL     1       5.712   1.803  22.967  0.00  0.00    -0.393 OA
ATOM     28  H   UNL     1       4.965   1.362  22.525  0.00  0.00    +0.209 HD
ENDBRANCH  26  27
ENDBRANCH  23  26
ENDBRANCH  20  23
ENDBRANCH   5  19
TORSDOF 5
ENDMDL
