MODEL 1
REMARK VINA RESULT:      -5.6      0.000      0.000
REMARK  Name = 
REMARK  5 active torsions:
REMARK  status: ('A' for Active; 'I' for Inactive)
REMARK    1  A    between atoms: C_2  and  O_3
REMARK    2  A    between atoms: C_6  and  C_17
REMARK    3  A    between atoms: C_8  and  C_14
REMARK    4  A    between atoms: C_14  and  O_15
REMARK    5  A    between atoms: C_17  and  O_18
REMARK                            x       y       z     vdW  Elec       q    Type
REMARK                         _______ _______ _______ _____ _____    ______ ____
ROOT
ATOM      1  C   UNL     1       9.784  -1.103  22.451  0.00  0.00    +0.166 C 
ATOM      2  C   UNL     1       9.967  -0.660  23.930  0.00  0.00    +0.153 C 
ATOM      3  C   UNL     1      10.656   0.702  24.010  0.00  0.00    +0.057 C 
ATOM      4  C   UNL     1       9.726   1.733  23.354  0.00  0.00    +0.091 C 
ATOM      5  C   UNL     1       8.443   1.783  24.205  0.00  0.00    +0.065 C 
ATOM      6  C   UNL     1       7.805   0.408  24.422  0.00  0.00    +0.228 C 
ATOM      7  C   UNL     1       9.381   1.314  21.934  0.00  0.00    -0.011 C 
ATOM      8  O   UNL     1       8.740  -0.651  24.686  0.00  0.00    -0.359 OA
ATOM      9  C   UNL     1       9.436   0.034  21.530  0.00  0.00    +0.003 C 
ENDROOT
BRANCH   4  10
ATOM     10  C   UNL     1      10.408   3.108  23.346  0.00  0.00    +0.315 C 
ATOM     11  O   UNL     1      11.608   3.288  23.502  0.00  0.00    -0.250 OA
BRANCH  10  12
ATOM     12  O   UNL     1       9.559   4.149  23.149  0.00  0.00    -0.480 OA
ATOM     13  H   UNL     1       8.801   4.167  23.763  0.00  0.00    +0.295 HD
ENDBRANCH  10  12
ENDBRANCH   4  10
BRANCH   6  14
ATOM     14  C   UNL     1       6.790   0.004  23.343  0.00  0.00    +0.334 C 
ATOM     15  O   UNL     1       6.545  -1.134  22.976  0.00  0.00    -0.248 OA
BRANCH  14  16
ATOM     16  O   UNL     1       6.194   1.097  22.796  0.00  0.00    -0.479 OA
ATOM     17  H   UNL     1       6.869   1.796  22.649  0.00  0.00    +0.295 HD
ENDBRANCH  14  16
ENDBRANCH   6  14
BRANCH   1  18
ATOM     18  O   UNL     1      11.007  -1.650  21.968  0.00  0.00    -0.385 OA
ATOM     19  H   UNL     1      10.804  -2.547  21.643  0.00  0.00    +0.210 HD
ENDBRANCH   1  18
TORSDOF 5
ENDMDL
MODEL 2
REMARK VINA RESULT:      -5.5      1.671      3.361
REMARK  Name = 
REMARK  5 active torsions:
REMARK  status: ('A' for Active; 'I' for Inactive)
REMARK    1  A    between atoms: C_2  and  O_3
REMARK    2  A    between atoms: C_6  and  C_17
REMARK    3  A    between atoms: C_8  and  C_14
REMARK    4  A    between atoms: C_14  and  O_15
REMARK    5  A    between atoms: C_17  and  O_18
REMARK                            x       y       z     vdW  Elec       q    Type
REMARK                         _______ _______ _______ _____ _____    ______ ____
ROOT
ATOM      1  C   UNL     1       9.095  -0.644  25.824  0.00  0.00    +0.166 C 
ATOM      2  C   UNL     1       7.776  -0.595  25.003  0.00  0.00    +0.153 C 
ATOM      3  C   UNL     1       7.576   0.784  24.375  0.00  0.00    +0.057 C 
ATOM      4  C   UNL     1       8.722   1.013  23.380  0.00  0.00    +0.091 C 
ATOM      5  C   UNL     1       8.576  -0.053  22.276  0.00  0.00    +0.065 C 
ATOM      6  C   UNL     1       8.491  -1.481  22.822  0.00  0.00    +0.228 C 
ATOM      7  C   UNL     1      10.068   0.854  24.069  0.00  0.00    -0.011 C 
ATOM      8  O   UNL     1       7.681  -1.626  24.000  0.00  0.00    -0.359 OA
ATOM      9  C   UNL     1      10.220   0.125  25.187  0.00  0.00    +0.003 C 
ENDROOT
BRANCH   4  10
ATOM     10  C   UNL     1       8.604   2.419  22.774  0.00  0.00    +0.315 C 
ATOM     11  O   UNL     1       8.068   3.369  23.328  0.00  0.00    -0.250 OA
BRANCH  10  12
ATOM     12  O   UNL     1       9.151   2.540  21.538  0.00  0.00    -0.480 OA
ATOM     13  H   UNL     1       8.563   2.957  20.880  0.00  0.00    +0.295 HD
ENDBRANCH  10  12
ENDBRANCH   4  10
BRANCH   6  14
ATOM     14  C   UNL     1       9.850  -2.178  22.985  0.00  0.00    +0.334 C 
ATOM     15  O   UNL     1      10.137  -3.004  23.836  0.00  0.00    -0.248 OA
BRANCH  14  16
ATOM     16  O   UNL     1      10.744  -1.733  22.061  0.00  0.00    -0.479 OA
ATOM     17  H   UNL     1      11.160  -0.903  22.387  0.00  0.00    +0.295 HD
ENDBRANCH  14  16
ENDBRANCH   6  14
BRANCH   1  18
ATOM     18  O   UNL     1       8.878  -0.052  27.100  0.00  0.00    -0.385 OA
ATOM     19  H   UNL     1       9.551   0.647  27.204  0.00  0.00    +0.210 HD
ENDBRANCH   1  18
TORSDOF 5
ENDMDL
MODEL 3
REMARK VINA RESULT:      -5.5      1.490      3.345
REMARK  Name = 
REMARK  5 active torsions:
REMARK  status: ('A' for Active; 'I' for Inactive)
REMARK    1  A    between atoms: C_2  and  O_3
REMARK    2  A    between atoms: C_6  and  C_17
REMARK    3  A    between atoms: C_8  and  C_14
REMARK    4  A    between atoms: C_14  and  O_15
REMARK    5  A    between atoms: C_17  and  O_18
REMARK                            x       y       z     vdW  Elec       q    Type
REMARK                         _______ _______ _______ _____ _____    ______ ____
ROOT
ATOM      1  C   UNL     1      10.086   1.301  22.157  0.00  0.00    +0.166 C 
ATOM      2  C   UNL     1      10.238   1.076  23.687  0.00  0.00    +0.153 C 
ATOM      3  C   UNL     1       9.035   1.641  24.443  0.00  0.00    +0.057 C 
ATOM      4  C   UNL     1       7.796   0.848  24.003  0.00  0.00    +0.091 C 
ATOM      5  C   UNL     1       8.015  -0.610  24.451  0.00  0.00    +0.065 C 
ATOM      6  C   UNL     1       9.343  -1.199  23.967  0.00  0.00    +0.228 C 
ATOM      7  C   UNL     1       7.637   0.901  22.492  0.00  0.00    -0.011 C 
ATOM      8  O   UNL     1      10.461  -0.301  24.050  0.00  0.00    -0.359 OA
ATOM      9  C   UNL     1       8.673   1.132  21.669  0.00  0.00    +0.003 C 
ENDROOT
BRANCH   4  10
ATOM     10  C   UNL     1       6.547   1.428  24.684  0.00  0.00    +0.315 C 
ATOM     11  O   UNL     1       6.571   2.215  25.620  0.00  0.00    -0.250 OA
BRANCH  10  12
ATOM     12  O   UNL     1       5.374   0.991  24.159  0.00  0.00    -0.480 OA
ATOM     13  H   UNL     1       4.874   1.676  23.675  0.00  0.00    +0.295 HD
ENDBRANCH  10  12
ENDBRANCH   4  10
BRANCH   6  14
ATOM     14  C   UNL     1       9.270  -1.881  22.593  0.00  0.00    +0.334 C 
ATOM     15  O   UNL     1       8.276  -2.381  22.091  0.00  0.00    -0.248 OA
BRANCH  14  16
ATOM     16  O   UNL     1      10.488  -1.899  21.988  0.00  0.00    -0.479 OA
ATOM     17  H   UNL     1      10.569  -2.714  21.444  0.00  0.00    +0.295 HD
ENDBRANCH  14  16
ENDBRANCH   6  14
BRANCH   1  18
ATOM     18  O   UNL     1      10.463   2.636  21.837  0.00  0.00    -0.385 OA
ATOM     19  H   UNL     1       9.637   3.135  21.695  0.00  0.00    +0.210 HD
ENDBRANCH   1  18
TORSDOF 5
ENDMDL
MODEL 4
REMARK VINA RESULT:      -5.5      1.229      2.687
REMARK  Name = 
REMARK  5 active torsions:
REMARK  status: ('A' for Active; 'I' for Inactive)
REMARK    1  A    between atoms: C_2  and  O_3
REMARK    2  A    between atoms: C_6  and  C_17
REMARK    3  A    between atoms: C_8  and  C_14
REMARK    4  A    between atoms: C_14  and  O_15
REMARK    5  A    between atoms: C_17  and  O_18
REMARK                            x       y       z     vdW  Elec       q    Type
REMARK                         _______ _______ _______ _____ _____    ______ ____
ROOT
ATOM      1  C   UNL     1       9.018  -0.238  25.375  0.00  0.00    +0.166 C 
ATOM      2  C   UNL     1       7.967   0.761  24.813  0.00  0.00    +0.153 C 
ATOM      3  C   UNL     1       8.574   2.155  24.649  0.00  0.00    +0.057 C 
ATOM      4  C   UNL     1       9.692   2.055  23.600  0.00  0.00    +0.091 C 
ATOM      5  C   UNL     1       9.023   1.653  22.272  0.00  0.00    +0.065 C 
ATOM      6  C   UNL     1       8.155   0.397  22.386  0.00  0.00    +0.228 C 
ATOM      7  C   UNL     1      10.708   0.999  24.002  0.00  0.00    -0.011 C 
ATOM      8  O   UNL     1       7.359   0.326  23.580  0.00  0.00    -0.359 OA
ATOM      9  C   UNL     1      10.400  -0.018  24.825  0.00  0.00    +0.003 C 
ENDROOT
BRANCH   4  10
ATOM     10  C   UNL     1      10.380   3.419  23.453  0.00  0.00    +0.315 C 
ATOM     11  O   UNL     1      11.592   3.586  23.431  0.00  0.00    -0.250 OA
BRANCH  10  12
ATOM     12  O   UNL     1       9.523   4.467  23.346  0.00  0.00    -0.480 OA
ATOM     13  H   UNL     1       8.746   4.408  23.934  0.00  0.00    +0.295 HD
ENDBRANCH  10  12
ENDBRANCH   4  10
BRANCH   6  14
ATOM     14  C   UNL     1       8.906  -0.918  22.133  0.00  0.00    +0.334 C 
ATOM     15  O   UNL     1       8.635  -2.005  22.616  0.00  0.00    -0.248 OA
BRANCH  14  16
ATOM     16  O   UNL     1       9.968  -0.725  21.305  0.00  0.00    -0.479 OA
ATOM     17  H   UNL     1      10.551  -1.516  21.335  0.00  0.00    +0.295 HD
ENDBRANCH  14  16
ENDBRANCH   6  14
BRANCH   1  18
ATOM     18  O   UNL     1       9.117  -0.073  26.785  0.00  0.00    -0.385 OA
ATOM     19  H   UNL     1      10.066  -0.121  27.008  0.00  0.00    +0.210 HD
ENDBRANCH   1  18
TORSDOF 5
ENDMDL
MODEL 5
REMARK VINA RESULT:      -5.5      4.837      6.666
REMARK  Name = 
REMARK  5 active torsions:
REMARK  status: ('A' for Active; 'I' for Inactive)
REMARK    1  A    between atoms: C_2  and  O_3
REMARK    2  A    between atoms: C_6  and  C_17
REMARK    3  A    between atoms: C_8  and  C_14
REMARK    4  A    between atoms: C_14  and  O_15
REMARK    5  A    between atoms: C_17  and  O_18
REMARK                            x       y       z     vdW  Elec       q    Type
REMARK                         _______ _______ _______ _____ _____    ______ ____
ROOT
ATOM      1  C   UNL     1       5.303  -5.835  23.189  0.00  0.00    +0.166 C 
ATOM      2  C   UNL     1       5.206  -5.050  24.527  0.00  0.00    +0.153 C 
ATOM      3  C   UNL     1       6.406  -5.353  25.425  0.00  0.00    +0.057 C 
ATOM      4  C   UNL     1       7.664  -4.842  24.706  0.00  0.00    +0.091 C 
ATOM      5  C   UNL     1       7.518  -3.313  24.582  0.00  0.00    +0.065 C 
ATOM      6  C   UNL     1       6.202  -2.881  23.930  0.00  0.00    +0.228 C 
ATOM      7  C   UNL     1       7.776  -5.460  23.322  0.00  0.00    -0.011 C 
ATOM      8  O   UNL     1       5.050  -3.628  24.354  0.00  0.00    -0.359 OA
ATOM      9  C   UNL     1       6.707  -5.928  22.656  0.00  0.00    +0.003 C 
ENDROOT
BRANCH   4  10
ATOM     10  C   UNL     1       8.907  -5.188  25.539  0.00  0.00    +0.315 C 
ATOM     11  O   UNL     1      10.060  -5.008  25.172  0.00  0.00    -0.250 OA
BRANCH  10  12
ATOM     12  O   UNL     1       8.630  -5.728  26.753  0.00  0.00    -0.480 OA
ATOM     13  H   UNL     1       7.692  -5.968  26.879  0.00  0.00    +0.295 HD
ENDBRANCH  10  12
ENDBRANCH   4  10
BRANCH   6  14
ATOM     14  C   UNL     1       6.263  -2.762  22.400  0.00  0.00    +0.334 C 
ATOM     15  O   UNL     1       5.349  -2.987  21.624  0.00  0.00    -0.248 OA
BRANCH  14  16
ATOM     16  O   UNL     1       7.505  -2.394  21.985  0.00  0.00    -0.479 OA
ATOM     17  H   UNL     1       7.626  -2.659  21.046  0.00  0.00    +0.295 HD
ENDBRANCH  14  16
ENDBRANCH   6  14
BRANCH   1  18
ATOM     18  O   UNL     1       4.862  -7.173  23.393  0.00  0.00    -0.385 OA
ATOM     19  H   UNL     1       5.307  -7.721  22.720  0.00  0.00    +0.210 HD
ENDBRANCH   1  18
TORSDOF 5
ENDMDL
MODEL 6
REMARK VINA RESULT:      -5.5      1.770      3.015
REMARK  Name = 
REMARK  5 active torsions:
REMARK  status: ('A' for Active; 'I' for Inactive)
REMARK    1  A    between atoms: C_2  and  O_3
REMARK    2  A    between atoms: C_6  and  C_17
REMARK    3  A    between atoms: C_8  and  C_14
REMARK    4  A    between atoms: C_14  and  O_15
REMARK    5  A    between atoms: C_17  and  O_18
REMARK                            x       y       z     vdW  Elec       q    Type
REMARK                         _______ _______ _______ _____ _____    ______ ____
ROOT
ATOM      1  C   UNL     1       7.917  -2.316  23.206  0.00  0.00    +0.166 C 
ATOM      2  C   UNL     1       9.369  -1.887  22.854  0.00  0.00    +0.153 C 
ATOM      3  C   UNL     1       9.368  -0.667  21.932  0.00  0.00    +0.057 C 
ATOM      4  C   UNL     1       8.739   0.501  22.705  0.00  0.00    +0.091 C 
ATOM      5  C   UNL     1       9.664   0.794  23.902  0.00  0.00    +0.065 C 
ATOM      6  C   UNL     1       9.957  -0.442  24.758  0.00  0.00    +0.228 C 
ATOM      7  C   UNL     1       7.355   0.125  23.208  0.00  0.00    -0.011 C 
ATOM      8  O   UNL     1      10.197  -1.645  24.010  0.00  0.00    -0.359 OA
ATOM      9  C   UNL     1       6.985  -1.152  23.406  0.00  0.00    +0.003 C 
ENDROOT
BRANCH   4  10
ATOM     10  C   UNL     1       8.652   1.732  21.793  0.00  0.00    +0.315 C 
ATOM     11  O   UNL     1       7.606   2.255  21.433  0.00  0.00    -0.250 OA
BRANCH  10  12
ATOM     12  O   UNL     1       9.855   2.219  21.397  0.00  0.00    -0.480 OA
ATOM     13  H   UNL     1       9.813   3.105  20.989  0.00  0.00    +0.295 HD
ENDBRANCH  10  12
ENDBRANCH   4  10
BRANCH   6  14
ATOM     14  C   UNL     1       8.953  -0.678  25.895  0.00  0.00    +0.334 C 
ATOM     15  O   UNL     1       8.642  -1.759  26.367  0.00  0.00    -0.248 OA
BRANCH  14  16
ATOM     16  O   UNL     1       8.401   0.493  26.313  0.00  0.00    -0.479 OA
ATOM     17  H   UNL     1       8.706   0.688  27.228  0.00  0.00    +0.295 HD
ENDBRANCH  14  16
ENDBRANCH   6  14
BRANCH   1  18
ATOM     18  O   UNL     1       7.378  -3.080  22.133  0.00  0.00    -0.385 OA
ATOM     19  H   UNL     1       6.424  -3.179  22.310  0.00  0.00    +0.210 HD
ENDBRANCH   1  18
TORSDOF 5
ENDMDL
MODEL 7
REMARK VINA RESULT:      -5.5      4.095      6.560
REMARK  Name = 
REMARK  5 active torsions:
REMARK  status: ('A' for Active; 'I' for Inactive)
REMARK    1  A    between atoms: C_2  and  O_3
REMARK    2  A    between atoms: C_6  and  C_17
REMARK    3  A    between atoms: C_8  and  C_14
REMARK    4  A    between atoms: C_14  and  O_15
REMARK    5  A    between atoms: C_17  and  O_18
REMARK                            x       y       z     vdW  Elec       q    Type
REMARK                         _______ _______ _______ _____ _____    ______ ____
ROOT
ATOM      1  C   UNL     1       6.422  -3.883  22.244  0.00  0.00    +0.166 C 
ATOM      2  C   UNL     1       5.937  -3.098  23.496  0.00  0.00    +0.153 C 
ATOM      3  C   UNL     1       5.796  -4.028  24.701  0.00  0.00    +0.057 C 
ATOM      4  C   UNL     1       7.193  -4.571  25.036  0.00  0.00    +0.091 C 
ATOM      5  C   UNL     1       8.055  -3.363  25.449  0.00  0.00    +0.065 C 
ATOM      6  C   UNL     1       8.050  -2.233  24.414  0.00  0.00    +0.228 C 
ATOM      7  C   UNL     1       7.808  -5.248  23.822  0.00  0.00    -0.011 C 
ATOM      8  O   UNL     1       6.767  -1.966  23.825  0.00  0.00    -0.359 OA
ATOM      9  C   UNL     1       7.434  -4.948  22.567  0.00  0.00    +0.003 C 
ENDROOT
BRANCH   4  10
ATOM     10  C   UNL     1       7.091  -5.568  26.199  0.00  0.00    +0.315 C 
ATOM     11  O   UNL     1       6.079  -6.192  26.491  0.00  0.00    -0.250 OA
BRANCH  10  12
ATOM     12  O   UNL     1       8.238  -5.715  26.908  0.00  0.00    -0.480 OA
ATOM     13  H   UNL     1       8.101  -5.961  27.843  0.00  0.00    +0.295 HD
ENDBRANCH  10  12
ENDBRANCH   4  10
BRANCH   6  14
ATOM     14  C   UNL     1       9.147  -2.350  23.345  0.00  0.00    +0.334 C 
ATOM     15  O   UNL     1       9.080  -1.935  22.200  0.00  0.00    -0.248 OA
BRANCH  14  16
ATOM     16  O   UNL     1      10.229  -3.020  23.823  0.00  0.00    -0.479 OA
ATOM     17  H   UNL     1      10.430  -2.706  24.733  0.00  0.00    +0.295 HD
ENDBRANCH  14  16
ENDBRANCH   6  14
BRANCH   1  18
ATOM     18  O   UNL     1       5.315  -4.550  21.649  0.00  0.00    -0.385 OA
ATOM     19  H   UNL     1       5.249  -5.423  22.079  0.00  0.00    +0.210 HD
ENDBRANCH   1  18
TORSDOF 5
ENDMDL
MODEL 8
REMARK VINA RESULT:      -5.4      1.773      4.524
REMARK  Name = 
REMARK  5 active torsions:
REMARK  status: ('A' for Active; 'I' for Inactive)
REMARK    1  A    between atoms: C_2  and  O_3
REMARK    2  A    between atoms: C_6  and  C_17
REMARK    3  A    between atoms: C_8  and  C_14
REMARK    4  A    between atoms: C_14  and  O_15
REMARK    5  A    between atoms: C_17  and  O_18
REMARK                            x       y       z     vdW  Elec       q    Type
REMARK                         _______ _______ _______ _____ _____    ______ ____
ROOT
ATOM      1  C   UNL     1       8.869   0.607  25.013  0.00  0.00    +0.166 C 
ATOM      2  C   UNL     1       9.752  -0.597  24.582  0.00  0.00    +0.153 C 
ATOM      3  C   UNL     1       8.887  -1.798  24.197  0.00  0.00    +0.057 C 
ATOM      4  C   UNL     1       8.058  -1.398  22.968  0.00  0.00    +0.091 C 
ATOM      5  C   UNL     1       9.054  -1.128  21.825  0.00  0.00    +0.065 C 
ATOM      6  C   UNL     1      10.147  -0.123  22.199  0.00  0.00    +0.228 C 
ATOM      7  C   UNL     1       7.252  -0.141  23.253  0.00  0.00    -0.011 C 
ATOM      8  O   UNL     1      10.680  -0.284  23.524  0.00  0.00    -0.359 OA
ATOM      9  C   UNL     1       7.613   0.744  24.196  0.00  0.00    +0.003 C 
ENDROOT
BRANCH   4  10
ATOM     10  C   UNL     1       7.118  -2.551  22.587  0.00  0.00    +0.315 C 
ATOM     11  O   UNL     1       7.483  -3.694  22.350  0.00  0.00    -0.250 OA
BRANCH  10  12
ATOM     12  O   UNL     1       5.807  -2.204  22.526  0.00  0.00    -0.480 OA
ATOM     13  H   UNL     1       5.197  -2.961  22.435  0.00  0.00    +0.295 HD
ENDBRANCH  10  12
ENDBRANCH   4  10
BRANCH   6  14
ATOM     14  C   UNL     1       9.786   1.342  21.913  0.00  0.00    +0.334 C 
ATOM     15  O   UNL     1      10.230   2.318  22.494  0.00  0.00    -0.248 OA
BRANCH  14  16
ATOM     16  O   UNL     1       8.856   1.434  20.925  0.00  0.00    -0.479 OA
ATOM     17  H   UNL     1       9.309   1.443  20.053  0.00  0.00    +0.295 HD
ENDBRANCH  14  16
ENDBRANCH   6  14
BRANCH   1  18
ATOM     18  O   UNL     1       8.453   0.426  26.362  0.00  0.00    -0.385 OA
ATOM     19  H   UNL     1       7.969  -0.420  26.395  0.00  0.00    +0.210 HD
ENDBRANCH   1  18
TORSDOF 5
ENDMDL
MODEL 9
REMARK VINA RESULT:      -5.4      2.507      5.222
REMARK  Name = 
REMARK  5 active torsions:
REMARK  status: ('A' for Active; 'I' for Inactive)
REMARK    1  A    between atoms: C_2  and  O_3
REMARK    2  A    between atoms: C_6  and  C_17
REMARK    3  A    between atoms: C_8  and  C_14
REMARK    4  A    between atoms: C_14  and  O_15
REMARK    5  A    between atoms: C_17  and  O_18
REMARK                            x       y       z     vdW  Elec       q    Type
REMARK                         _______ _______ _______ _____ _____    ______ ____
ROOT
ATOM      1  C   UNL     1       6.882  -0.513  23.782  0.00  0.00    +0.166 C 
ATOM      2  C   UNL     1       7.936  -0.666  24.914  0.00  0.00    +0.153 C 
ATOM      3  C   UNL     1       8.028  -2.119  25.381  0.00  0.00    +0.057 C 
ATOM      4  C   UNL     1       8.530  -2.957  24.197  0.00  0.00    +0.091 C 
ATOM      5  C   UNL     1       9.950  -2.459  23.866  0.00  0.00    +0.065 C 
ATOM      6  C   UNL     1      10.024  -0.946  23.642  0.00  0.00    +0.228 C 
ATOM      7  C   UNL     1       7.627  -2.768  22.988  0.00  0.00    -0.011 C 
ATOM      8  O   UNL     1       9.241  -0.166  24.560  0.00  0.00    -0.359 OA
ATOM      9  C   UNL     1       6.867  -1.673  22.824  0.00  0.00    +0.003 C 
ENDROOT
BRANCH   4  10
ATOM     10  C   UNL     1       8.570  -4.439  24.597  0.00  0.00    +0.315 C 
ATOM     11  O   UNL     1       7.581  -5.139  24.765  0.00  0.00    -0.250 OA
BRANCH  10  12
ATOM     12  O   UNL     1       9.822  -4.937  24.761  0.00  0.00    -0.480 OA
ATOM     13  H   UNL     1      10.069  -5.618  24.107  0.00  0.00    +0.295 HD
ENDBRANCH  10  12
ENDBRANCH   4  10
BRANCH   6  14
ATOM     14  C   UNL     1       9.789  -0.509  22.189  0.00  0.00    +0.334 C 
ATOM     15  O   UNL     1       9.370   0.577  21.824  0.00  0.00    -0.248 OA
BRANCH  14  16
ATOM     16  O   UNL     1      10.078  -1.515  21.320  0.00  0.00    -0.479 OA
ATOM     17  H   UNL     1       9.570  -1.383  20.489  0.00  0.00    +0.295 HD
ENDBRANCH  14  16
ENDBRANCH   6  14
BRANCH   1  18
ATOM     18  O   UNL     1       5.581  -0.451  24.356  0.00  0.00    -0.385 OA
ATOM     19  H   UNL     1       5.679  -0.030  25.230  0.00  0.00    +0.210 HD
ENDBRANCH   1  18
TORSDOF 5
ENDMDL
