MODEL 1
REMARK VINA RESULT:      -6.5      0.000      0.000
REMARK  Name = 
REMARK  8 active torsions:
REMARK  status: ('A' for Active; 'I' for Inactive)
REMARK    1  A    between atoms: C_2  and  C_3
REMARK    2  A    between atoms: C_3  and  N_4
REMARK    3  A    between atoms: C_9  and  C_10
REMARK    4  A    between atoms: C_9  and  C_17
REMARK    5  A    between atoms: C_13  and  C_14
REMARK    6  A    between atoms: C_21  and  C_23
REMARK    7  A    between atoms: C_25  and  C_27
REMARK    8  A    between atoms: C_27  and  O_28
REMARK                            x       y       z     vdW  Elec       q    Type
REMARK                         _______ _______ _______ _____ _____    ______ ____
ROOT
ATOM      1  C   UNL     1       7.134  -1.085  25.201  0.00  0.00    -0.001 C 
ATOM      2  C   UNL     1       7.384  -1.280  23.878  0.00  0.00    +0.005 C 
ENDROOT
BRANCH   2   3
ATOM      3  C   UNL     1       6.964  -2.537  23.178  0.00  0.00    -0.016 A 
ATOM      4  C   UNL     1       7.887  -3.567  22.963  0.00  0.00    +0.009 A 
ATOM      5  C   UNL     1       7.465  -4.826  22.515  0.00  0.00    +0.004 A 
ATOM      6  C   UNL     1       6.108  -5.085  22.297  0.00  0.00    -0.050 A 
ATOM      7  C   UNL     1       5.636  -6.474  21.990  0.00  0.00    +0.044 C 
ATOM      8  C   UNL     1       5.200  -4.031  22.392  0.00  0.00    +0.004 A 
ATOM      9  C   UNL     1       5.639  -2.760  22.768  0.00  0.00    +0.009 A 
ENDBRANCH   2   3
BRANCH   2  10
ATOM     10  C   UNL     1       8.104  -0.181  23.176  0.00  0.00    +0.072 A 
ATOM     11  N   UNL     1       7.414   0.962  22.913  0.00  0.00    -0.247 NA
ATOM     12  C   UNL     1       8.090   1.968  22.297  0.00  0.00    +0.065 A 
ATOM     13  C   UNL     1       9.426   1.864  21.926  0.00  0.00    +0.028 A 
ATOM     14  C   UNL     1      10.112   0.688  22.207  0.00  0.00    +0.004 A 
ATOM     15  C   UNL     1       9.444  -0.350  22.845  0.00  0.00    +0.028 A 
BRANCH  12  16
ATOM     16  C   UNL     1       7.374   3.228  22.051  0.00  0.00    +0.035 C 
ATOM     17  C   UNL     1       7.693   4.396  22.626  0.00  0.00    +0.093 C 
BRANCH  17  18
ATOM     18  C   UNL     1       6.933   5.608  22.268  0.00  0.00    +0.330 C 
ATOM     19  O   UNL     1       5.815   5.873  22.676  0.00  0.00    -0.246 OA
BRANCH  18  20
ATOM     20  O   UNL     1       7.616   6.398  21.417  0.00  0.00    -0.478 OA
ATOM     21  H   UNL     1       8.448   6.763  21.771  0.00  0.00    +0.295 HD
ENDBRANCH  18  20
ENDBRANCH  17  18
ENDBRANCH  12  16
ENDBRANCH   2  10
BRANCH   1  22
ATOM     22  C   UNL     1       6.380  -2.015  26.121  0.00  0.00    +0.112 C 
BRANCH  22  23
ATOM     23  N   UNL     1       7.137  -3.066  26.802  0.00  0.00    -0.299 NA
ATOM     24  C   UNL     1       8.568  -3.030  26.474  0.00  0.00    +0.085 C 
ATOM     25  C   UNL     1       9.026  -4.487  26.430  0.00  0.00    +0.017 C 
ATOM     26  C   UNL     1       7.783  -5.314  26.701  0.00  0.00    +0.017 C 
ATOM     27  C   UNL     1       6.657  -4.378  26.326  0.00  0.00    +0.085 C 
ENDBRANCH  22  23
ENDBRANCH   1  22
TORSDOF 7
ENDMDL
MODEL 2
REMARK VINA RESULT:      -6.4      4.396      7.912
REMARK  Name = 
REMARK  8 active torsions:
REMARK  status: ('A' for Active; 'I' for Inactive)
REMARK    1  A    between atoms: C_2  and  C_3
REMARK    2  A    between atoms: C_3  and  N_4
REMARK    3  A    between atoms: C_9  and  C_10
REMARK    4  A    between atoms: C_9  and  C_17
REMARK    5  A    between atoms: C_13  and  C_14
REMARK    6  A    between atoms: C_21  and  C_23
REMARK    7  A    between atoms: C_25  and  C_27
REMARK    8  A    between atoms: C_27  and  O_28
REMARK                            x       y       z     vdW  Elec       q    Type
REMARK                         _______ _______ _______ _____ _____    ______ ____
ROOT
ATOM      1  C   UNL     1       9.437  -2.264  23.379  0.00  0.00    -0.001 C 
ATOM      2  C   UNL     1       8.225  -2.421  23.979  0.00  0.00    +0.005 C 
ENDROOT
BRANCH   2   3
ATOM      3  C   UNL     1       7.717  -1.435  24.987  0.00  0.00    -0.016 A 
ATOM      4  C   UNL     1       8.251  -1.410  26.280  0.00  0.00    +0.009 A 
ATOM      5  C   UNL     1       7.949  -0.362  27.160  0.00  0.00    +0.004 A 
ATOM      6  C   UNL     1       7.126   0.693  26.752  0.00  0.00    -0.050 A 
ATOM      7  C   UNL     1       6.945   1.899  27.625  0.00  0.00    +0.044 C 
ATOM      8  C   UNL     1       6.495   0.612  25.513  0.00  0.00    +0.004 A 
ATOM      9  C   UNL     1       6.743  -0.474  24.670  0.00  0.00    +0.009 A 
ENDBRANCH   2   3
BRANCH   2  10
ATOM     10  C   UNL     1       7.447  -3.629  23.584  0.00  0.00    +0.072 A 
ATOM     11  N   UNL     1       6.802  -4.317  24.563  0.00  0.00    -0.247 NA
ATOM     12  C   UNL     1       6.072  -5.400  24.186  0.00  0.00    +0.065 A 
ATOM     13  C   UNL     1       5.978  -5.824  22.864  0.00  0.00    +0.028 A 
ATOM     14  C   UNL     1       6.644  -5.104  21.879  0.00  0.00    +0.004 A 
ATOM     15  C   UNL     1       7.387  -3.987  22.241  0.00  0.00    +0.028 A 
BRANCH  12  16
ATOM     16  C   UNL     1       5.328  -6.125  25.225  0.00  0.00    +0.035 C 
ATOM     17  C   UNL     1       5.573  -6.013  26.538  0.00  0.00    +0.093 C 
BRANCH  17  18
ATOM     18  C   UNL     1       4.730  -6.754  27.496  0.00  0.00    +0.330 C 
ATOM     19  O   UNL     1       3.519  -6.650  27.579  0.00  0.00    -0.246 OA
BRANCH  18  20
ATOM     20  O   UNL     1       5.460  -7.562  28.289  0.00  0.00    -0.478 OA
ATOM     21  H   UNL     1       6.383  -7.282  28.426  0.00  0.00    +0.295 HD
ENDBRANCH  18  20
ENDBRANCH  17  18
ENDBRANCH  12  16
ENDBRANCH   2  10
BRANCH   1  22
ATOM     22  C   UNL     1      10.389  -1.107  23.564  0.00  0.00    +0.112 C 
BRANCH  22  23
ATOM     23  N   UNL     1      10.221   0.062  22.699  0.00  0.00    -0.299 NA
ATOM     24  C   UNL     1       9.745   1.240  23.435  0.00  0.00    +0.085 C 
ATOM     25  C   UNL     1       8.810   1.981  22.481  0.00  0.00    +0.017 C 
ATOM     26  C   UNL     1       8.761   1.138  21.219  0.00  0.00    +0.017 C 
ATOM     27  C   UNL     1       9.171  -0.233  21.705  0.00  0.00    +0.085 C 
ENDBRANCH  22  23
ENDBRANCH   1  22
TORSDOF 7
ENDMDL
MODEL 3
REMARK VINA RESULT:      -6.3      1.741      3.711
REMARK  Name = 
REMARK  8 active torsions:
REMARK  status: ('A' for Active; 'I' for Inactive)
REMARK    1  A    between atoms: C_2  and  C_3
REMARK    2  A    between atoms: C_3  and  N_4
REMARK    3  A    between atoms: C_9  and  C_10
REMARK    4  A    between atoms: C_9  and  C_17
REMARK    5  A    between atoms: C_13  and  C_14
REMARK    6  A    between atoms: C_21  and  C_23
REMARK    7  A    between atoms: C_25  and  C_27
REMARK    8  A    between atoms: C_27  and  O_28
REMARK                            x       y       z     vdW  Elec       q    Type
REMARK                         _______ _______ _______ _____ _____    ______ ____
ROOT
ATOM      1  C   UNL     1       7.523  -3.887  22.293  0.00  0.00    -0.001 C 
ATOM      2  C   UNL     1       7.916  -3.192  23.396  0.00  0.00    +0.005 C 
ENDROOT
BRANCH   2   3
ATOM      3  C   UNL     1       7.687  -3.723  24.778  0.00  0.00    -0.016 A 
ATOM      4  C   UNL     1       6.705  -3.155  25.598  0.00  0.00    +0.009 A 
ATOM      5  C   UNL     1       6.328  -3.773  26.798  0.00  0.00    +0.004 A 
ATOM      6  C   UNL     1       6.909  -4.984  27.187  0.00  0.00    -0.050 A 
ATOM      7  C   UNL     1       6.385  -5.735  28.374  0.00  0.00    +0.044 C 
ATOM      8  C   UNL     1       7.970  -5.490  26.439  0.00  0.00    +0.004 A 
ATOM      9  C   UNL     1       8.391  -4.829  25.283  0.00  0.00    +0.009 A 
ENDBRANCH   2   3
BRANCH   2  10
ATOM     10  C   UNL     1       8.573  -1.879  23.145  0.00  0.00    +0.072 A 
ATOM     11  N   UNL     1       7.784  -0.836  22.772  0.00  0.00    -0.247 NA
ATOM     12  C   UNL     1       8.391   0.364  22.574  0.00  0.00    +0.065 A 
ATOM     13  C   UNL     1       9.761   0.552  22.726  0.00  0.00    +0.028 A 
ATOM     14  C   UNL     1      10.548  -0.528  23.111  0.00  0.00    +0.004 A 
ATOM     15  C   UNL     1       9.946  -1.762  23.329  0.00  0.00    +0.028 A 
BRANCH  12  16
ATOM     16  C   UNL     1       7.546   1.513  22.219  0.00  0.00    +0.035 C 
ATOM     17  C   UNL     1       7.787   2.771  22.614  0.00  0.00    +0.093 C 
BRANCH  17  18
ATOM     18  C   UNL     1       6.896   3.854  22.158  0.00  0.00    +0.330 C 
ATOM     19  O   UNL     1       7.248   5.003  21.955  0.00  0.00    -0.246 OA
BRANCH  18  20
ATOM     20  O   UNL     1       5.627   3.431  21.999  0.00  0.00    -0.478 OA
ATOM     21  H   UNL     1       4.942   4.081  22.241  0.00  0.00    +0.295 HD
ENDBRANCH  18  20
ENDBRANCH  17  18
ENDBRANCH  12  16
ENDBRANCH   2  10
BRANCH   1  22
ATOM     22  C   UNL     1       6.888  -5.257  22.271  0.00  0.00    +0.112 C 
BRANCH  22  23
ATOM     23  N   UNL     1       5.445  -5.345  22.499  0.00  0.00    -0.299 NA
ATOM     24  C   UNL     1       4.832  -4.031  22.731  0.00  0.00    +0.085 C 
ATOM     25  C   UNL     1       3.727  -4.258  23.762  0.00  0.00    +0.017 C 
ATOM     26  C   UNL     1       3.795  -5.734  24.114  0.00  0.00    +0.017 C 
ATOM     27  C   UNL     1       5.208  -6.114  23.736  0.00  0.00    +0.085 C 
ENDBRANCH  22  23
ENDBRANCH   1  22
TORSDOF 7
ENDMDL
MODEL 4
REMARK VINA RESULT:      -6.3      2.615      4.361
REMARK  Name = 
REMARK  8 active torsions:
REMARK  status: ('A' for Active; 'I' for Inactive)
REMARK    1  A    between atoms: C_2  and  C_3
REMARK    2  A    between atoms: C_3  and  N_4
REMARK    3  A    between atoms: C_9  and  C_10
REMARK    4  A    between atoms: C_9  and  C_17
REMARK    5  A    between atoms: C_13  and  C_14
REMARK    6  A    between atoms: C_21  and  C_23
REMARK    7  A    between atoms: C_25  and  C_27
REMARK    8  A    between atoms: C_27  and  O_28
REMARK                            x       y       z     vdW  Elec       q    Type
REMARK                         _______ _______ _______ _____ _____    ______ ____
ROOT
ATOM      1  C   UNL     1       8.947  -2.127  24.939  0.00  0.00    -0.001 C 
ATOM      2  C   UNL     1       8.402  -0.881  24.882  0.00  0.00    +0.005 C 
ENDROOT
BRANCH   2   3
ATOM      3  C   UNL     1       7.315  -0.458  25.823  0.00  0.00    -0.016 A 
ATOM      4  C   UNL     1       7.634   0.029  27.096  0.00  0.00    +0.009 A 
ATOM      5  C   UNL     1       6.657   0.630  27.899  0.00  0.00    +0.004 A 
ATOM      6  C   UNL     1       5.346   0.778  27.433  0.00  0.00    -0.050 A 
ATOM      7  C   UNL     1       4.345   1.576  28.213  0.00  0.00    +0.044 C 
ATOM      8  C   UNL     1       4.995   0.188  26.220  0.00  0.00    +0.004 A 
ATOM      9  C   UNL     1       5.959  -0.476  25.458  0.00  0.00    +0.009 A 
ENDBRANCH   2   3
BRANCH   2  10
ATOM     10  C   UNL     1       8.941   0.025  23.830  0.00  0.00    +0.072 A 
ATOM     11  N   UNL     1       9.351   1.265  24.209  0.00  0.00    -0.247 NA
ATOM     12  C   UNL     1       9.868   2.072  23.245  0.00  0.00    +0.065 A 
ATOM     13  C   UNL     1       9.976   1.684  21.914  0.00  0.00    +0.028 A 
ATOM     14  C   UNL     1       9.553   0.411  21.548  0.00  0.00    +0.004 A 
ATOM     15  C   UNL     1       9.031  -0.434  22.521  0.00  0.00    +0.028 A 
BRANCH  12  16
ATOM     16  C   UNL     1      10.362   3.397  23.648  0.00  0.00    +0.035 C 
ATOM     17  C   UNL     1      11.536   3.910  23.254  0.00  0.00    +0.093 C 
BRANCH  17  18
ATOM     18  C   UNL     1      11.909   5.270  23.683  0.00  0.00    +0.330 C 
ATOM     19  O   UNL     1      11.116   6.145  23.987  0.00  0.00    -0.246 OA
BRANCH  18  20
ATOM     20  O   UNL     1      13.245   5.449  23.690  0.00  0.00    -0.478 OA
ATOM     21  H   UNL     1      13.619   5.728  24.545  0.00  0.00    +0.295 HD
ENDBRANCH  18  20
ENDBRANCH  17  18
ENDBRANCH  12  16
ENDBRANCH   2  10
BRANCH   1  22
ATOM     22  C   UNL     1       8.617  -3.209  25.939  0.00  0.00    +0.112 C 
BRANCH  22  23
ATOM     23  N   UNL     1       7.932  -4.406  25.450  0.00  0.00    -0.299 NA
ATOM     24  C   UNL     1       8.126  -4.616  24.010  0.00  0.00    +0.085 C 
ATOM     25  C   UNL     1       6.812  -5.194  23.488  0.00  0.00    +0.017 C 
ATOM     26  C   UNL     1       5.884  -5.247  24.688  0.00  0.00    +0.017 C 
ATOM     27  C   UNL     1       6.478  -4.224  25.629  0.00  0.00    +0.085 C 
ENDBRANCH  22  23
ENDBRANCH   1  22
TORSDOF 7
ENDMDL
MODEL 5
REMARK VINA RESULT:      -6.2      1.667      3.601
REMARK  Name = 
REMARK  8 active torsions:
REMARK  status: ('A' for Active; 'I' for Inactive)
REMARK    1  A    between atoms: C_2  and  C_3
REMARK    2  A    between atoms: C_3  and  N_4
REMARK    3  A    between atoms: C_9  and  C_10
REMARK    4  A    between atoms: C_9  and  C_17
REMARK    5  A    between atoms: C_13  and  C_14
REMARK    6  A    between atoms: C_21  and  C_23
REMARK    7  A    between atoms: C_25  and  C_27
REMARK    8  A    between atoms: C_27  and  O_28
REMARK                            x       y       z     vdW  Elec       q    Type
REMARK                         _______ _______ _______ _____ _____    ______ ____
ROOT
ATOM      1  C   UNL     1       6.296  -1.986  23.183  0.00  0.00    -0.001 C 
ATOM      2  C   UNL     1       7.152  -1.905  24.238  0.00  0.00    +0.005 C 
ENDROOT
BRANCH   2   3
ATOM      3  C   UNL     1       7.070  -2.863  25.388  0.00  0.00    -0.016 A 
ATOM      4  C   UNL     1       6.202  -2.609  26.456  0.00  0.00    +0.009 A 
ATOM      5  C   UNL     1       5.950  -3.591  27.423  0.00  0.00    +0.004 A 
ATOM      6  C   UNL     1       6.543  -4.854  27.325  0.00  0.00    -0.050 A 
ATOM      7  C   UNL     1       6.139  -5.960  28.254  0.00  0.00    +0.044 C 
ATOM      8  C   UNL     1       7.499  -5.072  26.335  0.00  0.00    +0.004 A 
ATOM      9  C   UNL     1       7.801  -4.062  25.418  0.00  0.00    +0.009 A 
ENDBRANCH   2   3
BRANCH   2  10
ATOM     10  C   UNL     1       8.161  -0.809  24.185  0.00  0.00    +0.072 A 
ATOM     11  N   UNL     1       7.803   0.353  23.576  0.00  0.00    -0.247 NA
ATOM     12  C   UNL     1       8.721   1.355  23.559  0.00  0.00    +0.065 A 
ATOM     13  C   UNL     1       9.988   1.228  24.119  0.00  0.00    +0.028 A 
ATOM     14  C   UNL     1      10.332   0.031  24.738  0.00  0.00    +0.004 A 
ATOM     15  C   UNL     1       9.404  -1.003  24.776  0.00  0.00    +0.028 A 
BRANCH  12  16
ATOM     16  C   UNL     1       8.332   2.635  22.950  0.00  0.00    +0.035 C 
ATOM     17  C   UNL     1       8.519   3.828  23.531  0.00  0.00    +0.093 C 
BRANCH  17  18
ATOM     18  C   UNL     1       8.132   5.053  22.805  0.00  0.00    +0.330 C 
ATOM     19  O   UNL     1       8.505   6.177  23.092  0.00  0.00    -0.246 OA
BRANCH  18  20
ATOM     20  O   UNL     1       7.297   4.790  21.781  0.00  0.00    -0.478 OA
ATOM     21  H   UNL     1       6.579   4.164  21.986  0.00  0.00    +0.295 HD
ENDBRANCH  18  20
ENDBRANCH  17  18
ENDBRANCH  12  16
ENDBRANCH   2  10
BRANCH   1  22
ATOM     22  C   UNL     1       5.226  -3.029  22.970  0.00  0.00    +0.112 C 
BRANCH  22  23
ATOM     23  N   UNL     1       5.551  -4.180  22.127  0.00  0.00    -0.299 NA
ATOM     24  C   UNL     1       5.210  -5.457  22.766  0.00  0.00    +0.085 C 
ATOM     25  C   UNL     1       6.296  -6.444  22.340  0.00  0.00    +0.017 C 
ATOM     26  C   UNL     1       7.261  -5.643  21.484  0.00  0.00    +0.017 C 
ATOM     27  C   UNL     1       7.012  -4.219  21.923  0.00  0.00    +0.085 C 
ENDBRANCH  22  23
ENDBRANCH   1  22
TORSDOF 7
ENDMDL
MODEL 6
REMARK VINA RESULT:      -6.2      4.292      7.429
REMARK  Name = 
REMARK  8 active torsions:
REMARK  status: ('A' for Active; 'I' for Inactive)
REMARK    1  A    between atoms: C_2  and  C_3
REMARK    2  A    between atoms: C_3  and  N_4
REMARK    3  A    between atoms: C_9  and  C_10
REMARK    4  A    between atoms: C_9  and  C_17
REMARK    5  A    between atoms: C_13  and  C_14
REMARK    6  A    between atoms: C_21  and  C_23
REMARK    7  A    between atoms: C_25  and  C_27
REMARK    8  A    between atoms: C_27  and  O_28
REMARK                            x       y       z     vdW  Elec       q    Type
REMARK                         _______ _______ _______ _____ _____    ______ ____
ROOT
ATOM      1  C   UNL     1       6.338   0.547  24.760  0.00  0.00    -0.001 C 
ATOM      2  C   UNL     1       7.407   1.103  24.128  0.00  0.00    +0.005 C 
ENDROOT
BRANCH   2   3
ATOM      3  C   UNL     1       7.592   2.589  24.062  0.00  0.00    -0.016 A 
ATOM      4  C   UNL     1       8.461   3.232  24.951  0.00  0.00    +0.009 A 
ATOM      5  C   UNL     1       8.813   4.575  24.763  0.00  0.00    +0.004 A 
ATOM      6  C   UNL     1       8.321   5.293  23.668  0.00  0.00    -0.050 A 
ATOM      7  C   UNL     1       8.832   6.670  23.367  0.00  0.00    +0.044 C 
ATOM      8  C   UNL     1       7.362   4.696  22.851  0.00  0.00    +0.004 A 
ATOM      9  C   UNL     1       6.960   3.380  23.088  0.00  0.00    +0.009 A 
ENDBRANCH   2   3
BRANCH   2  10
ATOM     10  C   UNL     1       8.370   0.152  23.504  0.00  0.00    +0.072 A 
ATOM     11  N   UNL     1       8.553  -1.053  24.107  0.00  0.00    -0.247 NA
ATOM     12  C   UNL     1       9.412  -1.922  23.512  0.00  0.00    +0.065 A 
ATOM     13  C   UNL     1      10.101  -1.621  22.342  0.00  0.00    +0.028 A 
ATOM     14  C   UNL     1       9.896  -0.385  21.741  0.00  0.00    +0.004 A 
ATOM     15  C   UNL     1       9.014   0.516  22.327  0.00  0.00    +0.028 A 
BRANCH  12  16
ATOM     16  C   UNL     1       9.583  -3.248  24.124  0.00  0.00    +0.035 C 
ATOM     17  C   UNL     1       8.865  -3.691  25.165  0.00  0.00    +0.093 C 
BRANCH  17  18
ATOM     18  C   UNL     1       9.091  -5.058  25.668  0.00  0.00    +0.330 C 
ATOM     19  O   UNL     1       8.265  -5.723  26.270  0.00  0.00    -0.246 OA
BRANCH  18  20
ATOM     20  O   UNL     1      10.336  -5.497  25.396  0.00  0.00    -0.478 OA
ATOM     21  H   UNL     1      10.398  -6.441  25.163  0.00  0.00    +0.295 HD
ENDBRANCH  18  20
ENDBRANCH  17  18
ENDBRANCH  12  16
ENDBRANCH   2  10
BRANCH   1  22
ATOM     22  C   UNL     1       5.254   1.282  25.512  0.00  0.00    +0.112 C 
BRANCH  22  23
ATOM     23  N   UNL     1       5.437   1.483  26.951  0.00  0.00    -0.299 NA
ATOM     24  C   UNL     1       5.729   2.881  27.289  0.00  0.00    +0.085 C 
ATOM     25  C   UNL     1       6.714   2.834  28.456  0.00  0.00    +0.017 C 
ATOM     26  C   UNL     1       6.979   1.361  28.707  0.00  0.00    +0.017 C 
ATOM     27  C   UNL     1       6.619   0.716  27.389  0.00  0.00    +0.085 C 
ENDBRANCH  22  23
ENDBRANCH   1  22
TORSDOF 7
ENDMDL
MODEL 7
REMARK VINA RESULT:      -6.2      4.630      7.838
REMARK  Name = 
REMARK  8 active torsions:
REMARK  status: ('A' for Active; 'I' for Inactive)
REMARK    1  A    between atoms: C_2  and  C_3
REMARK    2  A    between atoms: C_3  and  N_4
REMARK    3  A    between atoms: C_9  and  C_10
REMARK    4  A    between atoms: C_9  and  C_17
REMARK    5  A    between atoms: C_13  and  C_14
REMARK    6  A    between atoms: C_21  and  C_23
REMARK    7  A    between atoms: C_25  and  C_27
REMARK    8  A    between atoms: C_27  and  O_28
REMARK                            x       y       z     vdW  Elec       q    Type
REMARK                         _______ _______ _______ _____ _____    ______ ____
ROOT
ATOM      1  C   UNL     1       7.542  -2.617  25.702  0.00  0.00    -0.001 C 
ATOM      2  C   UNL     1       7.648  -2.693  24.347  0.00  0.00    +0.005 C 
ENDROOT
BRANCH   2   3
ATOM      3  C   UNL     1       8.307  -1.608  23.551  0.00  0.00    -0.016 A 
ATOM      4  C   UNL     1       7.536  -0.603  22.956  0.00  0.00    +0.009 A 
ATOM      5  C   UNL     1       8.142   0.531  22.400  0.00  0.00    +0.004 A 
ATOM      6  C   UNL     1       9.531   0.693  22.453  0.00  0.00    -0.050 A 
ATOM      7  C   UNL     1      10.165   1.980  22.021  0.00  0.00    +0.044 C 
ATOM      8  C   UNL     1      10.310  -0.357  22.935  0.00  0.00    +0.004 A 
ATOM      9  C   UNL     1       9.702  -1.517  23.419  0.00  0.00    +0.009 A 
ENDBRANCH   2   3
BRANCH   2  10
ATOM     10  C   UNL     1       7.064  -3.907  23.709  0.00  0.00    +0.072 A 
ATOM     11  N   UNL     1       6.266  -4.703  24.471  0.00  0.00    -0.247 NA
ATOM     12  C   UNL     1       5.717  -5.791  23.869  0.00  0.00    +0.065 A 
ATOM     13  C   UNL     1       5.949  -6.114  22.537  0.00  0.00    +0.028 A 
ATOM     14  C   UNL     1       6.765  -5.285  21.776  0.00  0.00    +0.004 A 
ATOM     15  C   UNL     1       7.329  -4.161  22.368  0.00  0.00    +0.028 A 
BRANCH  12  16
ATOM     16  C   UNL     1       4.813  -6.634  24.664  0.00  0.00    +0.035 C 
ATOM     17  C   UNL     1       3.637  -7.098  24.220  0.00  0.00    +0.093 C 
BRANCH  17  18
ATOM     18  C   UNL     1       2.832  -7.976  25.089  0.00  0.00    +0.330 C 
ATOM     19  O   UNL     1       2.250  -8.980  24.715  0.00  0.00    -0.246 OA
BRANCH  18  20
ATOM     20  O   UNL     1       2.799  -7.533  26.361  0.00  0.00    -0.478 OA
ATOM     21  H   UNL     1       2.010  -7.796  26.869  0.00  0.00    +0.295 HD
ENDBRANCH  18  20
ENDBRANCH  17  18
ENDBRANCH  12  16
ENDBRANCH   2  10
BRANCH   1  22
ATOM     22  C   UNL     1       8.093  -1.527  26.589  0.00  0.00    +0.112 C 
BRANCH  22  23
ATOM     23  N   UNL     1       7.208  -0.414  26.935  0.00  0.00    -0.299 NA
ATOM     24  C   UNL     1       5.826  -0.638  26.494  0.00  0.00    +0.085 C 
ATOM     25  C   UNL     1       5.292   0.730  26.071  0.00  0.00    +0.017 C 
ATOM     26  C   UNL     1       6.450   1.694  26.255  0.00  0.00    +0.017 C 
ATOM     27  C   UNL     1       7.661   0.792  26.213  0.00  0.00    +0.085 C 
ENDBRANCH  22  23
ENDBRANCH   1  22
TORSDOF 7
ENDMDL
MODEL 8
REMARK VINA RESULT:      -6.1      4.214      7.850
REMARK  Name = 
REMARK  8 active torsions:
REMARK  status: ('A' for Active; 'I' for Inactive)
REMARK    1  A    between atoms: C_2  and  C_3
REMARK    2  A    between atoms: C_3  and  N_4
REMARK    3  A    between atoms: C_9  and  C_10
REMARK    4  A    between atoms: C_9  and  C_17
REMARK    5  A    between atoms: C_13  and  C_14
REMARK    6  A    between atoms: C_21  and  C_23
REMARK    7  A    between atoms: C_25  and  C_27
REMARK    8  A    between atoms: C_27  and  O_28
REMARK                            x       y       z     vdW  Elec       q    Type
REMARK                         _______ _______ _______ _____ _____    ______ ____
ROOT
ATOM      1  C   UNL     1       8.486   2.652  24.826  0.00  0.00    -0.001 C 
ATOM      2  C   UNL     1       7.714   1.934  23.966  0.00  0.00    +0.005 C 
ENDROOT
BRANCH   2   3
ATOM      3  C   UNL     1       6.285   2.300  23.702  0.00  0.00    -0.016 A 
ATOM      4  C   UNL     1       5.308   2.072  24.678  0.00  0.00    +0.009 A 
ATOM      5  C   UNL     1       4.019   2.605  24.539  0.00  0.00    +0.004 A 
ATOM      6  C   UNL     1       3.693   3.397  23.434  0.00  0.00    -0.050 A 
ATOM      7  C   UNL     1       2.376   4.112  23.370  0.00  0.00    +0.044 C 
ATOM      8  C   UNL     1       4.622   3.527  22.403  0.00  0.00    +0.004 A 
ATOM      9  C   UNL     1       5.880   2.930  22.514  0.00  0.00    +0.009 A 
ENDBRANCH   2   3
BRANCH   2  10
ATOM     10  C   UNL     1       8.370   0.764  23.315  0.00  0.00    +0.072 A 
ATOM     11  N   UNL     1       8.203  -0.457  23.889  0.00  0.00    -0.247 NA
ATOM     12  C   UNL     1       8.781  -1.520  23.270  0.00  0.00    +0.065 A 
ATOM     13  C   UNL     1       9.530  -1.399  22.104  0.00  0.00    +0.028 A 
ATOM     14  C   UNL     1       9.686  -0.141  21.533  0.00  0.00    +0.004 A 
ATOM     15  C   UNL     1       9.093   0.958  22.143  0.00  0.00    +0.028 A 
BRANCH  12  16
ATOM     16  C   UNL     1       8.569  -2.854  23.850  0.00  0.00    +0.035 C 
ATOM     17  C   UNL     1       9.501  -3.529  24.537  0.00  0.00    +0.093 C 
BRANCH  17  18
ATOM     18  C   UNL     1       9.162  -4.843  25.115  0.00  0.00    +0.330 C 
ATOM     19  O   UNL     1       8.035  -5.201  25.410  0.00  0.00    -0.246 OA
BRANCH  18  20
ATOM     20  O   UNL     1      10.254  -5.611  25.295  0.00  0.00    -0.478 OA
ATOM     21  H   UNL     1      10.771  -5.411  26.097  0.00  0.00    +0.295 HD
ENDBRANCH  18  20
ENDBRANCH  17  18
ENDBRANCH  12  16
ENDBRANCH   2  10
BRANCH   1  22
ATOM     22  C   UNL     1       8.081   3.903  25.568  0.00  0.00    +0.112 C 
BRANCH  22  23
ATOM     23  N   UNL     1       8.502   5.192  25.016  0.00  0.00    -0.299 NA
ATOM     24  C   UNL     1       7.492   5.777  24.124  0.00  0.00    +0.085 C 
ATOM     25  C   UNL     1       8.270   6.482  23.014  0.00  0.00    +0.017 C 
ATOM     26  C   UNL     1       9.735   6.219  23.311  0.00  0.00    +0.017 C 
ATOM     27  C   UNL     1       9.695   4.978  24.173  0.00  0.00    +0.085 C 
ENDBRANCH  22  23
ENDBRANCH   1  22
TORSDOF 7
ENDMDL
MODEL 9
REMARK VINA RESULT:      -6.1      4.647      7.342
REMARK  Name = 
REMARK  8 active torsions:
REMARK  status: ('A' for Active; 'I' for Inactive)
REMARK    1  A    between atoms: C_2  and  C_3
REMARK    2  A    between atoms: C_3  and  N_4
REMARK    3  A    between atoms: C_9  and  C_10
REMARK    4  A    between atoms: C_9  and  C_17
REMARK    5  A    between atoms: C_13  and  C_14
REMARK    6  A    between atoms: C_21  and  C_23
REMARK    7  A    between atoms: C_25  and  C_27
REMARK    8  A    between atoms: C_27  and  O_28
REMARK                            x       y       z     vdW  Elec       q    Type
REMARK                         _______ _______ _______ _____ _____    ______ ____
ROOT
ATOM      1  C   UNL     1       8.775  -1.400  24.887  0.00  0.00    -0.001 C 
ATOM      2  C   UNL     1       7.657  -2.171  24.788  0.00  0.00    +0.005 C 
ENDROOT
BRANCH   2   3
ATOM      3  C   UNL     1       7.441  -3.091  23.625  0.00  0.00    -0.016 A 
ATOM      4  C   UNL     1       7.932  -4.402  23.661  0.00  0.00    +0.009 A 
ATOM      5  C   UNL     1       7.553  -5.336  22.689  0.00  0.00    +0.004 A 
ATOM      6  C   UNL     1       6.656  -4.983  21.675  0.00  0.00    -0.050 A 
ATOM      7  C   UNL     1       6.114  -6.023  20.741  0.00  0.00    +0.044 C 
ATOM      8  C   UNL     1       6.261  -3.651  21.562  0.00  0.00    +0.004 A 
ATOM      9  C   UNL     1       6.702  -2.708  22.493  0.00  0.00    +0.009 A 
ENDBRANCH   2   3
BRANCH   2  10
ATOM     10  C   UNL     1       6.666  -2.038  25.892  0.00  0.00    +0.072 A 
ATOM     11  N   UNL     1       6.194  -3.178  26.462  0.00  0.00    -0.247 NA
ATOM     12  C   UNL     1       5.312  -3.043  27.488  0.00  0.00    +0.065 A 
ATOM     13  C   UNL     1       4.879  -1.806  27.953  0.00  0.00    +0.028 A 
ATOM     14  C   UNL     1       5.377  -0.652  27.357  0.00  0.00    +0.004 A 
ATOM     15  C   UNL     1       6.287  -0.768  26.313  0.00  0.00    +0.028 A 
BRANCH  12  16
ATOM     16  C   UNL     1       4.830  -4.265  28.148  0.00  0.00    +0.035 C 
ATOM     17  C   UNL     1       5.629  -5.262  28.553  0.00  0.00    +0.093 C 
BRANCH  17  18
ATOM     18  C   UNL     1       5.040  -6.422  29.248  0.00  0.00    +0.330 C 
ATOM     19  O   UNL     1       4.361  -6.355  30.258  0.00  0.00    -0.246 OA
BRANCH  18  20
ATOM     20  O   UNL     1       5.349  -7.584  28.640  0.00  0.00    -0.478 OA
ATOM     21  H   UNL     1       4.719  -7.870  27.953  0.00  0.00    +0.295 HD
ENDBRANCH  18  20
ENDBRANCH  17  18
ENDBRANCH  12  16
ENDBRANCH   2  10
BRANCH   1  22
ATOM     22  C   UNL     1       9.947  -1.388  23.936  0.00  0.00    +0.112 C 
BRANCH  22  23
ATOM     23  N   UNL     1      10.477  -0.088  23.521  0.00  0.00    -0.299 NA
ATOM     24  C   UNL     1      10.125   0.986  24.458  0.00  0.00    +0.085 C 
ATOM     25  C   UNL     1       9.892   2.231  23.602  0.00  0.00    +0.017 C 
ATOM     26  C   UNL     1      10.085   1.780  22.165  0.00  0.00    +0.017 C 
ATOM     27  C   UNL     1       9.853   0.289  22.237  0.00  0.00    +0.085 C 
ENDBRANCH  22  23
ENDBRANCH   1  22
TORSDOF 7
ENDMDL
