MODEL 1
REMARK VINA RESULT:      -4.8      0.000      0.000
REMARK  Name = 
REMARK  11 active torsions:
REMARK  status: ('A' for Active; 'I' for Inactive)
REMARK    1  A    between atoms: N_1  and  C_2
REMARK    2  A    between atoms: C_2  and  C_3
REMARK    3  A    between atoms: C_3  and  O_4
REMARK    4  A    between atoms: O_4  and  P_5
REMARK    5  A    between atoms: P_5  and  O_6
REMARK    6  A    between atoms: P_5  and  O_8
REMARK    7  A    between atoms: O_8  and  C_9
REMARK    8  A    between atoms: C_9  and  C_10
REMARK    9  A    between atoms: C_10  and  O_12
REMARK   10  A    between atoms: C_10  and  C_13
REMARK   11  A    between atoms: C_13  and  O_14
REMARK                            x       y       z     vdW  Elec       q    Type
REMARK                         _______ _______ _______ _____ _____    ______ ____
ROOT
ATOM      1  P   UNL     1       9.851  -1.752  23.731  0.00  0.00    +0.475 P 
ATOM      2  O   UNL     1      10.693  -1.874  22.456  0.00  0.00    -0.227 OA
ENDROOT
BRANCH   1   3
ATOM      3  O   UNL     1       8.324  -1.979  23.195  0.00  0.00    -0.302 OA
ATOM      4  H   UNL     1       7.806  -2.228  23.985  0.00  0.00    +0.222 HD
ENDBRANCH   1   3
BRANCH   1   5
ATOM      5  O   UNL     1       9.720  -0.047  23.465  0.00  0.00    -0.285 OA
BRANCH   5   6
ATOM      6  C   UNL     1       8.559   0.357  22.737  0.00  0.00    +0.187 C 
BRANCH   6   7
ATOM      7  C   UNL     1       8.898   1.087  21.429  0.00  0.00    +0.106 C 
BRANCH   7   8
ATOM      8  N   UNL     1       9.882   2.147  21.641  0.00  0.00    -0.328 NA
ATOM      9  H   UNL     1      10.779   1.849  21.244  0.00  0.00    +0.118 HD
ATOM     10  H   UNL     1       9.604   2.978  21.105  0.00  0.00    +0.118 HD
ENDBRANCH   7   8
ENDBRANCH   6   7
ENDBRANCH   5   6
ENDBRANCH   1   5
BRANCH   1  11
ATOM     11  O   UNL     1       9.983  -3.456  23.995  0.00  0.00    -0.284 OA
BRANCH  11  12
ATOM     12  C   UNL     1       8.725  -4.067  24.258  0.00  0.00    +0.206 C 
BRANCH  12  13
ATOM     13  C   UNL     1       8.882  -5.178  25.287  0.00  0.00    +0.166 C 
BRANCH  13  14
ATOM     14  O   UNL     1      10.257  -5.585  25.377  0.00  0.00    -0.387 OA
ATOM     15  H   UNL     1      10.303  -6.517  25.094  0.00  0.00    +0.210 HD
ENDBRANCH  13  14
BRANCH  13  16
ATOM     16  C   UNL     1       8.430  -4.725  26.673  0.00  0.00    +0.189 C 
BRANCH  16  17
ATOM     17  O   UNL     1       7.976  -5.855  27.420  0.00  0.00    -0.392 OA
ATOM     18  H   UNL     1       8.656  -6.549  27.279  0.00  0.00    +0.210 HD
ENDBRANCH  16  17
ENDBRANCH  13  16
ENDBRANCH  12  13
ENDBRANCH  11  12
ENDBRANCH   1  11
TORSDOF 11
ENDMDL
MODEL 2
REMARK VINA RESULT:      -4.7      4.590      7.898
REMARK  Name = 
REMARK  11 active torsions:
REMARK  status: ('A' for Active; 'I' for Inactive)
REMARK    1  A    between atoms: N_1  and  C_2
REMARK    2  A    between atoms: C_2  and  C_3
REMARK    3  A    between atoms: C_3  and  O_4
REMARK    4  A    between atoms: O_4  and  P_5
REMARK    5  A    between atoms: P_5  and  O_6
REMARK    6  A    between atoms: P_5  and  O_8
REMARK    7  A    between atoms: O_8  and  C_9
REMARK    8  A    between atoms: C_9  and  C_10
REMARK    9  A    between atoms: C_10  and  O_12
REMARK   10  A    between atoms: C_10  and  C_13
REMARK   11  A    between atoms: C_13  and  O_14
REMARK                            x       y       z     vdW  Elec       q    Type
REMARK                         _______ _______ _______ _____ _____    ______ ____
ROOT
ATOM      1  P   UNL     1      10.092   2.447  23.352  0.00  0.00    +0.475 P 
ATOM      2  O   UNL     1      10.423   2.046  21.911  0.00  0.00    -0.227 OA
ENDROOT
BRANCH   1   3
ATOM      3  O   UNL     1      11.019   1.439  24.244  0.00  0.00    -0.302 OA
ATOM      4  H   UNL     1      10.851   0.546  23.884  0.00  0.00    +0.222 HD
ENDBRANCH   1   3
BRANCH   1   5
ATOM      5  O   UNL     1       8.794   1.303  23.358  0.00  0.00    -0.285 OA
BRANCH   5   6
ATOM      6  C   UNL     1       8.733   0.462  22.204  0.00  0.00    +0.187 C 
BRANCH   6   7
ATOM      7  C   UNL     1       9.050  -1.007  22.518  0.00  0.00    +0.106 C 
BRANCH   7   8
ATOM      8  N   UNL     1      10.098  -1.533  21.645  0.00  0.00    -0.328 NA
ATOM      9  H   UNL     1       9.710  -1.664  20.705  0.00  0.00    +0.118 HD
ATOM     10  H   UNL     1      10.838  -0.828  21.545  0.00  0.00    +0.118 HD
ENDBRANCH   7   8
ENDBRANCH   6   7
ENDBRANCH   5   6
ENDBRANCH   1   5
BRANCH   1  11
ATOM     11  O   UNL     1      11.390   3.590  23.345  0.00  0.00    -0.284 OA
BRANCH  11  12
ATOM     12  C   UNL     1      10.986   4.877  23.800  0.00  0.00    +0.206 C 
BRANCH  12  13
ATOM     13  C   UNL     1      12.075   5.902  23.517  0.00  0.00    +0.166 C 
BRANCH  13  14
ATOM     14  O   UNL     1      12.782   6.227  24.725  0.00  0.00    -0.387 OA
ATOM     15  H   UNL     1      13.481   5.557  24.841  0.00  0.00    +0.210 HD
ENDBRANCH  13  14
BRANCH  13  16
ATOM     16  C   UNL     1      13.088   5.377  22.502  0.00  0.00    +0.189 C 
BRANCH  16  17
ATOM     17  O   UNL     1      14.266   4.943  23.185  0.00  0.00    -0.392 OA
ATOM     18  H   UNL     1      14.928   5.654  23.036  0.00  0.00    +0.210 HD
ENDBRANCH  16  17
ENDBRANCH  13  16
ENDBRANCH  12  13
ENDBRANCH  11  12
ENDBRANCH   1  11
TORSDOF 11
ENDMDL
MODEL 3
REMARK VINA RESULT:      -4.7      2.929      6.012
REMARK  Name = 
REMARK  11 active torsions:
REMARK  status: ('A' for Active; 'I' for Inactive)
REMARK    1  A    between atoms: N_1  and  C_2
REMARK    2  A    between atoms: C_2  and  C_3
REMARK    3  A    between atoms: C_3  and  O_4
REMARK    4  A    between atoms: O_4  and  P_5
REMARK    5  A    between atoms: P_5  and  O_6
REMARK    6  A    between atoms: P_5  and  O_8
REMARK    7  A    between atoms: O_8  and  C_9
REMARK    8  A    between atoms: C_9  and  C_10
REMARK    9  A    between atoms: C_10  and  O_12
REMARK   10  A    between atoms: C_10  and  C_13
REMARK   11  A    between atoms: C_13  and  O_14
REMARK                            x       y       z     vdW  Elec       q    Type
REMARK                         _______ _______ _______ _____ _____    ______ ____
ROOT
ATOM      1  P   UNL     1       8.352  -2.845  23.725  0.00  0.00    +0.475 P 
ATOM      2  O   UNL     1       7.942  -2.948  22.251  0.00  0.00    -0.227 OA
ENDROOT
BRANCH   1   3
ATOM      3  O   UNL     1       9.983  -2.930  23.667  0.00  0.00    -0.302 OA
ATOM      4  H   UNL     1      10.300  -2.242  24.285  0.00  0.00    +0.222 HD
ENDBRANCH   1   3
BRANCH   1   5
ATOM      5  O   UNL     1       8.240  -4.567  23.862  0.00  0.00    -0.285 OA
BRANCH   5   6
ATOM      6  C   UNL     1       7.860  -5.039  25.156  0.00  0.00    +0.187 C 
BRANCH   6   7
ATOM      7  C   UNL     1       9.052  -5.187  26.112  0.00  0.00    +0.106 C 
BRANCH   7   8
ATOM      8  N   UNL     1      10.281  -5.524  25.397  0.00  0.00    -0.328 NA
ATOM      9  H   UNL     1      11.080  -5.361  26.017  0.00  0.00    +0.118 HD
ATOM     10  H   UNL     1      10.288  -6.531  25.194  0.00  0.00    +0.118 HD
ENDBRANCH   7   8
ENDBRANCH   6   7
ENDBRANCH   5   6
ENDBRANCH   1   5
BRANCH   1  11
ATOM     11  O   UNL     1       8.463  -1.125  23.587  0.00  0.00    -0.284 OA
BRANCH  11  12
ATOM     12  C   UNL     1       9.808  -0.671  23.496  0.00  0.00    +0.206 C 
BRANCH  12  13
ATOM     13  C   UNL     1      10.063  -0.045  22.131  0.00  0.00    +0.166 C 
BRANCH  13  14
ATOM     14  O   UNL     1       9.872  -1.018  21.091  0.00  0.00    -0.387 OA
ATOM     15  H   UNL     1      10.051  -1.895  21.478  0.00  0.00    +0.210 HD
ENDBRANCH  13  14
BRANCH  13  16
ATOM     16  C   UNL     1       9.116   1.123  21.866  0.00  0.00    +0.189 C 
BRANCH  16  17
ATOM     17  O   UNL     1       9.869   2.265  21.453  0.00  0.00    -0.392 OA
ATOM     18  H   UNL     1       9.756   2.924  22.172  0.00  0.00    +0.210 HD
ENDBRANCH  16  17
ENDBRANCH  13  16
ENDBRANCH  12  13
ENDBRANCH  11  12
ENDBRANCH   1  11
TORSDOF 11
ENDMDL
MODEL 4
REMARK VINA RESULT:      -4.7      3.020      6.075
REMARK  Name = 
REMARK  11 active torsions:
REMARK  status: ('A' for Active; 'I' for Inactive)
REMARK    1  A    between atoms: N_1  and  C_2
REMARK    2  A    between atoms: C_2  and  C_3
REMARK    3  A    between atoms: C_3  and  O_4
REMARK    4  A    between atoms: O_4  and  P_5
REMARK    5  A    between atoms: P_5  and  O_6
REMARK    6  A    between atoms: P_5  and  O_8
REMARK    7  A    between atoms: O_8  and  C_9
REMARK    8  A    between atoms: C_9  and  C_10
REMARK    9  A    between atoms: C_10  and  O_12
REMARK   10  A    between atoms: C_10  and  C_13
REMARK   11  A    between atoms: C_13  and  O_14
REMARK                            x       y       z     vdW  Elec       q    Type
REMARK                         _______ _______ _______ _____ _____    ______ ____
ROOT
ATOM      1  P   UNL     1       9.233  -1.855  23.314  0.00  0.00    +0.475 P 
ATOM      2  O   UNL     1      10.587  -1.788  22.599  0.00  0.00    -0.227 OA
ENDROOT
BRANCH   1   3
ATOM      3  O   UNL     1       9.542  -1.173  24.767  0.00  0.00    -0.302 OA
ATOM      4  H   UNL     1      10.514  -1.200  24.864  0.00  0.00    +0.222 HD
ENDBRANCH   1   3
BRANCH   1   5
ATOM      5  O   UNL     1       9.649  -3.418  23.928  0.00  0.00    -0.285 OA
BRANCH   5   6
ATOM      6  C   UNL     1       8.534  -4.271  24.196  0.00  0.00    +0.187 C 
BRANCH   6   7
ATOM      7  C   UNL     1       8.719  -5.117  25.464  0.00  0.00    +0.106 C 
BRANCH   7   8
ATOM      8  N   UNL     1       9.954  -5.897  25.418  0.00  0.00    -0.328 NA
ATOM      9  H   UNL     1      10.718  -5.288  25.105  0.00  0.00    +0.118 HD
ATOM     10  H   UNL     1      10.205  -6.188  26.371  0.00  0.00    +0.118 HD
ENDBRANCH   7   8
ENDBRANCH   6   7
ENDBRANCH   5   6
ENDBRANCH   1   5
BRANCH   1  11
ATOM     11  O   UNL     1       8.818  -0.292  22.700  0.00  0.00    -0.284 OA
BRANCH  11  12
ATOM     12  C   UNL     1       9.793   0.216  21.797  0.00  0.00    +0.206 C 
BRANCH  12  13
ATOM     13  C   UNL     1       9.998   1.707  22.027  0.00  0.00    +0.166 C 
BRANCH  13  14
ATOM     14  O   UNL     1       8.844   2.444  21.590  0.00  0.00    -0.387 OA
ATOM     15  H   UNL     1       8.406   2.797  22.387  0.00  0.00    +0.210 HD
ENDBRANCH  13  14
BRANCH  13  16
ATOM     16  C   UNL     1      10.227   2.019  23.503  0.00  0.00    +0.189 C 
BRANCH  16  17
ATOM     17  O   UNL     1      11.086   1.029  24.073  0.00  0.00    -0.392 OA
ATOM     18  H   UNL     1      11.268   1.340  24.987  0.00  0.00    +0.210 HD
ENDBRANCH  16  17
ENDBRANCH  13  16
ENDBRANCH  12  13
ENDBRANCH  11  12
ENDBRANCH   1  11
TORSDOF 11
ENDMDL
MODEL 5
REMARK VINA RESULT:      -4.6      2.321      3.018
REMARK  Name = 
REMARK  11 active torsions:
REMARK  status: ('A' for Active; 'I' for Inactive)
REMARK    1  A    between atoms: N_1  and  C_2
REMARK    2  A    between atoms: C_2  and  C_3
REMARK    3  A    between atoms: C_3  and  O_4
REMARK    4  A    between atoms: O_4  and  P_5
REMARK    5  A    between atoms: P_5  and  O_6
REMARK    6  A    between atoms: P_5  and  O_8
REMARK    7  A    between atoms: O_8  and  C_9
REMARK    8  A    between atoms: C_9  and  C_10
REMARK    9  A    between atoms: C_10  and  O_12
REMARK   10  A    between atoms: C_10  and  C_13
REMARK   11  A    between atoms: C_13  and  O_14
REMARK                            x       y       z     vdW  Elec       q    Type
REMARK                         _______ _______ _______ _____ _____    ______ ____
ROOT
ATOM      1  P   UNL     1       9.383  -1.561  22.825  0.00  0.00    +0.475 P 
ATOM      2  O   UNL     1      10.182  -2.677  23.507  0.00  0.00    -0.227 OA
ENDROOT
BRANCH   1   3
ATOM      3  O   UNL     1      10.090  -1.437  21.357  0.00  0.00    -0.302 OA
ATOM      4  H   UNL     1      10.165  -0.478  21.186  0.00  0.00    +0.222 HD
ENDBRANCH   1   3
BRANCH   1   5
ATOM      5  O   UNL     1      10.480  -0.394  23.482  0.00  0.00    -0.285 OA
BRANCH   5   6
ATOM      6  C   UNL     1       9.880   0.850  23.848  0.00  0.00    +0.187 C 
BRANCH   6   7
ATOM      7  C   UNL     1      10.340   2.018  22.964  0.00  0.00    +0.106 C 
BRANCH   7   8
ATOM      8  N   UNL     1       9.864   1.876  21.589  0.00  0.00    -0.328 NA
ATOM      9  H   UNL     1       9.875   0.883  21.337  0.00  0.00    +0.118 HD
ATOM     10  H   UNL     1       8.879   2.164  21.541  0.00  0.00    +0.118 HD
ENDBRANCH   7   8
ENDBRANCH   6   7
ENDBRANCH   5   6
ENDBRANCH   1   5
BRANCH   1  11
ATOM     11  O   UNL     1       8.288  -2.727  22.170  0.00  0.00    -0.284 OA
BRANCH  11  12
ATOM     12  C   UNL     1       7.075  -2.812  22.909  0.00  0.00    +0.206 C 
BRANCH  12  13
ATOM     13  C   UNL     1       6.380  -4.138  22.633  0.00  0.00    +0.166 C 
BRANCH  13  14
ATOM     14  O   UNL     1       5.709  -4.096  21.362  0.00  0.00    -0.387 OA
ATOM     15  H   UNL     1       4.790  -3.816  21.529  0.00  0.00    +0.210 HD
ENDBRANCH  13  14
BRANCH  13  16
ATOM     16  C   UNL     1       7.375  -5.296  22.604  0.00  0.00    +0.189 C 
BRANCH  16  17
ATOM     17  O   UNL     1       8.345  -5.117  23.638  0.00  0.00    -0.392 OA
ATOM     18  H   UNL     1       8.652  -4.189  23.546  0.00  0.00    +0.210 HD
ENDBRANCH  16  17
ENDBRANCH  13  16
ENDBRANCH  12  13
ENDBRANCH  11  12
ENDBRANCH   1  11
TORSDOF 11
ENDMDL
MODEL 6
REMARK VINA RESULT:      -4.5      3.921      5.222
REMARK  Name = 
REMARK  11 active torsions:
REMARK  status: ('A' for Active; 'I' for Inactive)
REMARK    1  A    between atoms: N_1  and  C_2
REMARK    2  A    between atoms: C_2  and  C_3
REMARK    3  A    between atoms: C_3  and  O_4
REMARK    4  A    between atoms: O_4  and  P_5
REMARK    5  A    between atoms: P_5  and  O_6
REMARK    6  A    between atoms: P_5  and  O_8
REMARK    7  A    between atoms: O_8  and  C_9
REMARK    8  A    between atoms: C_9  and  C_10
REMARK    9  A    between atoms: C_10  and  O_12
REMARK   10  A    between atoms: C_10  and  C_13
REMARK   11  A    between atoms: C_13  and  O_14
REMARK                            x       y       z     vdW  Elec       q    Type
REMARK                         _______ _______ _______ _____ _____    ______ ____
ROOT
ATOM      1  P   UNL     1       9.460   2.611  23.454  0.00  0.00    +0.475 P 
ATOM      2  O   UNL     1      10.748   1.843  23.772  0.00  0.00    -0.227 OA
ENDROOT
BRANCH   1   3
ATOM      3  O   UNL     1       9.428   2.629  21.820  0.00  0.00    -0.302 OA
ATOM      4  H   UNL     1       8.484   2.711  21.580  0.00  0.00    +0.222 HD
ENDBRANCH   1   3
BRANCH   1   5
ATOM      5  O   UNL     1      10.352   4.093  23.481  0.00  0.00    -0.285 OA
BRANCH   5   6
ATOM      6  C   UNL     1      11.765   3.943  23.326  0.00  0.00    +0.187 C 
BRANCH   6   7
ATOM      7  C   UNL     1      12.516   5.281  23.360  0.00  0.00    +0.106 C 
BRANCH   7   8
ATOM      8  N   UNL     1      13.951   5.102  23.150  0.00  0.00    -0.328 NA
ATOM      9  H   UNL     1      14.443   5.929  23.505  0.00  0.00    +0.118 HD
ATOM     10  H   UNL     1      14.281   4.317  23.724  0.00  0.00    +0.118 HD
ENDBRANCH   7   8
ENDBRANCH   6   7
ENDBRANCH   5   6
ENDBRANCH   1   5
BRANCH   1  11
ATOM     11  O   UNL     1       8.568   1.129  23.427  0.00  0.00    -0.284 OA
BRANCH  11  12
ATOM     12  C   UNL     1       9.233   0.080  24.122  0.00  0.00    +0.206 C 
BRANCH  12  13
ATOM     13  C   UNL     1       8.956  -1.257  23.447  0.00  0.00    +0.166 C 
BRANCH  13  14
ATOM     14  O   UNL     1       7.627  -1.276  22.901  0.00  0.00    -0.387 OA
ATOM     15  H   UNL     1       7.114  -0.587  23.363  0.00  0.00    +0.210 HD
ENDBRANCH  13  14
BRANCH  13  16
ATOM     16  C   UNL     1       9.939  -1.525  22.310  0.00  0.00    +0.189 C 
BRANCH  16  17
ATOM     17  O   UNL     1      10.014  -0.375  21.464  0.00  0.00    -0.392 OA
ATOM     18  H   UNL     1      10.968  -0.269  21.256  0.00  0.00    +0.210 HD
ENDBRANCH  16  17
ENDBRANCH  13  16
ENDBRANCH  12  13
ENDBRANCH  11  12
ENDBRANCH   1  11
TORSDOF 11
ENDMDL
MODEL 7
REMARK VINA RESULT:      -4.5      1.288      1.912
REMARK  Name = 
REMARK  11 active torsions:
REMARK  status: ('A' for Active; 'I' for Inactive)
REMARK    1  A    between atoms: N_1  and  C_2
REMARK    2  A    between atoms: C_2  and  C_3
REMARK    3  A    between atoms: C_3  and  O_4
REMARK    4  A    between atoms: O_4  and  P_5
REMARK    5  A    between atoms: P_5  and  O_6
REMARK    6  A    between atoms: P_5  and  O_8
REMARK    7  A    between atoms: O_8  and  C_9
REMARK    8  A    between atoms: C_9  and  C_10
REMARK    9  A    between atoms: C_10  and  O_12
REMARK   10  A    between atoms: C_10  and  C_13
REMARK   11  A    between atoms: C_13  and  O_14
REMARK                            x       y       z     vdW  Elec       q    Type
REMARK                         _______ _______ _______ _____ _____    ______ ____
ROOT
ATOM      1  P   UNL     1       9.326  -1.757  23.580  0.00  0.00    +0.475 P 
ATOM      2  O   UNL     1      10.499  -2.703  23.300  0.00  0.00    -0.227 OA
ENDROOT
BRANCH   1   3
ATOM      3  O   UNL     1       8.387  -1.920  22.252  0.00  0.00    -0.302 OA
ATOM      4  H   UNL     1       7.920  -2.771  22.368  0.00  0.00    +0.222 HD
ENDBRANCH   1   3
BRANCH   1   5
ATOM      5  O   UNL     1      10.205  -0.467  22.834  0.00  0.00    -0.285 OA
BRANCH   5   6
ATOM      6  C   UNL     1      10.479   0.644  23.690  0.00  0.00    +0.187 C 
BRANCH   6   7
ATOM      7  C   UNL     1      10.238   1.998  23.009  0.00  0.00    +0.106 C 
BRANCH   7   8
ATOM      8  N   UNL     1       9.854   1.838  21.608  0.00  0.00    -0.328 NA
ATOM      9  H   UNL     1       8.933   2.266  21.466  0.00  0.00    +0.118 HD
ATOM     10  H   UNL     1      10.502   2.373  21.016  0.00  0.00    +0.118 HD
ENDBRANCH   7   8
ENDBRANCH   6   7
ENDBRANCH   5   6
ENDBRANCH   1   5
BRANCH   1  11
ATOM     11  O   UNL     1       8.447  -3.046  24.326  0.00  0.00    -0.284 OA
BRANCH  11  12
ATOM     12  C   UNL     1       8.392  -2.921  25.742  0.00  0.00    +0.206 C 
BRANCH  12  13
ATOM     13  C   UNL     1       8.813  -4.226  26.404  0.00  0.00    +0.166 C 
BRANCH  13  14
ATOM     14  O   UNL     1       7.772  -4.707  27.270  0.00  0.00    -0.387 OA
ATOM     15  H   UNL     1       8.145  -4.764  28.169  0.00  0.00    +0.210 HD
ENDBRANCH  13  14
BRANCH  13  16
ATOM     16  C   UNL     1       9.106  -5.310  25.369  0.00  0.00    +0.189 C 
BRANCH  16  17
ATOM     17  O   UNL     1      10.470  -5.217  24.953  0.00  0.00    -0.392 OA
ATOM     18  H   UNL     1      10.801  -4.375  25.336  0.00  0.00    +0.210 HD
ENDBRANCH  16  17
ENDBRANCH  13  16
ENDBRANCH  12  13
ENDBRANCH  11  12
ENDBRANCH   1  11
TORSDOF 11
ENDMDL
MODEL 8
REMARK VINA RESULT:      -4.4      3.001      6.177
REMARK  Name = 
REMARK  11 active torsions:
REMARK  status: ('A' for Active; 'I' for Inactive)
REMARK    1  A    between atoms: N_1  and  C_2
REMARK    2  A    between atoms: C_2  and  C_3
REMARK    3  A    between atoms: C_3  and  O_4
REMARK    4  A    between atoms: O_4  and  P_5
REMARK    5  A    between atoms: P_5  and  O_6
REMARK    6  A    between atoms: P_5  and  O_8
REMARK    7  A    between atoms: O_8  and  C_9
REMARK    8  A    between atoms: C_9  and  C_10
REMARK    9  A    between atoms: C_10  and  O_12
REMARK   10  A    between atoms: C_10  and  C_13
REMARK   11  A    between atoms: C_13  and  O_14
REMARK                            x       y       z     vdW  Elec       q    Type
REMARK                         _______ _______ _______ _____ _____    ______ ____
ROOT
ATOM      1  P   UNL     1      10.162  -1.278  23.188  0.00  0.00    +0.475 P 
ATOM      2  O   UNL     1       8.685  -1.132  23.569  0.00  0.00    -0.227 OA
ENDROOT
BRANCH   1   3
ATOM      3  O   UNL     1      10.101  -1.760  21.627  0.00  0.00    -0.302 OA
ATOM      4  H   UNL     1      10.888  -1.365  21.203  0.00  0.00    +0.222 HD
ENDBRANCH   1   3
BRANCH   1   5
ATOM      5  O   UNL     1      10.124  -2.923  23.726  0.00  0.00    -0.285 OA
BRANCH   5   6
ATOM      6  C   UNL     1       8.843  -3.377  24.167  0.00  0.00    +0.187 C 
BRANCH   6   7
ATOM      7  C   UNL     1       8.884  -4.790  24.766  0.00  0.00    +0.106 C 
BRANCH   7   8
ATOM      8  N   UNL     1      10.252  -5.217  25.052  0.00  0.00    -0.328 NA
ATOM      9  H   UNL     1      10.278  -5.644  25.984  0.00  0.00    +0.118 HD
ATOM     10  H   UNL     1      10.516  -5.965  24.398  0.00  0.00    +0.118 HD
ENDBRANCH   7   8
ENDBRANCH   6   7
ENDBRANCH   5   6
ENDBRANCH   1   5
BRANCH   1  11
ATOM     11  O   UNL     1      10.200   0.365  22.651  0.00  0.00    -0.284 OA
BRANCH  11  12
ATOM     12  C   UNL     1       9.977   1.290  23.709  0.00  0.00    +0.206 C 
BRANCH  12  13
ATOM     13  C   UNL     1       9.223   2.509  23.193  0.00  0.00    +0.166 C 
BRANCH  13  14
ATOM     14  O   UNL     1      10.142   3.569  22.880  0.00  0.00    -0.387 OA
ATOM     15  H   UNL     1      11.040   3.239  23.068  0.00  0.00    +0.210 HD
ENDBRANCH  13  14
BRANCH  13  16
ATOM     16  C   UNL     1       8.428   2.183  21.931  0.00  0.00    +0.189 C 
BRANCH  16  17
ATOM     17  O   UNL     1       7.449   1.185  22.228  0.00  0.00    -0.392 OA
ATOM     18  H   UNL     1       7.138   1.390  23.136  0.00  0.00    +0.210 HD
ENDBRANCH  16  17
ENDBRANCH  13  16
ENDBRANCH  12  13
ENDBRANCH  11  12
ENDBRANCH   1  11
TORSDOF 11
ENDMDL
MODEL 9
REMARK VINA RESULT:      -4.4      1.916      2.442
REMARK  Name = 
REMARK  11 active torsions:
REMARK  status: ('A' for Active; 'I' for Inactive)
REMARK    1  A    between atoms: N_1  and  C_2
REMARK    2  A    between atoms: C_2  and  C_3
REMARK    3  A    between atoms: C_3  and  O_4
REMARK    4  A    between atoms: O_4  and  P_5
REMARK    5  A    between atoms: P_5  and  O_6
REMARK    6  A    between atoms: P_5  and  O_8
REMARK    7  A    between atoms: O_8  and  C_9
REMARK    8  A    between atoms: C_9  and  C_10
REMARK    9  A    between atoms: C_10  and  O_12
REMARK   10  A    between atoms: C_10  and  C_13
REMARK   11  A    between atoms: C_13  and  O_14
REMARK                            x       y       z     vdW  Elec       q    Type
REMARK                         _______ _______ _______ _____ _____    ______ ____
ROOT
ATOM      1  P   UNL     1       9.199  -1.700  22.538  0.00  0.00    +0.475 P 
ATOM      2  O   UNL     1       8.235  -0.825  23.347  0.00  0.00    -0.227 OA
ENDROOT
BRANCH   1   3
ATOM      3  O   UNL     1      10.233  -2.265  23.670  0.00  0.00    -0.302 OA
ATOM      4  H   UNL     1       9.690  -2.400  24.472  0.00  0.00    +0.222 HD
ENDBRANCH   1   3
BRANCH   1   5
ATOM      5  O   UNL     1      10.206  -0.318  22.269  0.00  0.00    -0.285 OA
BRANCH   5   6
ATOM      6  C   UNL     1       9.822   0.852  22.994  0.00  0.00    +0.187 C 
BRANCH   6   7
ATOM      7  C   UNL     1      10.755   1.157  24.174  0.00  0.00    +0.106 C 
BRANCH   7   8
ATOM      8  N   UNL     1      10.384   0.398  25.367  0.00  0.00    -0.328 NA
ATOM      9  H   UNL     1       9.552   0.827  25.786  0.00  0.00    +0.118 HD
ATOM     10  H   UNL     1      10.098  -0.549  25.090  0.00  0.00    +0.118 HD
ENDBRANCH   7   8
ENDBRANCH   6   7
ENDBRANCH   5   6
ENDBRANCH   1   5
BRANCH   1  11
ATOM     11  O   UNL     1       8.192  -3.080  22.807  0.00  0.00    -0.284 OA
BRANCH  11  12
ATOM     12  C   UNL     1       8.026  -3.373  24.190  0.00  0.00    +0.206 C 
BRANCH  12  13
ATOM     13  C   UNL     1       7.974  -4.879  24.406  0.00  0.00    +0.166 C 
BRANCH  13  14
ATOM     14  O   UNL     1       8.176  -5.571  23.163  0.00  0.00    -0.387 OA
ATOM     15  H   UNL     1       8.056  -4.920  22.446  0.00  0.00    +0.210 HD
ENDBRANCH  13  14
BRANCH  13  16
ATOM     16  C   UNL     1       9.051  -5.341  25.385  0.00  0.00    +0.189 C 
BRANCH  16  17
ATOM     17  O   UNL     1      10.342  -5.051  24.846  0.00  0.00    -0.392 OA
ATOM     18  H   UNL     1      10.549  -4.139  25.147  0.00  0.00    +0.210 HD
ENDBRANCH  16  17
ENDBRANCH  13  16
ENDBRANCH  12  13
ENDBRANCH  11  12
ENDBRANCH   1  11
TORSDOF 11
ENDMDL
