MODEL 1
REMARK VINA RESULT:      -8.6      0.000      0.000
REMARK  Name = 
REMARK  6 active torsions:
REMARK  status: ('A' for Active; 'I' for Inactive)
REMARK    1  A    between atoms: N_9  and  C_10
REMARK    2  A    between atoms: C_10  and  C_11
REMARK    3  A    between atoms: C_11  and  C_12
REMARK    4  A    between atoms: C_12  and  C_13
REMARK    5  A    between atoms: C_13  and  N_14
REMARK    6  A    between atoms: C_17  and  C_20
REMARK                            x       y       z     vdW  Elec       q    Type
REMARK                         _______ _______ _______ _____ _____    ______ ____
ROOT
ATOM      1  C   UNL     1       7.517  -4.933  23.053  0.00  0.00    +0.127 C 
ENDROOT
BRANCH   1   8
ATOM      2  F   UNL     1       4.486  -6.555  28.126  0.00  0.00    -0.205 F 
ATOM      3  C   UNL     1       4.667  -6.324  26.820  0.00  0.00    +0.138 A 
ATOM      4  C   UNL     1       3.569  -6.463  25.978  0.00  0.00    +0.039 A 
ATOM      5  C   UNL     1       3.710  -6.230  24.615  0.00  0.00    +0.005 A 
ATOM      6  C   UNL     1       4.952  -5.851  24.101  0.00  0.00    +0.027 A 
ATOM      7  C   UNL     1       6.071  -5.711  24.944  0.00  0.00    +0.061 A 
ATOM      8  N   UNL     1       7.346  -5.319  24.446  0.00  0.00    -0.293 N 
ATOM      9  C   UNL     1       8.471  -5.276  25.258  0.00  0.00    +0.330 A 
ATOM     10  O   UNL     1       9.597  -4.985  24.861  0.00  0.00    -0.246 OA
ATOM     11  N   UNL     1       8.276  -5.564  26.576  0.00  0.00    -0.274 N 
ATOM     12  H   UNL     1       9.087  -5.476  27.170  0.00  0.00    +0.173 HD
ATOM     13  C   UNL     1       7.085  -5.837  27.191  0.00  0.00    +0.264 A 
ATOM     14  O   UNL     1       7.022  -5.961  28.409  0.00  0.00    -0.267 OA
ATOM     15  C   UNL     1       5.915  -5.961  26.310  0.00  0.00    +0.098 A 
ENDBRANCH   1   8
BRANCH   1  16
ATOM     16  C   UNL     1       7.165  -3.463  22.799  0.00  0.00    +0.023 C 
BRANCH  16  17
ATOM     17  C   UNL     1       8.358  -2.681  22.242  0.00  0.00    +0.017 C 
BRANCH  17  18
ATOM     18  C   UNL     1       8.487  -1.310  22.913  0.00  0.00    +0.085 C 
BRANCH  18  19
ATOM     19  N   UNL     1       9.693  -0.576  22.600  0.00  0.00    -0.298 NA
ATOM     20  C   UNL     1       9.563   0.446  21.580  0.00  0.00    +0.112 C 
ATOM     21  C   UNL     1       9.841   1.849  22.011  0.00  0.00    -0.008 C 
ATOM     22  C   UNL     1      10.326   2.201  23.214  0.00  0.00    -0.042 C 
ATOM     23  C   UNL     1      10.674   1.138  24.226  0.00  0.00    +0.051 C 
ATOM     24  C   UNL     1      10.594  -0.308  23.709  0.00  0.00    +0.089 C 
BRANCH  22  25
ATOM     25  C   UNL     1      10.554   3.626  23.564  0.00  0.00    -0.022 A 
ATOM     26  C   UNL     1      11.805   4.233  23.380  0.00  0.00    +0.008 A 
ATOM     27  C   UNL     1      12.015   5.576  23.714  0.00  0.00    +0.001 A 
ATOM     28  C   UNL     1      10.975   6.336  24.237  0.00  0.00    +0.000 A 
ATOM     29  C   UNL     1       9.729   5.753  24.439  0.00  0.00    +0.001 A 
ATOM     30  C   UNL     1       9.524   4.409  24.113  0.00  0.00    +0.008 A 
ENDBRANCH  22  25
ENDBRANCH  18  19
ENDBRANCH  17  18
ENDBRANCH  16  17
ENDBRANCH   1  16
TORSDOF 6
ENDMDL
MODEL 2
REMARK VINA RESULT:      -8.5      1.954      2.779
REMARK  Name = 
REMARK  6 active torsions:
REMARK  status: ('A' for Active; 'I' for Inactive)
REMARK    1  A    between atoms: N_9  and  C_10
REMARK    2  A    between atoms: C_10  and  C_11
REMARK    3  A    between atoms: C_11  and  C_12
REMARK    4  A    between atoms: C_12  and  C_13
REMARK    5  A    between atoms: C_13  and  N_14
REMARK    6  A    between atoms: C_17  and  C_20
REMARK                            x       y       z     vdW  Elec       q    Type
REMARK                         _______ _______ _______ _____ _____    ______ ____
ROOT
ATOM      1  C   UNL     1       7.570  -4.017  22.702  0.00  0.00    +0.127 C 
ENDROOT
BRANCH   1   8
ATOM      2  F   UNL     1       4.584  -7.167  27.027  0.00  0.00    -0.205 F 
ATOM      3  C   UNL     1       5.435  -6.261  26.529  0.00  0.00    +0.138 A 
ATOM      4  C   UNL     1       6.214  -5.540  27.426  0.00  0.00    +0.039 A 
ATOM      5  C   UNL     1       7.112  -4.590  26.953  0.00  0.00    +0.005 A 
ATOM      6  C   UNL     1       7.232  -4.373  25.579  0.00  0.00    +0.027 A 
ATOM      7  C   UNL     1       6.445  -5.096  24.661  0.00  0.00    +0.061 A 
ATOM      8  N   UNL     1       6.552  -4.898  23.256  0.00  0.00    -0.293 N 
ATOM      9  C   UNL     1       5.709  -5.537  22.356  0.00  0.00    +0.330 A 
ATOM     10  O   UNL     1       5.739  -5.363  21.140  0.00  0.00    -0.246 OA
ATOM     11  N   UNL     1       4.816  -6.419  22.887  0.00  0.00    -0.274 N 
ATOM     12  H   UNL     1       4.245  -6.921  22.224  0.00  0.00    +0.173 HD
ATOM     13  C   UNL     1       4.698  -6.779  24.202  0.00  0.00    +0.264 A 
ATOM     14  O   UNL     1       3.934  -7.676  24.541  0.00  0.00    -0.267 OA
ATOM     15  C   UNL     1       5.538  -6.037  25.154  0.00  0.00    +0.098 A 
ENDBRANCH   1   8
BRANCH   1  16
ATOM     16  C   UNL     1       7.039  -2.609  22.411  0.00  0.00    +0.023 C 
BRANCH  16  17
ATOM     17  C   UNL     1       7.674  -1.561  23.330  0.00  0.00    +0.017 C 
BRANCH  17  18
ATOM     18  C   UNL     1       9.169  -1.826  23.528  0.00  0.00    +0.085 C 
BRANCH  18  19
ATOM     19  N   UNL     1      10.042  -0.708  23.247  0.00  0.00    -0.298 NA
ATOM     20  C   UNL     1       9.831  -0.047  21.974  0.00  0.00    +0.112 C 
ATOM     21  C   UNL     1       9.422   1.388  22.034  0.00  0.00    -0.008 C 
ATOM     22  C   UNL     1       9.373   2.126  23.157  0.00  0.00    -0.042 C 
ATOM     23  C   UNL     1       9.793   1.523  24.474  0.00  0.00    +0.051 C 
ATOM     24  C   UNL     1      10.418   0.121  24.381  0.00  0.00    +0.089 C 
BRANCH  22  25
ATOM     25  C   UNL     1       8.934   3.544  23.125  0.00  0.00    -0.022 A 
ATOM     26  C   UNL     1       7.765   3.934  22.455  0.00  0.00    +0.008 A 
ATOM     27  C   UNL     1       7.359   5.273  22.426  0.00  0.00    +0.001 A 
ATOM     28  C   UNL     1       8.115   6.247  23.068  0.00  0.00    +0.000 A 
ATOM     29  C   UNL     1       9.284   5.887  23.729  0.00  0.00    +0.001 A 
ATOM     30  C   UNL     1       9.693   4.550  23.750  0.00  0.00    +0.008 A 
ENDBRANCH  22  25
ENDBRANCH  18  19
ENDBRANCH  17  18
ENDBRANCH  16  17
ENDBRANCH   1  16
TORSDOF 6
ENDMDL
MODEL 3
REMARK VINA RESULT:      -8.5      3.062      6.267
REMARK  Name = 
REMARK  6 active torsions:
REMARK  status: ('A' for Active; 'I' for Inactive)
REMARK    1  A    between atoms: N_9  and  C_10
REMARK    2  A    between atoms: C_10  and  C_11
REMARK    3  A    between atoms: C_11  and  C_12
REMARK    4  A    between atoms: C_12  and  C_13
REMARK    5  A    between atoms: C_13  and  N_14
REMARK    6  A    between atoms: C_17  and  C_20
REMARK                            x       y       z     vdW  Elec       q    Type
REMARK                         _______ _______ _______ _____ _____    ______ ____
ROOT
ATOM      1  C   UNL     1       8.652  -0.645  26.839  0.00  0.00    +0.127 C 
ENDROOT
BRANCH   1   8
ATOM      2  F   UNL     1       4.698  -5.098  25.392  0.00  0.00    -0.205 F 
ATOM      3  C   UNL     1       5.859  -4.562  25.789  0.00  0.00    +0.138 A 
ATOM      4  C   UNL     1       6.927  -5.423  26.015  0.00  0.00    +0.039 A 
ATOM      5  C   UNL     1       8.152  -4.910  26.426  0.00  0.00    +0.005 A 
ATOM      6  C   UNL     1       8.304  -3.533  26.601  0.00  0.00    +0.027 A 
ATOM      7  C   UNL     1       7.228  -2.653  26.378  0.00  0.00    +0.061 A 
ATOM      8  N   UNL     1       7.359  -1.245  26.543  0.00  0.00    -0.293 N 
ATOM      9  C   UNL     1       6.275  -0.386  26.420  0.00  0.00    +0.330 A 
ATOM     10  O   UNL     1       6.335   0.829  26.595  0.00  0.00    -0.246 OA
ATOM     11  N   UNL     1       5.090  -0.957  26.064  0.00  0.00    -0.274 N 
ATOM     12  H   UNL     1       4.319  -0.320  25.922  0.00  0.00    +0.173 HD
ATOM     13  C   UNL     1       4.867  -2.273  25.765  0.00  0.00    +0.264 A 
ATOM     14  O   UNL     1       3.779  -2.645  25.340  0.00  0.00    -0.267 OA
ATOM     15  C   UNL     1       6.000  -3.186  25.978  0.00  0.00    +0.098 A 
ENDBRANCH   1   8
BRANCH   1  16
ATOM     16  C   UNL     1       9.502  -0.421  25.584  0.00  0.00    +0.023 C 
BRANCH  16  17
ATOM     17  C   UNL     1       9.353   1.004  25.043  0.00  0.00    +0.017 C 
BRANCH  17  18
ATOM     18  C   UNL     1      10.007   1.148  23.666  0.00  0.00    +0.085 C 
BRANCH  18  19
ATOM     19  N   UNL     1       9.234   0.638  22.554  0.00  0.00    -0.298 NA
ATOM     20  C   UNL     1       9.818  -0.480  21.840  0.00  0.00    +0.112 C 
ATOM     21  C   UNL     1       9.041  -1.755  21.858  0.00  0.00    -0.008 C 
ATOM     22  C   UNL     1       7.802  -1.892  22.362  0.00  0.00    -0.042 C 
ATOM     23  C   UNL     1       7.081  -0.692  22.923  0.00  0.00    +0.051 C 
ATOM     24  C   UNL     1       7.789   0.656  22.709  0.00  0.00    +0.089 C 
BRANCH  22  25
ATOM     25  C   UNL     1       7.111  -3.206  22.355  0.00  0.00    -0.022 A 
ATOM     26  C   UNL     1       5.715  -3.299  22.246  0.00  0.00    +0.008 A 
ATOM     27  C   UNL     1       5.070  -4.540  22.243  0.00  0.00    +0.001 A 
ATOM     28  C   UNL     1       5.810  -5.713  22.348  0.00  0.00    +0.000 A 
ATOM     29  C   UNL     1       7.193  -5.646  22.469  0.00  0.00    +0.001 A 
ATOM     30  C   UNL     1       7.836  -4.404  22.480  0.00  0.00    +0.008 A 
ENDBRANCH  22  25
ENDBRANCH  18  19
ENDBRANCH  17  18
ENDBRANCH  16  17
ENDBRANCH   1  16
TORSDOF 6
ENDMDL
MODEL 4
REMARK VINA RESULT:      -8.4      1.237      1.458
REMARK  Name = 
REMARK  6 active torsions:
REMARK  status: ('A' for Active; 'I' for Inactive)
REMARK    1  A    between atoms: N_9  and  C_10
REMARK    2  A    between atoms: C_10  and  C_11
REMARK    3  A    between atoms: C_11  and  C_12
REMARK    4  A    between atoms: C_12  and  C_13
REMARK    5  A    between atoms: C_13  and  N_14
REMARK    6  A    between atoms: C_17  and  C_20
REMARK                            x       y       z     vdW  Elec       q    Type
REMARK                         _______ _______ _______ _____ _____    ______ ____
ROOT
ATOM      1  C   UNL     1       7.917  -3.379  24.625  0.00  0.00    +0.127 C 
ENDROOT
BRANCH   1   8
ATOM      2  F   UNL     1       3.487  -7.475  25.699  0.00  0.00    -0.205 F 
ATOM      3  C   UNL     1       4.189  -6.574  25.001  0.00  0.00    +0.138 A 
ATOM      4  C   UNL     1       3.725  -6.228  23.736  0.00  0.00    +0.039 A 
ATOM      5  C   UNL     1       4.421  -5.296  22.976  0.00  0.00    +0.005 A 
ATOM      6  C   UNL     1       5.577  -4.705  23.491  0.00  0.00    +0.027 A 
ATOM      7  C   UNL     1       6.057  -5.050  24.770  0.00  0.00    +0.061 A 
ATOM      8  N   UNL     1       7.229  -4.458  25.320  0.00  0.00    -0.293 N 
ATOM      9  C   UNL     1       7.758  -4.867  26.536  0.00  0.00    +0.330 A 
ATOM     10  O   UNL     1       8.790  -4.414  27.027  0.00  0.00    -0.246 OA
ATOM     11  N   UNL     1       7.056  -5.822  27.209  0.00  0.00    -0.274 N 
ATOM     12  H   UNL     1       7.416  -6.075  28.117  0.00  0.00    +0.173 HD
ATOM     13  C   UNL     1       5.862  -6.378  26.841  0.00  0.00    +0.264 A 
ATOM     14  O   UNL     1       5.267  -7.142  27.593  0.00  0.00    -0.267 OA
ATOM     15  C   UNL     1       5.353  -5.999  25.515  0.00  0.00    +0.098 A 
ENDBRANCH   1   8
BRANCH   1  16
ATOM     16  C   UNL     1       7.279  -2.010  24.878  0.00  0.00    +0.023 C 
BRANCH  16  17
ATOM     17  C   UNL     1       7.529  -1.042  23.717  0.00  0.00    +0.017 C 
BRANCH  17  18
ATOM     18  C   UNL     1       8.464  -1.657  22.671  0.00  0.00    +0.085 C 
BRANCH  18  19
ATOM     19  N   UNL     1       9.612  -0.853  22.315  0.00  0.00    -0.298 NA
ATOM     20  C   UNL     1       9.370   0.203  21.353  0.00  0.00    +0.112 C 
ATOM     21  C   UNL     1       9.612   1.598  21.827  0.00  0.00    -0.008 C 
ATOM     22  C   UNL     1      10.159   1.922  23.012  0.00  0.00    -0.042 C 
ATOM     23  C   UNL     1      10.620   0.836  23.951  0.00  0.00    +0.051 C 
ATOM     24  C   UNL     1      10.571  -0.589  23.376  0.00  0.00    +0.089 C 
BRANCH  22  25
ATOM     25  C   UNL     1      10.345   3.341  23.410  0.00  0.00    -0.022 A 
ATOM     26  C   UNL     1      11.586   3.981  23.277  0.00  0.00    +0.008 A 
ATOM     27  C   UNL     1      11.756   5.317  23.656  0.00  0.00    +0.001 A 
ATOM     28  C   UNL     1      10.686   6.038  24.175  0.00  0.00    +0.000 A 
ATOM     29  C   UNL     1       9.449   5.421  24.327  0.00  0.00    +0.001 A 
ATOM     30  C   UNL     1       9.283   4.084  23.955  0.00  0.00    +0.008 A 
ENDBRANCH  22  25
ENDBRANCH  18  19
ENDBRANCH  17  18
ENDBRANCH  16  17
ENDBRANCH   1  16
TORSDOF 6
ENDMDL
MODEL 5
REMARK VINA RESULT:      -8.3      1.673      2.086
REMARK  Name = 
REMARK  6 active torsions:
REMARK  status: ('A' for Active; 'I' for Inactive)
REMARK    1  A    between atoms: N_9  and  C_10
REMARK    2  A    between atoms: C_10  and  C_11
REMARK    3  A    between atoms: C_11  and  C_12
REMARK    4  A    between atoms: C_12  and  C_13
REMARK    5  A    between atoms: C_13  and  N_14
REMARK    6  A    between atoms: C_17  and  C_20
REMARK                            x       y       z     vdW  Elec       q    Type
REMARK                         _______ _______ _______ _____ _____    ______ ____
ROOT
ATOM      1  C   UNL     1       8.426  -3.375  23.567  0.00  0.00    +0.127 C 
ENDROOT
BRANCH   1   8
ATOM      2  F   UNL     1       4.667  -5.401  27.962  0.00  0.00    -0.205 F 
ATOM      3  C   UNL     1       5.015  -4.785  26.825  0.00  0.00    +0.138 A 
ATOM      4  C   UNL     1       4.019  -4.123  26.116  0.00  0.00    +0.039 A 
ATOM      5  C   UNL     1       4.334  -3.468  24.931  0.00  0.00    +0.005 A 
ATOM      6  C   UNL     1       5.651  -3.472  24.465  0.00  0.00    +0.027 A 
ATOM      7  C   UNL     1       6.666  -4.142  25.175  0.00  0.00    +0.061 A 
ATOM      8  N   UNL     1       8.017  -4.156  24.725  0.00  0.00    -0.293 N 
ATOM      9  C   UNL     1       8.999  -4.897  25.368  0.00  0.00    +0.330 A 
ATOM     10  O   UNL     1      10.166  -4.971  24.990  0.00  0.00    -0.246 OA
ATOM     11  N   UNL     1       8.615  -5.558  26.496  0.00  0.00    -0.274 N 
ATOM     12  H   UNL     1       9.345  -6.049  26.989  0.00  0.00    +0.173 HD
ATOM     13  C   UNL     1       7.382  -5.526  27.089  0.00  0.00    +0.264 A 
ATOM     14  O   UNL     1       7.192  -6.069  28.172  0.00  0.00    -0.267 OA
ATOM     15  C   UNL     1       6.330  -4.807  26.356  0.00  0.00    +0.098 A 
ENDBRANCH   1   8
BRANCH   1  16
ATOM     16  C   UNL     1       8.885  -1.961  23.939  0.00  0.00    +0.023 C 
BRANCH  16  17
ATOM     17  C   UNL     1       8.446  -0.927  22.897  0.00  0.00    +0.017 C 
BRANCH  17  18
ATOM     18  C   UNL     1       7.000  -0.481  23.132  0.00  0.00    +0.085 C 
BRANCH  18  19
ATOM     19  N   UNL     1       6.832   0.903  23.521  0.00  0.00    -0.298 NA
ATOM     20  C   UNL     1       7.407   1.274  24.798  0.00  0.00    +0.112 C 
ATOM     21  C   UNL     1       8.486   2.305  24.764  0.00  0.00    -0.008 C 
ATOM     22  C   UNL     1       8.855   2.994  23.669  0.00  0.00    -0.042 C 
ATOM     23  C   UNL     1       8.128   2.782  22.366  0.00  0.00    +0.051 C 
ATOM     24  C   UNL     1       6.881   1.886  22.450  0.00  0.00    +0.089 C 
BRANCH  22  25
ATOM     25  C   UNL     1       9.955   3.989  23.723  0.00  0.00    -0.022 A 
ATOM     26  C   UNL     1      11.246   3.679  23.268  0.00  0.00    +0.008 A 
ATOM     27  C   UNL     1      12.280   4.620  23.325  0.00  0.00    +0.001 A 
ATOM     28  C   UNL     1      12.041   5.891  23.837  0.00  0.00    +0.000 A 
ATOM     29  C   UNL     1      10.773   6.218  24.305  0.00  0.00    +0.001 A 
ATOM     30  C   UNL     1       9.743   5.273  24.256  0.00  0.00    +0.008 A 
ENDBRANCH  22  25
ENDBRANCH  18  19
ENDBRANCH  17  18
ENDBRANCH  16  17
ENDBRANCH   1  16
TORSDOF 6
ENDMDL
MODEL 6
REMARK VINA RESULT:      -8.2      3.086      4.968
REMARK  Name = 
REMARK  6 active torsions:
REMARK  status: ('A' for Active; 'I' for Inactive)
REMARK    1  A    between atoms: N_9  and  C_10
REMARK    2  A    between atoms: C_10  and  C_11
REMARK    3  A    between atoms: C_11  and  C_12
REMARK    4  A    between atoms: C_12  and  C_13
REMARK    5  A    between atoms: C_13  and  N_14
REMARK    6  A    between atoms: C_17  and  C_20
REMARK                            x       y       z     vdW  Elec       q    Type
REMARK                         _______ _______ _______ _____ _____    ______ ____
ROOT
ATOM      1  C   UNL     1       5.281  -5.653  26.129  0.00  0.00    +0.127 C 
ENDROOT
BRANCH   1   8
ATOM      2  F   UNL     1       8.900  -2.591  22.245  0.00  0.00    -0.205 F 
ATOM      3  C   UNL     1       7.754  -3.072  22.742  0.00  0.00    +0.138 A 
ATOM      4  C   UNL     1       6.588  -2.846  22.019  0.00  0.00    +0.039 A 
ATOM      5  C   UNL     1       5.375  -3.329  22.495  0.00  0.00    +0.005 A 
ATOM      6  C   UNL     1       5.336  -4.045  23.693  0.00  0.00    +0.027 A 
ATOM      7  C   UNL     1       6.511  -4.277  24.435  0.00  0.00    +0.061 A 
ATOM      8  N   UNL     1       6.499  -5.010  25.655  0.00  0.00    -0.293 N 
ATOM      9  C   UNL     1       7.637  -5.155  26.438  0.00  0.00    +0.330 A 
ATOM     10  O   UNL     1       7.662  -5.742  27.517  0.00  0.00    -0.246 OA
ATOM     11  N   UNL     1       8.785  -4.615  25.939  0.00  0.00    -0.274 N 
ATOM     12  H   UNL     1       9.618  -4.772  26.485  0.00  0.00    +0.173 HD
ATOM     13  C   UNL     1       8.945  -3.994  24.731  0.00  0.00    +0.264 A 
ATOM     14  O   UNL     1      10.057  -3.656  24.341  0.00  0.00    -0.267 OA
ATOM     15  C   UNL     1       7.719  -3.774  23.949  0.00  0.00    +0.098 A 
ENDBRANCH   1   8
BRANCH   1  16
ATOM     16  C   UNL     1       4.208  -4.646  26.556  0.00  0.00    +0.023 C 
BRANCH  16  17
ATOM     17  C   UNL     1       4.803  -3.488  27.362  0.00  0.00    +0.017 C 
BRANCH  17  18
ATOM     18  C   UNL     1       4.271  -2.138  26.872  0.00  0.00    +0.085 C 
BRANCH  18  19
ATOM     19  N   UNL     1       5.201  -1.033  26.963  0.00  0.00    -0.298 NA
ATOM     20  C   UNL     1       6.600  -1.393  27.075  0.00  0.00    +0.112 C 
ATOM     21  C   UNL     1       7.491  -0.936  25.967  0.00  0.00    -0.008 C 
ATOM     22  C   UNL     1       7.116  -0.117  24.969  0.00  0.00    -0.042 C 
ATOM     23  C   UNL     1       5.718   0.447  24.942  0.00  0.00    +0.051 C 
ATOM     24  C   UNL     1       4.871   0.155  26.192  0.00  0.00    +0.089 C 
BRANCH  22  25
ATOM     25  C   UNL     1       8.067   0.270  23.895  0.00  0.00    -0.022 A 
ATOM     26  C   UNL     1       7.617   0.778  22.667  0.00  0.00    +0.008 A 
ATOM     27  C   UNL     1       8.517   1.137  21.659  0.00  0.00    +0.001 A 
ATOM     28  C   UNL     1       9.886   0.996  21.861  0.00  0.00    +0.000 A 
ATOM     29  C   UNL     1      10.355   0.484  23.065  0.00  0.00    +0.001 A 
ATOM     30  C   UNL     1       9.454   0.117  24.069  0.00  0.00    +0.008 A 
ENDBRANCH  22  25
ENDBRANCH  18  19
ENDBRANCH  17  18
ENDBRANCH  16  17
ENDBRANCH   1  16
TORSDOF 6
ENDMDL
MODEL 7
REMARK VINA RESULT:      -8.1      4.213      7.274
REMARK  Name = 
REMARK  6 active torsions:
REMARK  status: ('A' for Active; 'I' for Inactive)
REMARK    1  A    between atoms: N_9  and  C_10
REMARK    2  A    between atoms: C_10  and  C_11
REMARK    3  A    between atoms: C_11  and  C_12
REMARK    4  A    between atoms: C_12  and  C_13
REMARK    5  A    between atoms: C_13  and  N_14
REMARK    6  A    between atoms: C_17  and  C_20
REMARK                            x       y       z     vdW  Elec       q    Type
REMARK                         _______ _______ _______ _____ _____    ______ ____
ROOT
ATOM      1  C   UNL     1       8.309  -2.522  26.242  0.00  0.00    +0.127 C 
ENDROOT
BRANCH   1   8
ATOM      2  F   UNL     1       3.841  -5.732  28.941  0.00  0.00    -0.205 F 
ATOM      3  C   UNL     1       4.417  -4.676  28.352  0.00  0.00    +0.138 A 
ATOM      4  C   UNL     1       3.676  -3.503  28.254  0.00  0.00    +0.039 A 
ATOM      5  C   UNL     1       4.235  -2.382  27.652  0.00  0.00    +0.005 A 
ATOM      6  C   UNL     1       5.539  -2.438  27.157  0.00  0.00    +0.027 A 
ATOM      7  C   UNL     1       6.297  -3.622  27.248  0.00  0.00    +0.061 A 
ATOM      8  N   UNL     1       7.631  -3.702  26.757  0.00  0.00    -0.293 N 
ATOM      9  C   UNL     1       8.343  -4.894  26.756  0.00  0.00    +0.330 A 
ATOM     10  O   UNL     1       9.479  -5.018  26.304  0.00  0.00    -0.246 OA
ATOM     11  N   UNL     1       7.721  -5.970  27.315  0.00  0.00    -0.274 N 
ATOM     12  H   UNL     1       8.265  -6.818  27.361  0.00  0.00    +0.173 HD
ATOM     13  C   UNL     1       6.495  -5.988  27.922  0.00  0.00    +0.264 A 
ATOM     14  O   UNL     1       6.093  -6.994  28.496  0.00  0.00    -0.267 OA
ATOM     15  C   UNL     1       5.716  -4.743  27.844  0.00  0.00    +0.098 A 
ENDBRANCH   1   8
BRANCH   1  16
ATOM     16  C   UNL     1       7.879  -2.167  24.815  0.00  0.00    +0.023 C 
BRANCH  16  17
ATOM     17  C   UNL     1       8.777  -2.832  23.768  0.00  0.00    +0.017 C 
BRANCH  17  18
ATOM     18  C   UNL     1       8.234  -2.618  22.352  0.00  0.00    +0.085 C 
BRANCH  18  19
ATOM     19  N   UNL     1       7.217  -3.554  21.928  0.00  0.00    -0.298 NA
ATOM     20  C   UNL     1       7.408  -4.927  22.349  0.00  0.00    +0.112 C 
ATOM     21  C   UNL     1       6.353  -5.499  23.238  0.00  0.00    -0.008 C 
ATOM     22  C   UNL     1       5.199  -4.886  23.553  0.00  0.00    -0.042 C 
ATOM     23  C   UNL     1       4.875  -3.539  22.956  0.00  0.00    +0.051 C 
ATOM     24  C   UNL     1       5.854  -3.050  21.876  0.00  0.00    +0.089 C 
BRANCH  22  25
ATOM     25  C   UNL     1       4.214  -5.523  24.463  0.00  0.00    -0.022 A 
ATOM     26  C   UNL     1       3.008  -4.888  24.798  0.00  0.00    +0.008 A 
ATOM     27  C   UNL     1       2.086  -5.492  25.659  0.00  0.00    +0.001 A 
ATOM     28  C   UNL     1       2.352  -6.745  26.200  0.00  0.00    +0.000 A 
ATOM     29  C   UNL     1       3.545  -7.389  25.893  0.00  0.00    +0.001 A 
ATOM     30  C   UNL     1       4.470  -6.780  25.039  0.00  0.00    +0.008 A 
ENDBRANCH  22  25
ENDBRANCH  18  19
ENDBRANCH  17  18
ENDBRANCH  16  17
ENDBRANCH   1  16
TORSDOF 6
ENDMDL
MODEL 8
REMARK VINA RESULT:      -8.1      3.325      5.714
REMARK  Name = 
REMARK  6 active torsions:
REMARK  status: ('A' for Active; 'I' for Inactive)
REMARK    1  A    between atoms: N_9  and  C_10
REMARK    2  A    between atoms: C_10  and  C_11
REMARK    3  A    between atoms: C_11  and  C_12
REMARK    4  A    between atoms: C_12  and  C_13
REMARK    5  A    between atoms: C_13  and  N_14
REMARK    6  A    between atoms: C_17  and  C_20
REMARK                            x       y       z     vdW  Elec       q    Type
REMARK                         _______ _______ _______ _____ _____    ______ ____
ROOT
ATOM      1  C   UNL     1       3.843  -5.312  27.458  0.00  0.00    +0.127 C 
ENDROOT
BRANCH   1   8
ATOM      2  F   UNL     1       8.869  -2.078  26.103  0.00  0.00    -0.205 F 
ATOM      3  C   UNL     1       7.569  -2.292  26.343  0.00  0.00    +0.138 A 
ATOM      4  C   UNL     1       6.697  -1.218  26.200  0.00  0.00    +0.039 A 
ATOM      5  C   UNL     1       5.339  -1.396  26.437  0.00  0.00    +0.005 A 
ATOM      6  C   UNL     1       4.858  -2.653  26.808  0.00  0.00    +0.027 A 
ATOM      7  C   UNL     1       5.733  -3.746  26.959  0.00  0.00    +0.061 A 
ATOM      8  N   UNL     1       5.267  -5.039  27.331  0.00  0.00    -0.293 N 
ATOM      9  C   UNL     1       6.138  -6.092  27.576  0.00  0.00    +0.330 A 
ATOM     10  O   UNL     1       5.782  -7.211  27.940  0.00  0.00    -0.246 OA
ATOM     11  N   UNL     1       7.462  -5.841  27.375  0.00  0.00    -0.274 N 
ATOM     12  H   UNL     1       8.084  -6.625  27.501  0.00  0.00    +0.173 HD
ATOM     13  C   UNL     1       8.017  -4.681  26.908  0.00  0.00    +0.264 A 
ATOM     14  O   UNL     1       9.215  -4.616  26.654  0.00  0.00    -0.267 OA
ATOM     15  C   UNL     1       7.097  -3.548  26.730  0.00  0.00    +0.098 A 
ENDBRANCH   1   8
BRANCH   1  16
ATOM     16  C   UNL     1       3.330  -6.288  26.394  0.00  0.00    +0.023 C 
BRANCH  16  17
ATOM     17  C   UNL     1       3.375  -5.676  24.991  0.00  0.00    +0.017 C 
BRANCH  17  18
ATOM     18  C   UNL     1       4.536  -6.246  24.172  0.00  0.00    +0.085 C 
BRANCH  18  19
ATOM     19  N   UNL     1       4.919  -5.470  23.012  0.00  0.00    -0.298 NA
ATOM     20  C   UNL     1       4.493  -4.085  23.010  0.00  0.00    +0.112 C 
ATOM     21  C   UNL     1       5.578  -3.059  22.992  0.00  0.00    -0.008 C 
ATOM     22  C   UNL     1       6.886  -3.329  22.842  0.00  0.00    -0.042 C 
ATOM     23  C   UNL     1       7.343  -4.750  22.627  0.00  0.00    +0.051 C 
ATOM     24  C   UNL     1       6.215  -5.776  22.428  0.00  0.00    +0.089 C 
BRANCH  22  25
ATOM     25  C   UNL     1       7.900  -2.244  22.856  0.00  0.00    -0.022 A 
ATOM     26  C   UNL     1       7.528  -0.893  22.781  0.00  0.00    +0.008 A 
ATOM     27  C   UNL     1       8.488   0.124  22.791  0.00  0.00    +0.001 A 
ATOM     28  C   UNL     1       9.840  -0.191  22.880  0.00  0.00    +0.000 A 
ATOM     29  C   UNL     1      10.234  -1.523  22.944  0.00  0.00    +0.001 A 
ATOM     30  C   UNL     1       9.273  -2.539  22.924  0.00  0.00    +0.008 A 
ENDBRANCH  22  25
ENDBRANCH  18  19
ENDBRANCH  17  18
ENDBRANCH  16  17
ENDBRANCH   1  16
TORSDOF 6
ENDMDL
MODEL 9
REMARK VINA RESULT:      -7.9      3.255      6.991
REMARK  Name = 
REMARK  6 active torsions:
REMARK  status: ('A' for Active; 'I' for Inactive)
REMARK    1  A    between atoms: N_9  and  C_10
REMARK    2  A    between atoms: C_10  and  C_11
REMARK    3  A    between atoms: C_11  and  C_12
REMARK    4  A    between atoms: C_12  and  C_13
REMARK    5  A    between atoms: C_13  and  N_14
REMARK    6  A    between atoms: C_17  and  C_20
REMARK                            x       y       z     vdW  Elec       q    Type
REMARK                         _______ _______ _______ _____ _____    ______ ____
ROOT
ATOM      1  C   UNL     1       7.612   0.387  22.732  0.00  0.00    +0.127 C 
ENDROOT
BRANCH   1   8
ATOM      2  F   UNL     1       7.951  -5.632  23.838  0.00  0.00    -0.205 F 
ATOM      3  C   UNL     1       7.426  -4.492  23.369  0.00  0.00    +0.138 A 
ATOM      4  C   UNL     1       6.172  -4.554  22.770  0.00  0.00    +0.039 A 
ATOM      5  C   UNL     1       5.588  -3.395  22.271  0.00  0.00    +0.005 A 
ATOM      6  C   UNL     1       6.260  -2.176  22.382  0.00  0.00    +0.027 A 
ATOM      7  C   UNL     1       7.532  -2.104  22.983  0.00  0.00    +0.061 A 
ATOM      8  N   UNL     1       8.235  -0.873  23.113  0.00  0.00    -0.293 N 
ATOM      9  C   UNL     1       9.528  -0.814  23.615  0.00  0.00    +0.330 A 
ATOM     10  O   UNL     1      10.186   0.220  23.706  0.00  0.00    -0.246 OA
ATOM     11  N   UNL     1      10.064  -1.992  24.042  0.00  0.00    -0.274 N 
ATOM     12  H   UNL     1      10.982  -1.934  24.457  0.00  0.00    +0.173 HD
ATOM     13  C   UNL     1       9.447  -3.212  24.077  0.00  0.00    +0.264 A 
ATOM     14  O   UNL     1       9.995  -4.178  24.596  0.00  0.00    -0.267 OA
ATOM     15  C   UNL     1       8.110  -3.279  23.467  0.00  0.00    +0.098 A 
ENDBRANCH   1   8
BRANCH   1  16
ATOM     16  C   UNL     1       6.619   0.898  23.781  0.00  0.00    +0.023 C 
BRANCH  16  17
ATOM     17  C   UNL     1       7.311   1.741  24.856  0.00  0.00    +0.017 C 
BRANCH  17  18
ATOM     18  C   UNL     1       6.387   1.985  26.052  0.00  0.00    +0.085 C 
BRANCH  18  19
ATOM     19  N   UNL     1       6.453   0.993  27.102  0.00  0.00    -0.298 NA
ATOM     20  C   UNL     1       5.195   0.369  27.461  0.00  0.00    +0.112 C 
ATOM     21  C   UNL     1       5.102  -1.106  27.245  0.00  0.00    -0.008 C 
ATOM     22  C   UNL     1       6.129  -1.894  26.879  0.00  0.00    -0.042 C 
ATOM     23  C   UNL     1       7.505  -1.305  26.704  0.00  0.00    +0.051 C 
ATOM     24  C   UNL     1       7.648   0.165  27.136  0.00  0.00    +0.089 C 
BRANCH  22  25
ATOM     25  C   UNL     1       5.940  -3.351  26.668  0.00  0.00    -0.022 A 
ATOM     26  C   UNL     1       6.931  -4.278  27.025  0.00  0.00    +0.008 A 
ATOM     27  C   UNL     1       6.748  -5.650  26.820  0.00  0.00    +0.001 A 
ATOM     28  C   UNL     1       5.568  -6.121  26.255  0.00  0.00    +0.000 A 
ATOM     29  C   UNL     1       4.576  -5.221  25.881  0.00  0.00    +0.001 A 
ATOM     30  C   UNL     1       4.764  -3.850  26.079  0.00  0.00    +0.008 A 
ENDBRANCH  22  25
ENDBRANCH  18  19
ENDBRANCH  17  18
ENDBRANCH  16  17
ENDBRANCH   1  16
TORSDOF 6
ENDMDL
