MODEL 1
REMARK VINA RESULT:      -6.6      0.000      0.000
REMARK  Name = 
REMARK  4 active torsions:
REMARK  status: ('A' for Active; 'I' for Inactive)
REMARK    1  A    between atoms: C_4  and  C_8
REMARK    2  A    between atoms: C_9  and  C_17
REMARK    3  A    between atoms: N_12  and  C_13
REMARK    4  A    between atoms: C_13  and  C_14
REMARK                            x       y       z     vdW  Elec       q    Type
REMARK                         _______ _______ _______ _____ _____    ______ ____
ROOT
ATOM      1  C   UNL     1       8.183  -2.674  25.519  0.00  0.00    +0.095 A 
ATOM      2  N   UNL     1       8.239  -4.048  25.793  0.00  0.00    -0.328 N 
ATOM      3  C   UNL     1       9.309  -4.569  25.128  0.00  0.00    +0.200 A 
ATOM      4  N   UNL     1       9.904  -3.669  24.387  0.00  0.00    -0.235 NA
ATOM      5  C   UNL     1       9.187  -2.505  24.560  0.00  0.00    +0.098 A 
ENDROOT
BRANCH   1  13
ATOM      6  N   UNL     1       7.650   0.977  28.401  0.00  0.00    -0.327 N 
ATOM      7  H   UNL     1       7.087   1.816  28.391  0.00  0.00    +0.145 HD
ATOM      8  H   UNL     1       8.611   1.075  28.107  0.00  0.00    +0.145 HD
ATOM      9  C   UNL     1       7.029   0.013  27.632  0.00  0.00    +0.213 A 
ATOM     10  N   UNL     1       5.716   0.115  27.445  0.00  0.00    -0.223 NA
ATOM     11  C   UNL     1       5.170  -0.762  26.586  0.00  0.00    +0.116 A 
ATOM     12  C   UNL     1       5.896  -1.702  25.893  0.00  0.00    +0.050 A 
ATOM     13  C   UNL     1       7.241  -1.750  26.176  0.00  0.00    +0.094 A 
ATOM     14  N   UNL     1       7.811  -0.892  27.044  0.00  0.00    -0.213 NA
ENDBRANCH   1  13
BRANCH   5  15
ATOM     15  C   UNL     1       9.545  -1.321  23.776  0.00  0.00    +0.003 A 
ATOM     16  C   UNL     1      10.115  -0.179  24.358  0.00  0.00    +0.013 A 
ATOM     17  C   UNL     1      10.418   0.941  23.577  0.00  0.00    +0.039 A 
ATOM     18  C   UNL     1      10.112   0.942  22.218  0.00  0.00    +0.123 A 
ATOM     19  F   UNL     1      10.386   2.025  21.482  0.00  0.00    -0.205 F 
ATOM     20  C   UNL     1       9.509  -0.159  21.632  0.00  0.00    +0.039 A 
ATOM     21  C   UNL     1       9.232  -1.289  22.407  0.00  0.00    +0.013 A 
ENDBRANCH   5  15
BRANCH   2  22
ATOM     22  C   UNL     1       7.313  -4.790  26.653  0.00  0.00    +0.127 C 
BRANCH  22  23
ATOM     23  C   UNL     1       6.315  -5.691  25.980  0.00  0.00    +0.009 C 
ATOM     24  C   UNL     1       5.606  -5.267  24.715  0.00  0.00    +0.005 C 
ATOM     25  C   UNL     1       4.858  -5.283  26.016  0.00  0.00    +0.005 C 
ENDBRANCH  22  23
ENDBRANCH   2  22
TORSDOF 4
ENDMDL
MODEL 2
REMARK VINA RESULT:      -6.3      3.871      7.089
REMARK  Name = 
REMARK  4 active torsions:
REMARK  status: ('A' for Active; 'I' for Inactive)
REMARK    1  A    between atoms: C_4  and  C_8
REMARK    2  A    between atoms: C_9  and  C_17
REMARK    3  A    between atoms: N_12  and  C_13
REMARK    4  A    between atoms: C_13  and  C_14
REMARK                            x       y       z     vdW  Elec       q    Type
REMARK                         _______ _______ _______ _____ _____    ______ ____
ROOT
ATOM      1  C   UNL     1       7.547  -4.301  24.959  0.00  0.00    +0.095 A 
ATOM      2  N   UNL     1       8.856  -3.861  25.199  0.00  0.00    -0.328 N 
ATOM      3  C   UNL     1       9.236  -4.313  26.427  0.00  0.00    +0.200 A 
ATOM      4  N   UNL     1       8.262  -4.940  27.035  0.00  0.00    -0.235 NA
ATOM      5  C   UNL     1       7.186  -4.889  26.176  0.00  0.00    +0.098 A 
ENDROOT
BRANCH   1  13
ATOM      6  N   UNL     1       6.106  -6.303  20.980  0.00  0.00    -0.327 N 
ATOM      7  H   UNL     1       5.256  -6.274  20.434  0.00  0.00    +0.145 HD
ATOM      8  H   UNL     1       6.223  -7.100  21.590  0.00  0.00    +0.145 HD
ATOM      9  C   UNL     1       6.206  -5.140  21.716  0.00  0.00    +0.213 A 
ATOM     10  N   UNL     1       5.551  -4.067  21.279  0.00  0.00    -0.223 NA
ATOM     11  C   UNL     1       5.564  -2.996  22.089  0.00  0.00    +0.116 A 
ATOM     12  C   UNL     1       6.174  -2.978  23.321  0.00  0.00    +0.050 A 
ATOM     13  C   UNL     1       6.850  -4.124  23.672  0.00  0.00    +0.094 A 
ATOM     14  N   UNL     1       6.866  -5.207  22.872  0.00  0.00    -0.213 NA
ENDBRANCH   1  13
BRANCH   5  15
ATOM     15  C   UNL     1       5.895  -5.423  26.613  0.00  0.00    +0.003 A 
ATOM     16  C   UNL     1       5.225  -6.437  25.913  0.00  0.00    +0.013 A 
ATOM     17  C   UNL     1       3.980  -6.901  26.350  0.00  0.00    +0.039 A 
ATOM     18  C   UNL     1       3.377  -6.322  27.464  0.00  0.00    +0.123 A 
ATOM     19  F   UNL     1       2.177  -6.757  27.865  0.00  0.00    -0.205 F 
ATOM     20  C   UNL     1       4.002  -5.290  28.146  0.00  0.00    +0.039 A 
ATOM     21  C   UNL     1       5.259  -4.846  27.725  0.00  0.00    +0.013 A 
ENDBRANCH   5  15
BRANCH   2  22
ATOM     22  C   UNL     1       9.675  -3.062  24.282  0.00  0.00    +0.127 C 
BRANCH  22  23
ATOM     23  C   UNL     1       9.716  -1.576  24.507  0.00  0.00    +0.009 C 
ATOM     24  C   UNL     1       8.802  -0.643  23.748  0.00  0.00    +0.005 C 
ATOM     25  C   UNL     1      10.259  -0.707  23.394  0.00  0.00    +0.005 C 
ENDBRANCH  22  23
ENDBRANCH   2  22
TORSDOF 4
ENDMDL
MODEL 3
REMARK VINA RESULT:      -6.3      2.166      3.859
REMARK  Name = 
REMARK  4 active torsions:
REMARK  status: ('A' for Active; 'I' for Inactive)
REMARK    1  A    between atoms: C_4  and  C_8
REMARK    2  A    between atoms: C_9  and  C_17
REMARK    3  A    between atoms: N_12  and  C_13
REMARK    4  A    between atoms: C_13  and  C_14
REMARK                            x       y       z     vdW  Elec       q    Type
REMARK                         _______ _______ _______ _____ _____    ______ ____
ROOT
ATOM      1  C   UNL     1       7.842  -2.881  24.667  0.00  0.00    +0.095 A 
ATOM      2  N   UNL     1       7.859  -3.607  25.867  0.00  0.00    -0.328 N 
ATOM      3  C   UNL     1       8.509  -2.860  26.804  0.00  0.00    +0.200 A 
ATOM      4  N   UNL     1       8.982  -1.751  26.297  0.00  0.00    -0.235 NA
ATOM      5  C   UNL     1       8.640  -1.770  24.962  0.00  0.00    +0.098 A 
ENDROOT
BRANCH   1  13
ATOM      6  N   UNL     1       7.249  -6.187  21.407  0.00  0.00    -0.327 N 
ATOM      7  H   UNL     1       6.448  -6.627  20.974  0.00  0.00    +0.145 HD
ATOM      8  H   UNL     1       7.697  -6.700  22.153  0.00  0.00    +0.145 HD
ATOM      9  C   UNL     1       6.882  -4.938  21.863  0.00  0.00    +0.213 A 
ATOM     10  N   UNL     1       5.835  -4.348  21.291  0.00  0.00    -0.223 NA
ATOM     11  C   UNL     1       5.428  -3.195  21.849  0.00  0.00    +0.116 A 
ATOM     12  C   UNL     1       6.008  -2.642  22.965  0.00  0.00    +0.050 A 
ATOM     13  C   UNL     1       7.102  -3.309  23.467  0.00  0.00    +0.094 A 
ATOM     14  N   UNL     1       7.540  -4.458  22.918  0.00  0.00    -0.213 NA
ENDBRANCH   1  13
BRANCH   5  15
ATOM     15  C   UNL     1       9.118  -0.700  24.085  0.00  0.00    +0.003 A 
ATOM     16  C   UNL     1       9.315  -0.888  22.709  0.00  0.00    +0.013 A 
ATOM     17  C   UNL     1       9.799   0.154  21.910  0.00  0.00    +0.039 A 
ATOM     18  C   UNL     1      10.131   1.376  22.492  0.00  0.00    +0.123 A 
ATOM     19  F   UNL     1      10.612   2.361  21.725  0.00  0.00    -0.205 F 
ATOM     20  C   UNL     1       9.985   1.569  23.856  0.00  0.00    +0.039 A 
ATOM     21  C   UNL     1       9.474   0.537  24.648  0.00  0.00    +0.013 A 
ENDBRANCH   5  15
BRANCH   2  22
ATOM     22  C   UNL     1       7.270  -4.933  26.076  0.00  0.00    +0.127 C 
BRANCH  22  23
ATOM     23  C   UNL     1       5.785  -5.003  26.298  0.00  0.00    +0.009 C 
ATOM     24  C   UNL     1       5.102  -6.313  26.613  0.00  0.00    +0.005 C 
ATOM     25  C   UNL     1       4.947  -5.703  25.251  0.00  0.00    +0.005 C 
ENDBRANCH  22  23
ENDBRANCH   2  22
TORSDOF 4
ENDMDL
MODEL 4
REMARK VINA RESULT:      -6.2      2.742      4.005
REMARK  Name = 
REMARK  4 active torsions:
REMARK  status: ('A' for Active; 'I' for Inactive)
REMARK    1  A    between atoms: C_4  and  C_8
REMARK    2  A    between atoms: C_9  and  C_17
REMARK    3  A    between atoms: N_12  and  C_13
REMARK    4  A    between atoms: C_13  and  C_14
REMARK                            x       y       z     vdW  Elec       q    Type
REMARK                         _______ _______ _______ _____ _____    ______ ____
ROOT
ATOM      1  C   UNL     1       6.179  -5.080  23.944  0.00  0.00    +0.095 A 
ATOM      2  N   UNL     1       5.441  -6.033  23.228  0.00  0.00    -0.328 N 
ATOM      3  C   UNL     1       5.966  -6.119  21.973  0.00  0.00    +0.200 A 
ATOM      4  N   UNL     1       6.927  -5.251  21.789  0.00  0.00    -0.235 NA
ATOM      5  C   UNL     1       7.034  -4.551  22.971  0.00  0.00    +0.098 A 
ENDROOT
BRANCH   1  13
ATOM      6  N   UNL     1       7.139  -6.422  28.325  0.00  0.00    -0.327 N 
ATOM      7  H   UNL     1       7.404  -5.944  29.175  0.00  0.00    +0.145 HD
ATOM      8  H   UNL     1       7.886  -6.854  27.800  0.00  0.00    +0.145 HD
ATOM      9  C   UNL     1       6.454  -5.543  27.511  0.00  0.00    +0.213 A 
ATOM     10  N   UNL     1       5.855  -4.502  28.084  0.00  0.00    -0.223 NA
ATOM     11  C   UNL     1       5.312  -3.599  27.249  0.00  0.00    +0.116 A 
ATOM     12  C   UNL     1       5.380  -3.690  25.879  0.00  0.00    +0.050 A 
ATOM     13  C   UNL     1       5.993  -4.817  25.382  0.00  0.00    +0.094 A 
ATOM     14  N   UNL     1       6.532  -5.744  26.196  0.00  0.00    -0.213 NA
ENDBRANCH   1  13
BRANCH   5  15
ATOM     15  C   UNL     1       7.966  -3.426  23.054  0.00  0.00    +0.003 A 
ATOM     16  C   UNL     1       7.918  -2.342  22.165  0.00  0.00    +0.013 A 
ATOM     17  C   UNL     1       8.844  -1.299  22.262  0.00  0.00    +0.039 A 
ATOM     18  C   UNL     1       9.853  -1.355  23.221  0.00  0.00    +0.123 A 
ATOM     19  F   UNL     1      10.748  -0.364  23.295  0.00  0.00    -0.205 F 
ATOM     20  C   UNL     1       9.946  -2.437  24.082  0.00  0.00    +0.039 A 
ATOM     21  C   UNL     1       9.002  -3.465  24.003  0.00  0.00    +0.013 A 
ENDBRANCH   5  15
BRANCH   2  22
ATOM     22  C   UNL     1       4.309  -6.808  23.745  0.00  0.00    +0.127 C 
BRANCH  22  23
ATOM     23  C   UNL     1       2.927  -6.326  23.405  0.00  0.00    +0.009 C 
ATOM     24  C   UNL     1       2.498  -4.908  23.703  0.00  0.00    +0.005 C 
ATOM     25  C   UNL     1       1.979  -6.034  24.548  0.00  0.00    +0.005 C 
ENDBRANCH  22  23
ENDBRANCH   2  22
TORSDOF 4
ENDMDL
MODEL 5
REMARK VINA RESULT:      -6.2      2.763      5.573
REMARK  Name = 
REMARK  4 active torsions:
REMARK  status: ('A' for Active; 'I' for Inactive)
REMARK    1  A    between atoms: C_4  and  C_8
REMARK    2  A    between atoms: C_9  and  C_17
REMARK    3  A    between atoms: N_12  and  C_13
REMARK    4  A    between atoms: C_13  and  C_14
REMARK                            x       y       z     vdW  Elec       q    Type
REMARK                         _______ _______ _______ _____ _____    ______ ____
ROOT
ATOM      1  C   UNL     1       8.377  -1.674  24.720  0.00  0.00    +0.095 A 
ATOM      2  N   UNL     1       9.537  -1.323  24.016  0.00  0.00    -0.328 N 
ATOM      3  C   UNL     1      10.113  -2.468  23.550  0.00  0.00    +0.200 A 
ATOM      4  N   UNL     1       9.471  -3.533  23.957  0.00  0.00    -0.235 NA
ATOM      5  C   UNL     1       8.432  -3.072  24.737  0.00  0.00    +0.098 A 
ENDROOT
BRANCH   1  13
ATOM      6  N   UNL     1       7.341   1.331  28.156  0.00  0.00    -0.327 N 
ATOM      7  H   UNL     1       6.972   2.272  28.194  0.00  0.00    +0.145 HD
ATOM      8  H   UNL     1       8.342   1.235  28.250  0.00  0.00    +0.145 HD
ATOM      9  C   UNL     1       6.930   0.736  26.981  0.00  0.00    +0.213 A 
ATOM     10  N   UNL     1       5.834   1.209  26.393  0.00  0.00    -0.223 NA
ATOM     11  C   UNL     1       5.540   0.693  25.187  0.00  0.00    +0.116 A 
ATOM     12  C   UNL     1       6.319  -0.242  24.548  0.00  0.00    +0.050 A 
ATOM     13  C   UNL     1       7.415  -0.691  25.248  0.00  0.00    +0.094 A 
ATOM     14  N   UNL     1       7.723  -0.202  26.465  0.00  0.00    -0.213 NA
ENDBRANCH   1  13
BRANCH   5  15
ATOM     15  C   UNL     1       7.576  -4.036  25.430  0.00  0.00    +0.003 A 
ATOM     16  C   UNL     1       7.811  -4.433  26.755  0.00  0.00    +0.013 A 
ATOM     17  C   UNL     1       6.984  -5.377  27.373  0.00  0.00    +0.039 A 
ATOM     18  C   UNL     1       5.944  -5.963  26.654  0.00  0.00    +0.123 A 
ATOM     19  F   UNL     1       5.170  -6.881  27.245  0.00  0.00    -0.205 F 
ATOM     20  C   UNL     1       5.721  -5.618  25.331  0.00  0.00    +0.039 A 
ATOM     21  C   UNL     1       6.530  -4.653  24.724  0.00  0.00    +0.013 A 
ENDBRANCH   5  15
BRANCH   2  22
ATOM     22  C   UNL     1      10.036   0.039  23.808  0.00  0.00    +0.127 C 
BRANCH  22  23
ATOM     23  C   UNL     1      10.098   0.546  22.394  0.00  0.00    +0.009 C 
ATOM     24  C   UNL     1      10.119   2.026  22.093  0.00  0.00    +0.005 C 
ATOM     25  C   UNL     1       8.872   1.232  21.834  0.00  0.00    +0.005 C 
ENDBRANCH  22  23
ENDBRANCH   2  22
TORSDOF 4
ENDMDL
MODEL 6
REMARK VINA RESULT:      -6.1      1.529      3.707
REMARK  Name = 
REMARK  4 active torsions:
REMARK  status: ('A' for Active; 'I' for Inactive)
REMARK    1  A    between atoms: C_4  and  C_8
REMARK    2  A    between atoms: C_9  and  C_17
REMARK    3  A    between atoms: N_12  and  C_13
REMARK    4  A    between atoms: C_13  and  C_14
REMARK                            x       y       z     vdW  Elec       q    Type
REMARK                         _______ _______ _______ _____ _____    ______ ____
ROOT
ATOM      1  C   UNL     1       7.057  -2.060  25.515  0.00  0.00    +0.095 A 
ATOM      2  N   UNL     1       6.144  -2.091  26.578  0.00  0.00    -0.328 N 
ATOM      3  C   UNL     1       5.708  -0.818  26.799  0.00  0.00    +0.200 A 
ATOM      4  N   UNL     1       6.318   0.044  26.026  0.00  0.00    -0.235 NA
ATOM      5  C   UNL     1       7.205  -0.691  25.269  0.00  0.00    +0.098 A 
ENDROOT
BRANCH   1  13
ATOM      6  N   UNL     1      10.258  -5.462  25.821  0.00  0.00    -0.327 N 
ATOM      7  H   UNL     1      10.253  -6.462  25.668  0.00  0.00    +0.145 HD
ATOM      8  H   UNL     1      10.183  -5.153  26.780  0.00  0.00    +0.145 HD
ATOM      9  C   UNL     1       9.251  -4.890  25.072  0.00  0.00    +0.213 A 
ATOM     10  N   UNL     1       8.817  -5.551  24.001  0.00  0.00    -0.223 NA
ATOM     11  C   UNL     1       7.750  -5.028  23.375  0.00  0.00    +0.116 A 
ATOM     12  C   UNL     1       7.093  -3.899  23.803  0.00  0.00    +0.050 A 
ATOM     13  C   UNL     1       7.633  -3.269  24.900  0.00  0.00    +0.094 A 
ATOM     14  N   UNL     1       8.711  -3.764  25.537  0.00  0.00    -0.213 NA
ENDBRANCH   1  13
BRANCH   5  15
ATOM     15  C   UNL     1       8.121   0.006  24.364  0.00  0.00    +0.003 A 
ATOM     16  C   UNL     1       9.205   0.764  24.829  0.00  0.00    +0.013 A 
ATOM     17  C   UNL     1      10.041   1.437  23.932  0.00  0.00    +0.039 A 
ATOM     18  C   UNL     1       9.770   1.391  22.566  0.00  0.00    +0.123 A 
ATOM     19  F   UNL     1      10.562   2.053  21.715  0.00  0.00    -0.205 F 
ATOM     20  C   UNL     1       8.679   0.683  22.088  0.00  0.00    +0.039 A 
ATOM     21  C   UNL     1       7.861  -0.012  22.983  0.00  0.00    +0.013 A 
ENDBRANCH   5  15
BRANCH   2  22
ATOM     22  C   UNL     1       5.723  -3.287  27.314  0.00  0.00    +0.127 C 
BRANCH  22  23
ATOM     23  C   UNL     1       4.666  -4.151  26.685  0.00  0.00    +0.009 C 
ATOM     24  C   UNL     1       4.033  -5.293  27.445  0.00  0.00    +0.005 C 
ATOM     25  C   UNL     1       5.026  -5.584  26.358  0.00  0.00    +0.005 C 
ENDBRANCH  22  23
ENDBRANCH   2  22
TORSDOF 4
ENDMDL
MODEL 7
REMARK VINA RESULT:      -6.1      2.873      5.512
REMARK  Name = 
REMARK  4 active torsions:
REMARK  status: ('A' for Active; 'I' for Inactive)
REMARK    1  A    between atoms: C_4  and  C_8
REMARK    2  A    between atoms: C_9  and  C_17
REMARK    3  A    between atoms: N_12  and  C_13
REMARK    4  A    between atoms: C_13  and  C_14
REMARK                            x       y       z     vdW  Elec       q    Type
REMARK                         _______ _______ _______ _____ _____    ______ ____
ROOT
ATOM      1  C   UNL     1       8.714  -1.056  23.831  0.00  0.00    +0.095 A 
ATOM      2  N   UNL     1       9.962  -0.551  23.442  0.00  0.00    -0.328 N 
ATOM      3  C   UNL     1      10.523  -1.434  22.569  0.00  0.00    +0.200 A 
ATOM      4  N   UNL     1       9.784  -2.503  22.419  0.00  0.00    -0.235 NA
ATOM      5  C   UNL     1       8.691  -2.324  23.240  0.00  0.00    +0.098 A 
ENDROOT
BRANCH   1  13
ATOM      6  N   UNL     1       7.695   0.639  28.074  0.00  0.00    -0.327 N 
ATOM      7  H   UNL     1       7.325   1.513  28.423  0.00  0.00    +0.145 HD
ATOM      8  H   UNL     1       8.697   0.522  28.126  0.00  0.00    +0.145 HD
ATOM      9  C   UNL     1       7.277   0.464  26.771  0.00  0.00    +0.213 A 
ATOM     10  N   UNL     1       6.177   1.101  26.378  0.00  0.00    -0.223 NA
ATOM     11  C   UNL     1       5.876   1.012  25.072  0.00  0.00    +0.116 A 
ATOM     12  C   UNL     1       6.652   0.345  24.155  0.00  0.00    +0.050 A 
ATOM     13  C   UNL     1       7.753  -0.306  24.660  0.00  0.00    +0.094 A 
ATOM     14  N   UNL     1       8.069  -0.246  25.968  0.00  0.00    -0.213 NA
ENDBRANCH   1  13
BRANCH   5  15
ATOM     15  C   UNL     1       7.712  -3.404  23.375  0.00  0.00    +0.003 A 
ATOM     16  C   UNL     1       7.539  -4.116  24.571  0.00  0.00    +0.013 A 
ATOM     17  C   UNL     1       6.611  -5.159  24.651  0.00  0.00    +0.039 A 
ATOM     18  C   UNL     1       5.883  -5.527  23.521  0.00  0.00    +0.123 A 
ATOM     19  F   UNL     1       5.012  -6.540  23.599  0.00  0.00    -0.205 F 
ATOM     20  C   UNL     1       6.070  -4.866  22.318  0.00  0.00    +0.039 A 
ATOM     21  C   UNL     1       6.977  -3.804  22.247  0.00  0.00    +0.013 A 
ENDBRANCH   5  15
BRANCH   2  22
ATOM     22  C   UNL     1      10.554   0.714  23.889  0.00  0.00    +0.127 C 
BRANCH  22  23
ATOM     23  C   UNL     1      10.151   1.963  23.157  0.00  0.00    +0.009 C 
ATOM     24  C   UNL     1      10.841   3.282  23.421  0.00  0.00    +0.005 C 
ATOM     25  C   UNL     1       9.454   3.051  23.945  0.00  0.00    +0.005 C 
ENDBRANCH  22  23
ENDBRANCH   2  22
TORSDOF 4
ENDMDL
MODEL 8
REMARK VINA RESULT:      -6.1      3.122      5.782
REMARK  Name = 
REMARK  4 active torsions:
REMARK  status: ('A' for Active; 'I' for Inactive)
REMARK    1  A    between atoms: C_4  and  C_8
REMARK    2  A    between atoms: C_9  and  C_17
REMARK    3  A    between atoms: N_12  and  C_13
REMARK    4  A    between atoms: C_13  and  C_14
REMARK                            x       y       z     vdW  Elec       q    Type
REMARK                         _______ _______ _______ _____ _____    ______ ____
ROOT
ATOM      1  C   UNL     1       8.577  -1.040  23.753  0.00  0.00    +0.095 A 
ATOM      2  N   UNL     1       9.848  -0.515  23.481  0.00  0.00    -0.328 N 
ATOM      3  C   UNL     1      10.496  -1.381  22.653  0.00  0.00    +0.200 A 
ATOM      4  N   UNL     1       9.787  -2.458  22.428  0.00  0.00    -0.235 NA
ATOM      5  C   UNL     1       8.624  -2.301  23.150  0.00  0.00    +0.098 A 
ENDROOT
BRANCH   1  13
ATOM      6  N   UNL     1       5.070   2.056  23.575  0.00  0.00    -0.327 N 
ATOM      7  H   UNL     1       4.143   2.107  23.973  0.00  0.00    +0.145 HD
ATOM      8  H   UNL     1       5.133   1.748  22.615  0.00  0.00    +0.145 HD
ATOM      9  C   UNL     1       5.856   1.248  24.370  0.00  0.00    +0.213 A 
ATOM     10  N   UNL     1       5.504   1.095  25.644  0.00  0.00    -0.223 NA
ATOM     11  C   UNL     1       6.213   0.199  26.351  0.00  0.00    +0.116 A 
ATOM     12  C   UNL     1       7.226  -0.562  25.818  0.00  0.00    +0.050 A 
ATOM     13  C   UNL     1       7.537  -0.312  24.502  0.00  0.00    +0.094 A 
ATOM     14  N   UNL     1       6.852   0.592  23.775  0.00  0.00    -0.213 NA
ENDBRANCH   1  13
BRANCH   5  15
ATOM     15  C   UNL     1       7.652  -3.395  23.186  0.00  0.00    +0.003 A 
ATOM     16  C   UNL     1       6.770  -3.653  22.127  0.00  0.00    +0.013 A 
ATOM     17  C   UNL     1       5.838  -4.692  22.213  0.00  0.00    +0.039 A 
ATOM     18  C   UNL     1       5.752  -5.451  23.378  0.00  0.00    +0.123 A 
ATOM     19  F   UNL     1       4.844  -6.430  23.461  0.00  0.00    -0.205 F 
ATOM     20  C   UNL     1       6.584  -5.186  24.454  0.00  0.00    +0.039 A 
ATOM     21  C   UNL     1       7.534  -4.165  24.356  0.00  0.00    +0.013 A 
ENDBRANCH   5  15
BRANCH   2  22
ATOM     22  C   UNL     1      10.381   0.752  23.992  0.00  0.00    +0.127 C 
BRANCH  22  23
ATOM     23  C   UNL     1      10.167   1.981  23.154  0.00  0.00    +0.009 C 
ATOM     24  C   UNL     1      10.934   3.255  23.422  0.00  0.00    +0.005 C 
ATOM     25  C   UNL     1       9.484   3.167  23.798  0.00  0.00    +0.005 C 
ENDBRANCH  22  23
ENDBRANCH   2  22
TORSDOF 4
ENDMDL
MODEL 9
REMARK VINA RESULT:      -6.1      2.819      3.577
REMARK  Name = 
REMARK  4 active torsions:
REMARK  status: ('A' for Active; 'I' for Inactive)
REMARK    1  A    between atoms: C_4  and  C_8
REMARK    2  A    between atoms: C_9  and  C_17
REMARK    3  A    between atoms: N_12  and  C_13
REMARK    4  A    between atoms: C_13  and  C_14
REMARK                            x       y       z     vdW  Elec       q    Type
REMARK                         _______ _______ _______ _____ _____    ______ ____
ROOT
ATOM      1  C   UNL     1       8.184  -0.369  23.367  0.00  0.00    +0.095 A 
ATOM      2  N   UNL     1       8.544  -1.509  22.635  0.00  0.00    -0.328 N 
ATOM      3  C   UNL     1       9.277  -1.106  21.559  0.00  0.00    +0.200 A 
ATOM      4  N   UNL     1       9.357   0.197  21.487  0.00  0.00    -0.235 NA
ATOM      5  C   UNL     1       8.634   0.679  22.557  0.00  0.00    +0.098 A 
ENDROOT
BRANCH   1  13
ATOM      6  N   UNL     1       8.627  -0.102  28.020  0.00  0.00    -0.327 N 
ATOM      7  H   UNL     1       8.106   0.346  28.761  0.00  0.00    +0.145 HD
ATOM      8  H   UNL     1       9.456   0.378  27.698  0.00  0.00    +0.145 HD
ATOM      9  C   UNL     1       7.782  -0.328  26.953  0.00  0.00    +0.213 A 
ATOM     10  N   UNL     1       6.476  -0.405  27.196  0.00  0.00    -0.223 NA
ATOM     11  C   UNL     1       5.678  -0.494  26.120  0.00  0.00    +0.116 A 
ATOM     12  C   UNL     1       6.139  -0.473  24.825  0.00  0.00    +0.050 A 
ATOM     13  C   UNL     1       7.505  -0.421  24.675  0.00  0.00    +0.094 A 
ATOM     14  N   UNL     1       8.329  -0.346  25.738  0.00  0.00    -0.213 NA
ENDBRANCH   1  13
BRANCH   5  15
ATOM     15  C   UNL     1       8.445   2.123  22.701  0.00  0.00    +0.003 A 
ATOM     16  C   UNL     1       9.256   2.907  23.535  0.00  0.00    +0.013 A 
ATOM     17  C   UNL     1       9.025   4.281  23.666  0.00  0.00    +0.039 A 
ATOM     18  C   UNL     1       7.955   4.870  22.997  0.00  0.00    +0.123 A 
ATOM     19  F   UNL     1       7.728   6.181  23.142  0.00  0.00    -0.205 F 
ATOM     20  C   UNL     1       7.115   4.107  22.202  0.00  0.00    +0.039 A 
ATOM     21  C   UNL     1       7.363   2.740  22.050  0.00  0.00    +0.013 A 
ENDBRANCH   5  15
BRANCH   2  22
ATOM     22  C   UNL     1       8.200  -2.892  22.976  0.00  0.00    +0.127 C 
BRANCH  22  23
ATOM     23  C   UNL     1       7.100  -3.547  22.187  0.00  0.00    +0.009 C 
ATOM     24  C   UNL     1       5.699  -2.982  22.180  0.00  0.00    +0.005 C 
ATOM     25  C   UNL     1       5.992  -4.234  22.954  0.00  0.00    +0.005 C 
ENDBRANCH  22  23
ENDBRANCH   2  22
TORSDOF 4
ENDMDL
