MODEL 1
REMARK VINA RESULT:      -3.7      0.000      0.000
REMARK  Name = 
REMARK  1 active torsions:
REMARK  status: ('A' for Active; 'I' for Inactive)
REMARK    1  A    between atoms: C_2  and  CA_4
REMARK                            x       y       z     vdW  Elec       q    Type
REMARK                         _______ _______ _______ _____ _____    ______ ____
ROOT
ATOM      1  CA  PRO A   1       9.981  -0.173  22.692  0.00  0.00    +0.200 C 
ATOM      2  CB  PRO A   1       9.733   0.995  21.812  0.00  0.00    +0.114 C 
ATOM      3  CG  PRO A   1      10.221   2.175  22.649  0.00  0.00    +0.082 C 
ATOM      4  CD  PRO A   1      10.643   1.608  23.999  0.00  0.00    +0.349 C 
ATOM      5  N   PRO A   1      10.461   0.181  23.820  0.00  0.00    -0.243 N 
ATOM      6  H   PRO A   1      10.642  -0.604  24.463  0.00  0.00    +0.445 HD
ENDROOT
BRANCH   1   8
ATOM      7  O   PRO A   1      10.674  -2.328  22.827  0.00  0.00    -0.540 OA
ATOM      8  C   PRO A   1       9.729  -1.597  22.410  0.00  0.00    +0.133 C 
ATOM      9  OXT PRO A   1       8.652  -1.865  21.828  0.00  0.00    -0.540 OA
ENDBRANCH   1   8
TORSDOF 1
ENDMDL
MODEL 2
REMARK VINA RESULT:      -3.7      0.689      1.333
REMARK  Name = 
REMARK  1 active torsions:
REMARK  status: ('A' for Active; 'I' for Inactive)
REMARK    1  A    between atoms: C_2  and  CA_4
REMARK                            x       y       z     vdW  Elec       q    Type
REMARK                         _______ _______ _______ _____ _____    ______ ____
ROOT
ATOM      1  CA  PRO A   1       9.754  -0.625  22.792  0.00  0.00    +0.200 C 
ATOM      2  CB  PRO A   1       9.556   0.255  21.614  0.00  0.00    +0.114 C 
ATOM      3  CG  PRO A   1      10.039   1.617  22.108  0.00  0.00    +0.082 C 
ATOM      4  CD  PRO A   1      10.407   1.443  23.576  0.00  0.00    +0.349 C 
ATOM      5  N   PRO A   1      10.204   0.025  23.793  0.00  0.00    -0.243 N 
ATOM      6  H   PRO A   1      10.350  -0.553  24.636  0.00  0.00    +0.445 HD
ENDROOT
BRANCH   1   8
ATOM      7  O   PRO A   1       8.470  -2.407  22.230  0.00  0.00    -0.540 OA
ATOM      8  C   PRO A   1       9.484  -2.069  22.907  0.00  0.00    +0.133 C 
ATOM      9  OXT PRO A   1      10.274  -2.725  23.624  0.00  0.00    -0.540 OA
ENDBRANCH   1   8
TORSDOF 1
ENDMDL
MODEL 3
REMARK VINA RESULT:      -3.6      1.184      1.813
REMARK  Name = 
REMARK  1 active torsions:
REMARK  status: ('A' for Active; 'I' for Inactive)
REMARK    1  A    between atoms: C_2  and  CA_4
REMARK                            x       y       z     vdW  Elec       q    Type
REMARK                         _______ _______ _______ _____ _____    ______ ____
ROOT
ATOM      1  CA  PRO A   1      10.190  -0.104  23.384  0.00  0.00    +0.200 C 
ATOM      2  CB  PRO A   1      10.636   0.897  24.384  0.00  0.00    +0.114 C 
ATOM      3  CG  PRO A   1      10.532   2.219  23.627  0.00  0.00    +0.082 C 
ATOM      4  CD  PRO A   1      10.110   1.875  22.204  0.00  0.00    +0.349 C 
ATOM      5  N   PRO A   1       9.919   0.440  22.263  0.00  0.00    -0.243 N 
ATOM      6  H   PRO A   1       9.611  -0.226  21.538  0.00  0.00    +0.445 HD
ENDROOT
BRANCH   1   8
ATOM      7  O   PRO A   1       9.414  -1.853  24.600  0.00  0.00    -0.540 OA
ATOM      8  C   PRO A   1      10.058  -1.562  23.551  0.00  0.00    +0.133 C 
ATOM      9  OXT PRO A   1      10.575  -2.272  22.657  0.00  0.00    -0.540 OA
ENDBRANCH   1   8
TORSDOF 1
ENDMDL
MODEL 4
REMARK VINA RESULT:      -3.5      1.790      2.231
REMARK  Name = 
REMARK  1 active torsions:
REMARK  status: ('A' for Active; 'I' for Inactive)
REMARK    1  A    between atoms: C_2  and  CA_4
REMARK                            x       y       z     vdW  Elec       q    Type
REMARK                         _______ _______ _______ _____ _____    ______ ____
ROOT
ATOM      1  CA  PRO A   1       8.771  -0.383  22.179  0.00  0.00    +0.200 C 
ATOM      2  CB  PRO A   1       9.336   0.794  21.476  0.00  0.00    +0.114 C 
ATOM      3  CG  PRO A   1       8.309   1.891  21.747  0.00  0.00    +0.082 C 
ATOM      4  CD  PRO A   1       7.171   1.241  22.524  0.00  0.00    +0.349 C 
ATOM      5  N   PRO A   1       7.647  -0.114  22.719  0.00  0.00    -0.243 N 
ATOM      6  H   PRO A   1       7.218  -0.911  23.213  0.00  0.00    +0.445 HD
ENDROOT
BRANCH   1   8
ATOM      7  O   PRO A   1       8.435  -2.622  22.294  0.00  0.00    -0.540 OA
ATOM      8  C   PRO A   1       9.339  -1.738  22.290  0.00  0.00    +0.133 C 
ATOM      9  OXT PRO A   1      10.588  -1.812  22.351  0.00  0.00    -0.540 OA
ENDBRANCH   1   8
TORSDOF 1
ENDMDL
MODEL 5
REMARK VINA RESULT:      -3.5      5.982      6.681
REMARK  Name = 
REMARK  1 active torsions:
REMARK  status: ('A' for Active; 'I' for Inactive)
REMARK    1  A    between atoms: C_2  and  CA_4
REMARK                            x       y       z     vdW  Elec       q    Type
REMARK                         _______ _______ _______ _____ _____    ______ ____
ROOT
ATOM      1  CA  PRO A   1       7.958  -4.996  25.874  0.00  0.00    +0.200 C 
ATOM      2  CB  PRO A   1       6.903  -3.960  25.985  0.00  0.00    +0.114 C 
ATOM      3  CG  PRO A   1       6.207  -4.308  27.299  0.00  0.00    +0.082 C 
ATOM      4  CD  PRO A   1       6.863  -5.581  27.816  0.00  0.00    +0.349 C 
ATOM      5  N   PRO A   1       7.913  -5.820  26.847  0.00  0.00    -0.243 N 
ATOM      6  H   PRO A   1       8.629  -6.561  26.802  0.00  0.00    +0.445 HD
ENDROOT
BRANCH   1   8
ATOM      7  O   PRO A   1       8.434  -5.404  23.695  0.00  0.00    -0.540 OA
ATOM      8  C   PRO A   1       8.969  -5.157  24.814  0.00  0.00    +0.133 C 
ATOM      9  OXT PRO A   1      10.165  -5.023  25.163  0.00  0.00    -0.540 OA
ENDBRANCH   1   8
TORSDOF 1
ENDMDL
MODEL 6
REMARK VINA RESULT:      -3.4      6.195      6.977
REMARK  Name = 
REMARK  1 active torsions:
REMARK  status: ('A' for Active; 'I' for Inactive)
REMARK    1  A    between atoms: C_2  and  CA_4
REMARK                            x       y       z     vdW  Elec       q    Type
REMARK                         _______ _______ _______ _____ _____    ______ ____
ROOT
ATOM      1  CA  PRO A   1       7.402  -5.216  25.496  0.00  0.00    +0.200 C 
ATOM      2  CB  PRO A   1       5.975  -5.453  25.166  0.00  0.00    +0.114 C 
ATOM      3  CG  PRO A   1       5.970  -5.506  23.640  0.00  0.00    +0.082 C 
ATOM      4  CD  PRO A   1       7.395  -5.210  23.190  0.00  0.00    +0.349 C 
ATOM      5  N   PRO A   1       8.114  -5.101  24.444  0.00  0.00    -0.243 N 
ATOM      6  H   PRO A   1       9.113  -4.929  24.632  0.00  0.00    +0.445 HD
ENDROOT
BRANCH   1   8
ATOM      7  O   PRO A   1       7.430  -5.816  27.682  0.00  0.00    -0.540 OA
ATOM      8  C   PRO A   1       8.022  -5.096  26.827  0.00  0.00    +0.133 C 
ATOM      9  OXT PRO A   1       9.013  -4.334  26.910  0.00  0.00    -0.540 OA
ENDBRANCH   1   8
TORSDOF 1
ENDMDL
MODEL 7
REMARK VINA RESULT:      -3.4      2.889      3.537
REMARK  Name = 
REMARK  1 active torsions:
REMARK  status: ('A' for Active; 'I' for Inactive)
REMARK    1  A    between atoms: C_2  and  CA_4
REMARK                            x       y       z     vdW  Elec       q    Type
REMARK                         _______ _______ _______ _____ _____    ______ ____
ROOT
ATOM      1  CA  PRO A   1       9.110  -3.036  23.704  0.00  0.00    +0.200 C 
ATOM      2  CB  PRO A   1       8.151  -2.591  22.663  0.00  0.00    +0.114 C 
ATOM      3  CG  PRO A   1       8.928  -1.517  21.906  0.00  0.00    +0.082 C 
ATOM      4  CD  PRO A   1      10.262  -1.357  22.622  0.00  0.00    +0.349 C 
ATOM      5  N   PRO A   1      10.200  -2.377  23.650  0.00  0.00    -0.243 N 
ATOM      6  H   PRO A   1      10.892  -2.653  24.364  0.00  0.00    +0.445 HD
ENDROOT
BRANCH   1   8
ATOM      7  O   PRO A   1       9.961  -4.794  24.854  0.00  0.00    -0.540 OA
ATOM      8  C   PRO A   1       8.925  -4.080  24.728  0.00  0.00    +0.133 C 
ATOM      9  OXT PRO A   1       7.814  -4.099  25.306  0.00  0.00    -0.540 OA
ENDBRANCH   1   8
TORSDOF 1
ENDMDL
MODEL 8
REMARK VINA RESULT:      -3.4      3.518      4.310
REMARK  Name = 
REMARK  1 active torsions:
REMARK  status: ('A' for Active; 'I' for Inactive)
REMARK    1  A    between atoms: C_2  and  CA_4
REMARK                            x       y       z     vdW  Elec       q    Type
REMARK                         _______ _______ _______ _____ _____    ______ ____
ROOT
ATOM      1  CA  PRO A   1      10.767   3.720  23.392  0.00  0.00    +0.200 C 
ATOM      2  CB  PRO A   1      12.091   4.390  23.369  0.00  0.00    +0.114 C 
ATOM      3  CG  PRO A   1      11.746   5.858  23.610  0.00  0.00    +0.082 C 
ATOM      4  CD  PRO A   1      10.226   5.944  23.673  0.00  0.00    +0.349 C 
ATOM      5  N   PRO A   1       9.820   4.557  23.559  0.00  0.00    -0.243 N 
ATOM      6  H   PRO A   1       8.881   4.130  23.574  0.00  0.00    +0.445 HD
ENDROOT
BRANCH   1   8
ATOM      7  O   PRO A   1      10.191   1.997  22.036  0.00  0.00    -0.540 OA
ATOM      8  C   PRO A   1      10.469   2.286  23.236  0.00  0.00    +0.133 C 
ATOM      9  OXT PRO A   1      10.540   1.589  24.274  0.00  0.00    -0.540 OA
ENDBRANCH   1   8
TORSDOF 1
ENDMDL
MODEL 9
REMARK VINA RESULT:      -3.4      2.646      3.580
REMARK  Name = 
REMARK  1 active torsions:
REMARK  status: ('A' for Active; 'I' for Inactive)
REMARK    1  A    between atoms: C_2  and  CA_4
REMARK                            x       y       z     vdW  Elec       q    Type
REMARK                         _______ _______ _______ _____ _____    ______ ____
ROOT
ATOM      1  CA  PRO A   1       9.934   0.984  22.677  0.00  0.00    +0.200 C 
ATOM      2  CB  PRO A   1       9.272   0.505  21.438  0.00  0.00    +0.114 C 
ATOM      3  CG  PRO A   1       9.456  -1.009  21.505  0.00  0.00    +0.082 C 
ATOM      4  CD  PRO A   1      10.291  -1.293  22.748  0.00  0.00    +0.349 C 
ATOM      5  N   PRO A   1      10.448   0.022  23.337  0.00  0.00    -0.243 N 
ATOM      6  H   PRO A   1      10.923   0.316  24.204  0.00  0.00    +0.445 HD
ENDROOT
BRANCH   1   8
ATOM      7  O   PRO A   1       8.982   3.016  23.001  0.00  0.00    -0.540 OA
ATOM      8  C   PRO A   1      10.055   2.368  23.168  0.00  0.00    +0.133 C 
ATOM      9  OXT PRO A   1      11.159   2.684  23.669  0.00  0.00    -0.540 OA
ENDBRANCH   1   8
TORSDOF 1
ENDMDL
