MODEL 1
REMARK VINA RESULT:      -7.4      0.000      0.000
REMARK  Name = 
REMARK  23 active torsions:
REMARK  status: ('A' for Active; 'I' for Inactive)
REMARK    1  A    between atoms: C_1  and  C_2
REMARK    2  A    between atoms: C_5  and  O_7
REMARK    3  A    between atoms: O_7  and  C_8
REMARK    4  A    between atoms: C_10  and  C_12
REMARK    5  A    between atoms: C_12  and  O_13
REMARK    6  A    between atoms: C_15  and  O_17
REMARK    7  A    between atoms: O_17  and  C_18
REMARK    8  A    between atoms: C_20  and  C_22
REMARK    9  A    between atoms: C_22  and  O_23
REMARK   10  A    between atoms: C_25  and  O_27
REMARK   11  A    between atoms: C_28  and  O_30
REMARK   12  A    between atoms: C_31  and  O_33
REMARK   13  A    between atoms: C_34  and  O_36
REMARK   14  A    between atoms: C_37  and  O_39
REMARK   15  A    between atoms: C_40  and  O_42
REMARK   16  A    between atoms: C_43  and  O_45
REMARK   17  A    between atoms: C_46  and  N_48
REMARK   18  A    between atoms: N_48  and  C_49
REMARK   19  A    between atoms: C_52  and  C_53
REMARK   20  A    between atoms: C_53  and  O_54
REMARK   21  A    between atoms: C_55  and  O_57
REMARK   22  A    between atoms: C_58  and  O_60
REMARK   23  A    between atoms: C_61  and  O_63
REMARK                            x       y       z     vdW  Elec       q    Type
REMARK                         _______ _______ _______ _____ _____    ______ ____
ROOT
ATOM      1  O   UNL     1       8.830  -1.229  23.785  0.00  0.00    -0.340 OA
ENDROOT
BRANCH   1   7
ATOM      2  C   UNL     1       7.268   2.230  21.700  0.00  0.00    +0.039 C 
ATOM      3  C   UNL     1       7.672   2.183  23.177  0.00  0.00    +0.138 C 
ATOM      4  C   UNL     1       8.959   2.977  23.537  0.00  0.00    +0.114 C 
ATOM      5  C   UNL     1      10.215   2.197  23.051  0.00  0.00    +0.167 C 
ATOM      6  C   UNL     1      10.220   0.755  23.588  0.00  0.00    +0.200 C 
ATOM      7  C   UNL     1       8.882   0.093  23.230  0.00  0.00    +0.282 C 
ATOM      8  O   UNL     1       7.746   0.836  23.663  0.00  0.00    -0.344 OA
BRANCH   6   9
ATOM      9  O   UNL     1      10.462   0.733  24.996  0.00  0.00    -0.384 OA
ATOM     10  H   UNL     1      11.417   0.893  25.133  0.00  0.00    +0.210 HD
ENDBRANCH   6   9
BRANCH   5  11
ATOM     11  O   UNL     1      10.294   2.274  21.616  0.00  0.00    -0.387 OA
ATOM     12  H   UNL     1       9.831   1.525  21.201  0.00  0.00    +0.210 HD
ENDBRANCH   5  11
BRANCH   4  13
ATOM     13  N   UNL     1       8.896   3.221  25.002  0.00  0.00    -0.300 NA
ATOM     14  H   UNL     1       9.816   2.990  25.405  0.00  0.00    +0.123 HD
BRANCH  13  15
ATOM     15  C   UNL     1       8.640   4.613  25.404  0.00  0.00    +0.109 C 
ATOM     16  C   UNL     1       7.424   4.705  26.366  0.00  0.00    +0.166 C 
ATOM     17  C   UNL     1       6.092   4.587  25.624  0.00  0.00    +0.177 C 
ATOM     18  C   UNL     1       5.972   5.589  24.458  0.00  0.00    +0.173 C 
ATOM     19  C   UNL     1       7.261   5.923  23.751  0.00  0.00    -0.016 C 
ATOM     20  C   UNL     1       8.452   5.454  24.179  0.00  0.00    -0.002 C 
BRANCH  18  21
ATOM     21  O   UNL     1       5.435   6.813  24.982  0.00  0.00    -0.385 OA
ATOM     22  H   UNL     1       6.209   7.370  25.189  0.00  0.00    +0.210 HD
ENDBRANCH  18  21
BRANCH  17  23
ATOM     23  O   UNL     1       5.031   4.818  26.580  0.00  0.00    -0.386 OA
ATOM     24  H   UNL     1       4.708   3.918  26.801  0.00  0.00    +0.210 HD
ENDBRANCH  17  23
BRANCH  16  25
ATOM     25  O   UNL     1       7.496   3.672  27.371  0.00  0.00    -0.387 OA
ATOM     26  H   UNL     1       7.108   2.878  26.952  0.00  0.00    +0.210 HD
ENDBRANCH  16  25
BRANCH  19  27
ATOM     27  C   UNL     1       7.175   6.798  22.540  0.00  0.00    +0.189 C 
BRANCH  27  28
ATOM     28  O   UNL     1       7.567   6.053  21.400  0.00  0.00    -0.391 OA
ATOM     29  H   UNL     1       7.553   6.673  20.649  0.00  0.00    +0.210 HD
ENDBRANCH  27  28
ENDBRANCH  19  27
ENDBRANCH  13  15
ENDBRANCH   4  13
ENDBRANCH   1   7
BRANCH   1  30
ATOM     30  C   UNL     1       7.545  -1.514  24.377  0.00  0.00    +0.183 C 
ATOM     31  C   UNL     1       6.639  -2.293  23.386  0.00  0.00    +0.179 C 
ATOM     32  C   UNL     1       5.388  -2.826  24.047  0.00  0.00    +0.201 C 
ATOM     33  C   UNL     1       5.719  -3.554  25.346  0.00  0.00    +0.282 C 
ATOM     34  O   UNL     1       6.475  -2.728  26.227  0.00  0.00    -0.341 OA
ATOM     35  C   UNL     1       7.740  -2.325  25.676  0.00  0.00    +0.178 C 
BRANCH  32  36
ATOM     36  O   UNL     1       4.675  -3.661  23.124  0.00  0.00    -0.384 OA
ATOM     37  H   UNL     1       4.031  -3.106  22.651  0.00  0.00    +0.210 HD
ENDBRANCH  32  36
BRANCH  31  38
ATOM     38  O   UNL     1       6.188  -1.450  22.306  0.00  0.00    -0.386 OA
ATOM     39  H   UNL     1       6.904  -1.401  21.648  0.00  0.00    +0.210 HD
ENDBRANCH  31  38
BRANCH  33  40
ATOM     40  O   UNL     1       6.361  -4.806  25.124  0.00  0.00    -0.340 OA
BRANCH  40  41
ATOM     41  C   UNL     1       5.994  -5.818  26.076  0.00  0.00    +0.183 C 
ATOM     42  C   UNL     1       6.539  -5.525  27.497  0.00  0.00    +0.179 C 
ATOM     43  C   UNL     1       5.974  -6.493  28.527  0.00  0.00    +0.201 C 
ATOM     44  C   UNL     1       4.451  -6.613  28.393  0.00  0.00    +0.279 C 
ATOM     45  O   UNL     1       4.064  -6.941  27.074  0.00  0.00    -0.341 OA
ATOM     46  C   UNL     1       4.453  -5.920  26.137  0.00  0.00    +0.178 C 
BRANCH  44  47
ATOM     47  O   UNL     1       4.004  -7.651  29.255  0.00  0.00    -0.365 OA
ATOM     48  H   UNL     1       4.359  -8.477  28.885  0.00  0.00    +0.213 HD
ENDBRANCH  44  47
BRANCH  43  49
ATOM     49  O   UNL     1       6.340  -6.054  29.843  0.00  0.00    -0.384 OA
ATOM     50  H   UNL     1       6.258  -5.086  29.853  0.00  0.00    +0.210 HD
ENDBRANCH  43  49
BRANCH  42  51
ATOM     51  O   UNL     1       7.974  -5.630  27.559  0.00  0.00    -0.386 OA
ATOM     52  H   UNL     1       8.371  -4.837  27.159  0.00  0.00    +0.210 HD
ENDBRANCH  42  51
BRANCH  46  53
ATOM     53  C   UNL     1       3.836  -6.302  24.785  0.00  0.00    +0.190 C 
BRANCH  53  54
ATOM     54  O   UNL     1       4.691  -7.224  24.105  0.00  0.00    -0.392 OA
ATOM     55  H   UNL     1       4.158  -8.028  23.953  0.00  0.00    +0.210 HD
ENDBRANCH  53  54
ENDBRANCH  46  53
ENDBRANCH  40  41
ENDBRANCH  33  40
BRANCH  35  56
ATOM     56  C   UNL     1       8.461  -1.542  26.793  0.00  0.00    +0.190 C 
BRANCH  56  57
ATOM     57  O   UNL     1       8.454  -0.133  26.631  0.00  0.00    -0.392 OA
ATOM     58  H   UNL     1       9.368   0.169  26.491  0.00  0.00    +0.210 HD
ENDBRANCH  56  57
ENDBRANCH  35  56
ENDBRANCH   1  30
TORSDOF 22
ENDMDL
MODEL 2
REMARK VINA RESULT:      -7.3      1.884      3.677
REMARK  Name = 
REMARK  23 active torsions:
REMARK  status: ('A' for Active; 'I' for Inactive)
REMARK    1  A    between atoms: C_1  and  C_2
REMARK    2  A    between atoms: C_5  and  O_7
REMARK    3  A    between atoms: O_7  and  C_8
REMARK    4  A    between atoms: C_10  and  C_12
REMARK    5  A    between atoms: C_12  and  O_13
REMARK    6  A    between atoms: C_15  and  O_17
REMARK    7  A    between atoms: O_17  and  C_18
REMARK    8  A    between atoms: C_20  and  C_22
REMARK    9  A    between atoms: C_22  and  O_23
REMARK   10  A    between atoms: C_25  and  O_27
REMARK   11  A    between atoms: C_28  and  O_30
REMARK   12  A    between atoms: C_31  and  O_33
REMARK   13  A    between atoms: C_34  and  O_36
REMARK   14  A    between atoms: C_37  and  O_39
REMARK   15  A    between atoms: C_40  and  O_42
REMARK   16  A    between atoms: C_43  and  O_45
REMARK   17  A    between atoms: C_46  and  N_48
REMARK   18  A    between atoms: N_48  and  C_49
REMARK   19  A    between atoms: C_52  and  C_53
REMARK   20  A    between atoms: C_53  and  O_54
REMARK   21  A    between atoms: C_55  and  O_57
REMARK   22  A    between atoms: C_58  and  O_60
REMARK   23  A    between atoms: C_61  and  O_63
REMARK                            x       y       z     vdW  Elec       q    Type
REMARK                         _______ _______ _______ _____ _____    ______ ____
ROOT
ATOM      1  O   UNL     1       8.146  -1.872  22.661  0.00  0.00    -0.340 OA
ENDROOT
BRANCH   1   7
ATOM      2  C   UNL     1       7.474  -1.009  26.851  0.00  0.00    +0.039 C 
ATOM      3  C   UNL     1       8.111  -0.058  25.833  0.00  0.00    +0.138 C 
ATOM      4  C   UNL     1       7.240   1.168  25.437  0.00  0.00    +0.114 C 
ATOM      5  C   UNL     1       6.101   0.720  24.476  0.00  0.00    +0.167 C 
ATOM      6  C   UNL     1       6.660  -0.045  23.263  0.00  0.00    +0.200 C 
ATOM      7  C   UNL     1       7.550  -1.188  23.773  0.00  0.00    +0.282 C 
ATOM      8  O   UNL     1       8.571  -0.758  24.669  0.00  0.00    -0.344 OA
BRANCH   6   9
ATOM      9  O   UNL     1       7.372   0.831  22.388  0.00  0.00    -0.384 OA
ATOM     10  H   UNL     1       8.319   0.589  22.437  0.00  0.00    +0.210 HD
ENDBRANCH   6   9
BRANCH   5  11
ATOM     11  O   UNL     1       5.120  -0.025  25.220  0.00  0.00    -0.387 OA
ATOM     12  H   UNL     1       4.809   0.482  25.991  0.00  0.00    +0.210 HD
ENDBRANCH   5  11
BRANCH   4  13
ATOM     13  N   UNL     1       8.179   2.176  24.875  0.00  0.00    -0.300 NA
ATOM     14  H   UNL     1       8.636   1.762  24.049  0.00  0.00    +0.123 HD
BRANCH  13  15
ATOM     15  C   UNL     1       7.560   3.418  24.388  0.00  0.00    +0.109 C 
ATOM     16  C   UNL     1       8.482   4.140  23.367  0.00  0.00    +0.166 C 
ATOM     17  C   UNL     1       9.631   4.882  24.051  0.00  0.00    +0.177 C 
ATOM     18  C   UNL     1       9.143   5.842  25.156  0.00  0.00    +0.173 C 
ATOM     19  C   UNL     1       7.909   5.402  25.903  0.00  0.00    -0.016 C 
ATOM     20  C   UNL     1       7.223   4.293  25.556  0.00  0.00    -0.002 C 
BRANCH  18  21
ATOM     21  O   UNL     1       8.850   7.107  24.542  0.00  0.00    -0.385 OA
ATOM     22  H   UNL     1       9.563   7.708  24.832  0.00  0.00    +0.210 HD
ENDBRANCH  18  21
BRANCH  17  23
ATOM     23  O   UNL     1      10.345   5.626  23.036  0.00  0.00    -0.386 OA
ATOM     24  H   UNL     1      10.038   5.230  22.191  0.00  0.00    +0.210 HD
ENDBRANCH  17  23
BRANCH  16  25
ATOM     25  O   UNL     1       9.028   3.195  22.423  0.00  0.00    -0.387 OA
ATOM     26  H   UNL     1       9.594   2.600  22.954  0.00  0.00    +0.210 HD
ENDBRANCH  16  25
BRANCH  19  27
ATOM     27  C   UNL     1       7.470   6.243  27.060  0.00  0.00    +0.189 C 
BRANCH  27  28
ATOM     28  O   UNL     1       8.023   5.716  28.253  0.00  0.00    -0.391 OA
ATOM     29  H   UNL     1       8.962   5.539  28.066  0.00  0.00    +0.210 HD
ENDBRANCH  27  28
ENDBRANCH  19  27
ENDBRANCH  13  15
ENDBRANCH   4  13
ENDBRANCH   1   7
BRANCH   1  30
ATOM     30  C   UNL     1       8.201  -3.299  22.873  0.00  0.00    +0.183 C 
ATOM     31  C   UNL     1       8.848  -3.629  24.245  0.00  0.00    +0.179 C 
ATOM     32  C   UNL     1       8.699  -5.088  24.614  0.00  0.00    +0.201 C 
ATOM     33  C   UNL     1       7.258  -5.556  24.437  0.00  0.00    +0.282 C 
ATOM     34  O   UNL     1       6.783  -5.290  23.120  0.00  0.00    -0.341 OA
ATOM     35  C   UNL     1       6.778  -3.891  22.794  0.00  0.00    +0.178 C 
BRANCH  32  36
ATOM     36  O   UNL     1       9.175  -5.297  25.951  0.00  0.00    -0.384 OA
ATOM     37  H   UNL     1       9.625  -4.484  26.241  0.00  0.00    +0.210 HD
ENDBRANCH  32  36
BRANCH  31  38
ATOM     38  O   UNL     1      10.266  -3.365  24.240  0.00  0.00    -0.386 OA
ATOM     39  H   UNL     1      10.439  -2.688  23.561  0.00  0.00    +0.210 HD
ENDBRANCH  31  38
BRANCH  33  40
ATOM     40  O   UNL     1       6.382  -5.022  25.425  0.00  0.00    -0.340 OA
BRANCH  40  41
ATOM     41  C   UNL     1       5.741  -6.027  26.229  0.00  0.00    +0.183 C 
ATOM     42  C   UNL     1       6.100  -5.907  27.731  0.00  0.00    +0.179 C 
ATOM     43  C   UNL     1       5.259  -6.843  28.587  0.00  0.00    +0.201 C 
ATOM     44  C   UNL     1       3.772  -6.729  28.231  0.00  0.00    +0.279 C 
ATOM     45  O   UNL     1       3.547  -6.913  26.848  0.00  0.00    -0.341 OA
ATOM     46  C   UNL     1       4.210  -5.905  26.063  0.00  0.00    +0.178 C 
BRANCH  44  47
ATOM     47  O   UNL     1       3.062  -7.741  28.932  0.00  0.00    -0.365 OA
ATOM     48  H   UNL     1       3.483  -7.805  29.806  0.00  0.00    +0.213 HD
ENDBRANCH  44  47
BRANCH  43  49
ATOM     49  O   UNL     1       5.478  -6.546  29.974  0.00  0.00    -0.384 OA
ATOM     50  H   UNL     1       5.452  -7.391  30.452  0.00  0.00    +0.210 HD
ENDBRANCH  43  49
BRANCH  42  51
ATOM     51  O   UNL     1       7.481  -6.226  27.985  0.00  0.00    -0.386 OA
ATOM     52  H   UNL     1       7.579  -7.192  28.056  0.00  0.00    +0.210 HD
ENDBRANCH  42  51
BRANCH  46  53
ATOM     53  C   UNL     1       3.757  -6.106  24.610  0.00  0.00    +0.190 C 
BRANCH  53  54
ATOM     54  O   UNL     1       4.456  -7.212  24.034  0.00  0.00    -0.392 OA
ATOM     55  H   UNL     1       5.297  -6.853  23.689  0.00  0.00    +0.210 HD
ENDBRANCH  53  54
ENDBRANCH  46  53
ENDBRANCH  40  41
ENDBRANCH  33  40
BRANCH  35  56
ATOM     56  C   UNL     1       6.138  -3.781  21.395  0.00  0.00    +0.190 C 
BRANCH  56  57
ATOM     57  O   UNL     1       5.821  -5.024  20.787  0.00  0.00    -0.392 OA
ATOM     58  H   UNL     1       5.184  -5.493  21.352  0.00  0.00    +0.210 HD
ENDBRANCH  56  57
ENDBRANCH  35  56
ENDBRANCH   1  30
TORSDOF 22
ENDMDL
MODEL 3
REMARK VINA RESULT:      -7.0      1.913      3.211
REMARK  Name = 
REMARK  23 active torsions:
REMARK  status: ('A' for Active; 'I' for Inactive)
REMARK    1  A    between atoms: C_1  and  C_2
REMARK    2  A    between atoms: C_5  and  O_7
REMARK    3  A    between atoms: O_7  and  C_8
REMARK    4  A    between atoms: C_10  and  C_12
REMARK    5  A    between atoms: C_12  and  O_13
REMARK    6  A    between atoms: C_15  and  O_17
REMARK    7  A    between atoms: O_17  and  C_18
REMARK    8  A    between atoms: C_20  and  C_22
REMARK    9  A    between atoms: C_22  and  O_23
REMARK   10  A    between atoms: C_25  and  O_27
REMARK   11  A    between atoms: C_28  and  O_30
REMARK   12  A    between atoms: C_31  and  O_33
REMARK   13  A    between atoms: C_34  and  O_36
REMARK   14  A    between atoms: C_37  and  O_39
REMARK   15  A    between atoms: C_40  and  O_42
REMARK   16  A    between atoms: C_43  and  O_45
REMARK   17  A    between atoms: C_46  and  N_48
REMARK   18  A    between atoms: N_48  and  C_49
REMARK   19  A    between atoms: C_52  and  C_53
REMARK   20  A    between atoms: C_53  and  O_54
REMARK   21  A    between atoms: C_55  and  O_57
REMARK   22  A    between atoms: C_58  and  O_60
REMARK   23  A    between atoms: C_61  and  O_63
REMARK                            x       y       z     vdW  Elec       q    Type
REMARK                         _______ _______ _______ _____ _____    ______ ____
ROOT
ATOM      1  O   UNL     1       7.848  -2.308  22.390  0.00  0.00    -0.340 OA
ENDROOT
BRANCH   1   7
ATOM      2  C   UNL     1      10.607   0.280  24.498  0.00  0.00    +0.039 C 
ATOM      3  C   UNL     1       9.369   0.737  23.720  0.00  0.00    +0.138 C 
ATOM      4  C   UNL     1       8.198   1.269  24.592  0.00  0.00    +0.114 C 
ATOM      5  C   UNL     1       7.466   0.080  25.279  0.00  0.00    +0.167 C 
ATOM      6  C   UNL     1       7.026  -0.976  24.250  0.00  0.00    +0.200 C 
ATOM      7  C   UNL     1       8.246  -1.379  23.409  0.00  0.00    +0.282 C 
ATOM      8  O   UNL     1       8.914  -0.273  22.808  0.00  0.00    -0.344 OA
BRANCH   6   9
ATOM      9  O   UNL     1       5.960  -0.485  23.435  0.00  0.00    -0.384 OA
ATOM     10  H   UNL     1       6.192   0.426  23.165  0.00  0.00    +0.210 HD
ENDBRANCH   6   9
BRANCH   5  11
ATOM     11  O   UNL     1       8.303  -0.450  26.322  0.00  0.00    -0.387 OA
ATOM     12  H   UNL     1       8.168  -1.409  26.423  0.00  0.00    +0.210 HD
ENDBRANCH   5  11
BRANCH   4  13
ATOM     13  N   UNL     1       7.352   2.092  23.686  0.00  0.00    -0.300 NA
ATOM     14  H   UNL     1       6.591   1.496  23.329  0.00  0.00    +0.123 HD
BRANCH  13  15
ATOM     15  C   UNL     1       6.677   3.238  24.315  0.00  0.00    +0.109 C 
ATOM     16  C   UNL     1       5.142   3.182  24.082  0.00  0.00    +0.166 C 
ATOM     17  C   UNL     1       4.756   3.622  22.669  0.00  0.00    +0.177 C 
ATOM     18  C   UNL     1       5.338   5.001  22.298  0.00  0.00    +0.173 C 
ATOM     19  C   UNL     1       6.678   5.328  22.907  0.00  0.00    -0.016 C 
ATOM     20  C   UNL     1       7.276   4.509  23.796  0.00  0.00    -0.002 C 
BRANCH  18  21
ATOM     21  O   UNL     1       4.406   6.004  22.736  0.00  0.00    -0.385 OA
ATOM     22  H   UNL     1       4.138   6.480  21.927  0.00  0.00    +0.210 HD
ENDBRANCH  18  21
BRANCH  17  23
ATOM     23  O   UNL     1       3.312   3.663  22.597  0.00  0.00    -0.386 OA
ATOM     24  H   UNL     1       3.122   4.482  22.090  0.00  0.00    +0.210 HD
ENDBRANCH  17  23
BRANCH  16  25
ATOM     25  O   UNL     1       4.646   1.846  24.311  0.00  0.00    -0.387 OA
ATOM     26  H   UNL     1       4.641   1.420  23.431  0.00  0.00    +0.210 HD
ENDBRANCH  16  25
BRANCH  19  27
ATOM     27  C   UNL     1       7.333   6.605  22.480  0.00  0.00    +0.189 C 
BRANCH  27  28
ATOM     28  O   UNL     1       6.879   6.949  21.183  0.00  0.00    -0.391 OA
ATOM     29  H   UNL     1       7.673   7.011  20.622  0.00  0.00    +0.210 HD
ENDBRANCH  27  28
ENDBRANCH  19  27
ENDBRANCH  13  15
ENDBRANCH   4  13
ENDBRANCH   1   7
BRANCH   1  30
ATOM     30  C   UNL     1       8.045  -3.677  22.803  0.00  0.00    +0.183 C 
ATOM     31  C   UNL     1       8.714  -3.741  24.202  0.00  0.00    +0.179 C 
ATOM     32  C   UNL     1       8.711  -5.141  24.777  0.00  0.00    +0.201 C 
ATOM     33  C   UNL     1       7.325  -5.772  24.680  0.00  0.00    +0.282 C 
ATOM     34  O   UNL     1       6.834  -5.746  23.342  0.00  0.00    -0.341 OA
ATOM     35  C   UNL     1       6.689  -4.415  22.821  0.00  0.00    +0.178 C 
BRANCH  32  36
ATOM     36  O   UNL     1       9.198  -5.107  26.125  0.00  0.00    -0.384 OA
ATOM     37  H   UNL     1       9.899  -4.434  26.176  0.00  0.00    +0.210 HD
ENDBRANCH  32  36
BRANCH  31  38
ATOM     38  O   UNL     1      10.098  -3.339  24.147  0.00  0.00    -0.386 OA
ATOM     39  H   UNL     1      10.131  -2.437  23.783  0.00  0.00    +0.210 HD
ENDBRANCH  31  38
BRANCH  33  40
ATOM     40  O   UNL     1       6.395  -5.194  25.590  0.00  0.00    -0.340 OA
BRANCH  40  41
ATOM     41  C   UNL     1       5.704  -6.161  26.398  0.00  0.00    +0.183 C 
ATOM     42  C   UNL     1       6.035  -6.023  27.905  0.00  0.00    +0.179 C 
ATOM     43  C   UNL     1       5.145  -6.915  28.760  0.00  0.00    +0.201 C 
ATOM     44  C   UNL     1       3.671  -6.759  28.370  0.00  0.00    +0.279 C 
ATOM     45  O   UNL     1       3.469  -6.962  26.986  0.00  0.00    -0.341 OA
ATOM     46  C   UNL     1       4.181  -5.991  26.197  0.00  0.00    +0.178 C 
BRANCH  44  47
ATOM     47  O   UNL     1       2.913  -7.733  29.075  0.00  0.00    -0.365 OA
ATOM     48  H   UNL     1       2.350  -7.238  29.694  0.00  0.00    +0.213 HD
ENDBRANCH  44  47
BRANCH  43  49
ATOM     49  O   UNL     1       5.345  -6.598  30.145  0.00  0.00    -0.384 OA
ATOM     50  H   UNL     1       4.527  -6.835  30.612  0.00  0.00    +0.210 HD
ENDBRANCH  43  49
BRANCH  42  51
ATOM     51  O   UNL     1       7.399  -6.383  28.195  0.00  0.00    -0.386 OA
ATOM     52  H   UNL     1       7.901  -6.432  27.363  0.00  0.00    +0.210 HD
ENDBRANCH  42  51
BRANCH  46  53
ATOM     53  C   UNL     1       3.753  -6.206  24.739  0.00  0.00    +0.190 C 
BRANCH  53  54
ATOM     54  O   UNL     1       4.422  -7.349  24.201  0.00  0.00    -0.392 OA
ATOM     55  H   UNL     1       4.534  -7.973  24.944  0.00  0.00    +0.210 HD
ENDBRANCH  53  54
ENDBRANCH  46  53
ENDBRANCH  40  41
ENDBRANCH  33  40
BRANCH  35  56
ATOM     56  C   UNL     1       6.050  -4.571  21.426  0.00  0.00    +0.190 C 
BRANCH  56  57
ATOM     57  O   UNL     1       5.539  -3.371  20.868  0.00  0.00    -0.392 OA
ATOM     58  H   UNL     1       5.538  -2.684  21.556  0.00  0.00    +0.210 HD
ENDBRANCH  56  57
ENDBRANCH  35  56
ENDBRANCH   1  30
TORSDOF 22
ENDMDL
MODEL 4
REMARK VINA RESULT:      -7.0      2.148      4.507
REMARK  Name = 
REMARK  23 active torsions:
REMARK  status: ('A' for Active; 'I' for Inactive)
REMARK    1  A    between atoms: C_1  and  C_2
REMARK    2  A    between atoms: C_5  and  O_7
REMARK    3  A    between atoms: O_7  and  C_8
REMARK    4  A    between atoms: C_10  and  C_12
REMARK    5  A    between atoms: C_12  and  O_13
REMARK    6  A    between atoms: C_15  and  O_17
REMARK    7  A    between atoms: O_17  and  C_18
REMARK    8  A    between atoms: C_20  and  C_22
REMARK    9  A    between atoms: C_22  and  O_23
REMARK   10  A    between atoms: C_25  and  O_27
REMARK   11  A    between atoms: C_28  and  O_30
REMARK   12  A    between atoms: C_31  and  O_33
REMARK   13  A    between atoms: C_34  and  O_36
REMARK   14  A    between atoms: C_37  and  O_39
REMARK   15  A    between atoms: C_40  and  O_42
REMARK   16  A    between atoms: C_43  and  O_45
REMARK   17  A    between atoms: C_46  and  N_48
REMARK   18  A    between atoms: N_48  and  C_49
REMARK   19  A    between atoms: C_52  and  C_53
REMARK   20  A    between atoms: C_53  and  O_54
REMARK   21  A    between atoms: C_55  and  O_57
REMARK   22  A    between atoms: C_58  and  O_60
REMARK   23  A    between atoms: C_61  and  O_63
REMARK                            x       y       z     vdW  Elec       q    Type
REMARK                         _______ _______ _______ _____ _____    ______ ____
ROOT
ATOM      1  O   UNL     1       8.730  -2.957  23.546  0.00  0.00    -0.340 OA
ENDROOT
BRANCH   1   7
ATOM      2  C   UNL     1       7.162  -0.762  26.934  0.00  0.00    +0.039 C 
ATOM      3  C   UNL     1       8.144  -0.217  25.892  0.00  0.00    +0.138 C 
ATOM      4  C   UNL     1       7.559   0.850  24.926  0.00  0.00    +0.114 C 
ATOM      5  C   UNL     1       6.644   0.164  23.871  0.00  0.00    +0.167 C 
ATOM      6  C   UNL     1       7.383  -0.973  23.144  0.00  0.00    +0.200 C 
ATOM      7  C   UNL     1       7.970  -1.926  24.195  0.00  0.00    +0.282 C 
ATOM      8  O   UNL     1       8.785  -1.273  25.164  0.00  0.00    -0.344 OA
BRANCH   6   9
ATOM      9  O   UNL     1       8.393  -0.456  22.276  0.00  0.00    -0.384 OA
ATOM     10  H   UNL     1       8.034  -0.472  21.366  0.00  0.00    +0.210 HD
ENDBRANCH   6   9
BRANCH   5  11
ATOM     11  O   UNL     1       5.424  -0.260  24.507  0.00  0.00    -0.387 OA
ATOM     12  H   UNL     1       4.848  -0.728  23.877  0.00  0.00    +0.210 HD
ENDBRANCH   5  11
BRANCH   4  13
ATOM     13  N   UNL     1       8.726   1.584  24.367  0.00  0.00    -0.300 NA
ATOM     14  H   UNL     1       9.185   0.975  23.673  0.00  0.00    +0.123 HD
BRANCH  13  15
ATOM     15  C   UNL     1       8.409   2.822  23.638  0.00  0.00    +0.109 C 
ATOM     16  C   UNL     1       9.584   3.247  22.717  0.00  0.00    +0.166 C 
ATOM     17  C   UNL     1      10.725   3.900  23.500  0.00  0.00    +0.177 C 
ATOM     18  C   UNL     1      10.242   5.069  24.383  0.00  0.00    +0.173 C 
ATOM     19  C   UNL     1       8.852   4.927  24.950  0.00  0.00    -0.016 C 
ATOM     20  C   UNL     1       8.050   3.895  24.620  0.00  0.00    -0.002 C 
BRANCH  18  21
ATOM     21  O   UNL     1      10.266   6.264  23.586  0.00  0.00    -0.385 OA
ATOM     22  H   UNL     1      10.411   6.995  24.216  0.00  0.00    +0.210 HD
ENDBRANCH  18  21
BRANCH  17  23
ATOM     23  O   UNL     1      11.701   4.378  22.545  0.00  0.00    -0.386 OA
ATOM     24  H   UNL     1      11.718   3.682  21.853  0.00  0.00    +0.210 HD
ENDBRANCH  17  23
BRANCH  16  25
ATOM     25  O   UNL     1      10.101   2.107  21.999  0.00  0.00    -0.387 OA
ATOM     26  H   UNL     1      11.039   2.038  22.266  0.00  0.00    +0.210 HD
ENDBRANCH  16  25
BRANCH  19  27
ATOM     27  C   UNL     1       8.389   5.981  25.907  0.00  0.00    +0.189 C 
BRANCH  27  28
ATOM     28  O   UNL     1       9.497   6.440  26.663  0.00  0.00    -0.391 OA
ATOM     29  H   UNL     1      10.103   5.683  26.750  0.00  0.00    +0.210 HD
ENDBRANCH  27  28
ENDBRANCH  19  27
ENDBRANCH  13  15
ENDBRANCH   4  13
ENDBRANCH   1   7
BRANCH   1  30
ATOM     30  C   UNL     1       8.341  -4.273  23.989  0.00  0.00    +0.183 C 
ATOM     31  C   UNL     1       8.221  -4.323  25.537  0.00  0.00    +0.179 C 
ATOM     32  C   UNL     1       7.578  -5.603  26.023  0.00  0.00    +0.201 C 
ATOM     33  C   UNL     1       6.295  -5.901  25.254  0.00  0.00    +0.282 C 
ATOM     34  O   UNL     1       6.524  -5.922  23.847  0.00  0.00    -0.341 OA
ATOM     35  C   UNL     1       6.999  -4.667  23.335  0.00  0.00    +0.178 C 
BRANCH  32  36
ATOM     36  O   UNL     1       7.356  -5.522  27.437  0.00  0.00    -0.384 OA
ATOM     37  H   UNL     1       6.655  -4.867  27.595  0.00  0.00    +0.210 HD
ENDBRANCH  32  36
BRANCH  31  38
ATOM     38  O   UNL     1       9.515  -4.265  26.170  0.00  0.00    -0.386 OA
ATOM     39  H   UNL     1       9.561  -4.989  26.819  0.00  0.00    +0.210 HD
ENDBRANCH  31  38
BRANCH  33  40
ATOM     40  O   UNL     1       5.233  -5.016  25.597  0.00  0.00    -0.340 OA
BRANCH  40  41
ATOM     41  C   UNL     1       3.927  -5.594  25.435  0.00  0.00    +0.183 C 
ATOM     42  C   UNL     1       3.609  -5.944  23.959  0.00  0.00    +0.179 C 
ATOM     43  C   UNL     1       2.315  -6.736  23.834  0.00  0.00    +0.201 C 
ATOM     44  C   UNL     1       2.282  -7.899  24.832  0.00  0.00    +0.279 C 
ATOM     45  O   UNL     1       2.524  -7.463  26.155  0.00  0.00    -0.341 OA
ATOM     46  C   UNL     1       3.832  -6.877  26.290  0.00  0.00    +0.178 C 
BRANCH  44  47
ATOM     47  O   UNL     1       0.991  -8.490  24.792  0.00  0.00    -0.365 OA
ATOM     48  H   UNL     1       1.116  -9.423  25.037  0.00  0.00    +0.213 HD
ENDBRANCH  44  47
BRANCH  43  49
ATOM     49  O   UNL     1       2.176  -7.211  22.488  0.00  0.00    -0.384 OA
ATOM     50  H   UNL     1       1.282  -7.583  22.409  0.00  0.00    +0.210 HD
ENDBRANCH  43  49
BRANCH  42  51
ATOM     51  O   UNL     1       3.466  -4.766  23.141  0.00  0.00    -0.386 OA
ATOM     52  H   UNL     1       4.066  -4.074  23.470  0.00  0.00    +0.210 HD
ENDBRANCH  42  51
BRANCH  46  53
ATOM     53  C   UNL     1       4.042  -6.603  27.786  0.00  0.00    +0.190 C 
BRANCH  53  54
ATOM     54  O   UNL     1       5.105  -7.420  28.283  0.00  0.00    -0.392 OA
ATOM     55  H   UNL     1       5.176  -7.222  29.238  0.00  0.00    +0.210 HD
ENDBRANCH  53  54
ENDBRANCH  46  53
ENDBRANCH  40  41
ENDBRANCH  33  40
BRANCH  35  56
ATOM     56  C   UNL     1       7.083  -4.837  21.804  0.00  0.00    +0.190 C 
BRANCH  56  57
ATOM     57  O   UNL     1       5.830  -4.904  21.143  0.00  0.00    -0.392 OA
ATOM     58  H   UNL     1       5.144  -4.561  21.742  0.00  0.00    +0.210 HD
ENDBRANCH  56  57
ENDBRANCH  35  56
ENDBRANCH   1  30
TORSDOF 22
ENDMDL
MODEL 5
REMARK VINA RESULT:      -6.8      1.121      2.328
REMARK  Name = 
REMARK  23 active torsions:
REMARK  status: ('A' for Active; 'I' for Inactive)
REMARK    1  A    between atoms: C_1  and  C_2
REMARK    2  A    between atoms: C_5  and  O_7
REMARK    3  A    between atoms: O_7  and  C_8
REMARK    4  A    between atoms: C_10  and  C_12
REMARK    5  A    between atoms: C_12  and  O_13
REMARK    6  A    between atoms: C_15  and  O_17
REMARK    7  A    between atoms: O_17  and  C_18
REMARK    8  A    between atoms: C_20  and  C_22
REMARK    9  A    between atoms: C_22  and  O_23
REMARK   10  A    between atoms: C_25  and  O_27
REMARK   11  A    between atoms: C_28  and  O_30
REMARK   12  A    between atoms: C_31  and  O_33
REMARK   13  A    between atoms: C_34  and  O_36
REMARK   14  A    between atoms: C_37  and  O_39
REMARK   15  A    between atoms: C_40  and  O_42
REMARK   16  A    between atoms: C_43  and  O_45
REMARK   17  A    between atoms: C_46  and  N_48
REMARK   18  A    between atoms: N_48  and  C_49
REMARK   19  A    between atoms: C_52  and  C_53
REMARK   20  A    between atoms: C_53  and  O_54
REMARK   21  A    between atoms: C_55  and  O_57
REMARK   22  A    between atoms: C_58  and  O_60
REMARK   23  A    between atoms: C_61  and  O_63
REMARK                            x       y       z     vdW  Elec       q    Type
REMARK                         _______ _______ _______ _____ _____    ______ ____
ROOT
ATOM      1  O   UNL     1       9.072  -1.038  23.792  0.00  0.00    -0.340 OA
ENDROOT
BRANCH   1   7
ATOM      2  C   UNL     1       7.508   2.266  21.470  0.00  0.00    +0.039 C 
ATOM      3  C   UNL     1       7.771   2.279  22.979  0.00  0.00    +0.138 C 
ATOM      4  C   UNL     1       8.967   3.161  23.435  0.00  0.00    +0.114 C 
ATOM      5  C   UNL     1      10.309   2.452  23.092  0.00  0.00    +0.167 C 
ATOM      6  C   UNL     1      10.352   1.026  23.669  0.00  0.00    +0.200 C 
ATOM      7  C   UNL     1       9.097   0.273  23.207  0.00  0.00    +0.282 C 
ATOM      8  O   UNL     1       7.881   0.951  23.510  0.00  0.00    -0.344 OA
BRANCH   6   9
ATOM      9  O   UNL     1      10.459   1.052  25.094  0.00  0.00    -0.384 OA
ATOM     10  H   UNL     1      11.318   0.650  25.331  0.00  0.00    +0.210 HD
ENDBRANCH   6   9
BRANCH   5  11
ATOM     11  O   UNL     1      10.520   2.501  21.670  0.00  0.00    -0.387 OA
ATOM     12  H   UNL     1      11.347   2.968  21.456  0.00  0.00    +0.210 HD
ENDBRANCH   5  11
BRANCH   4  13
ATOM     13  N   UNL     1       8.750   3.435  24.881  0.00  0.00    -0.300 NA
ATOM     14  H   UNL     1       9.185   4.343  25.104  0.00  0.00    +0.123 HD
BRANCH  13  15
ATOM     15  C   UNL     1       7.346   3.570  25.298  0.00  0.00    +0.109 C 
ATOM     16  C   UNL     1       6.931   5.064  25.395  0.00  0.00    +0.166 C 
ATOM     17  C   UNL     1       7.460   5.728  26.667  0.00  0.00    +0.177 C 
ATOM     18  C   UNL     1       7.084   4.948  27.944  0.00  0.00    +0.173 C 
ATOM     19  C   UNL     1       6.999   3.451  27.791  0.00  0.00    -0.016 C 
ATOM     20  C   UNL     1       7.144   2.847  26.594  0.00  0.00    -0.002 C 
BRANCH  18  21
ATOM     21  O   UNL     1       5.797   5.413  28.380  0.00  0.00    -0.385 OA
ATOM     22  H   UNL     1       5.981   6.089  29.060  0.00  0.00    +0.210 HD
ENDBRANCH  18  21
BRANCH  17  23
ATOM     23  O   UNL     1       6.912   7.065  26.730  0.00  0.00    -0.386 OA
ATOM     24  H   UNL     1       7.284   7.437  27.559  0.00  0.00    +0.210 HD
ENDBRANCH  17  23
BRANCH  16  25
ATOM     25  O   UNL     1       7.410   5.797  24.248  0.00  0.00    -0.387 OA
ATOM     26  H   UNL     1       8.161   5.273  23.904  0.00  0.00    +0.210 HD
ENDBRANCH  16  25
BRANCH  19  27
ATOM     27  C   UNL     1       6.753   2.647  29.030  0.00  0.00    +0.189 C 
BRANCH  27  28
ATOM     28  O   UNL     1       7.536   1.467  28.979  0.00  0.00    -0.391 OA
ATOM     29  H   UNL     1       6.959   0.741  29.278  0.00  0.00    +0.210 HD
ENDBRANCH  27  28
ENDBRANCH  19  27
ENDBRANCH  13  15
ENDBRANCH   4  13
ENDBRANCH   1   7
BRANCH   1  30
ATOM     30  C   UNL     1       7.783  -1.350  24.360  0.00  0.00    +0.183 C 
ATOM     31  C   UNL     1       6.884  -2.078  23.325  0.00  0.00    +0.179 C 
ATOM     32  C   UNL     1       5.628  -2.642  23.951  0.00  0.00    +0.201 C 
ATOM     33  C   UNL     1       5.949  -3.433  25.215  0.00  0.00    +0.282 C 
ATOM     34  O   UNL     1       6.699  -2.651  26.141  0.00  0.00    -0.341 OA
ATOM     35  C   UNL     1       7.968  -2.223  25.620  0.00  0.00    +0.178 C 
BRANCH  32  36
ATOM     36  O   UNL     1       4.921  -3.430  22.983  0.00  0.00    -0.384 OA
ATOM     37  H   UNL     1       4.541  -2.825  22.321  0.00  0.00    +0.210 HD
ENDBRANCH  32  36
BRANCH  31  38
ATOM     38  O   UNL     1       6.442  -1.183  22.285  0.00  0.00    -0.386 OA
ATOM     39  H   UNL     1       6.559  -0.272  22.608  0.00  0.00    +0.210 HD
ENDBRANCH  31  38
BRANCH  33  40
ATOM     40  O   UNL     1       6.592  -4.673  24.936  0.00  0.00    -0.340 OA
BRANCH  40  41
ATOM     41  C   UNL     1       6.274  -5.710  25.879  0.00  0.00    +0.183 C 
ATOM     42  C   UNL     1       6.625  -5.318  27.337  0.00  0.00    +0.179 C 
ATOM     43  C   UNL     1       6.098  -6.338  28.336  0.00  0.00    +0.201 C 
ATOM     44  C   UNL     1       4.628  -6.676  28.056  0.00  0.00    +0.279 C 
ATOM     45  O   UNL     1       4.428  -7.078  26.716  0.00  0.00    -0.341 OA
ATOM     46  C   UNL     1       4.765  -6.029  25.791  0.00  0.00    +0.178 C 
BRANCH  44  47
ATOM     47  O   UNL     1       4.245  -7.752  28.902  0.00  0.00    -0.365 OA
ATOM     48  H   UNL     1       4.328  -8.557  28.364  0.00  0.00    +0.213 HD
ENDBRANCH  44  47
BRANCH  43  49
ATOM     49  O   UNL     1       6.262  -5.830  29.667  0.00  0.00    -0.384 OA
ATOM     50  H   UNL     1       6.898  -6.410  30.117  0.00  0.00    +0.210 HD
ENDBRANCH  43  49
BRANCH  42  51
ATOM     51  O   UNL     1       8.047  -5.217  27.544  0.00  0.00    -0.386 OA
ATOM     52  H   UNL     1       8.508  -5.452  26.720  0.00  0.00    +0.210 HD
ENDBRANCH  42  51
BRANCH  46  53
ATOM     53  C   UNL     1       4.348  -6.518  24.396  0.00  0.00    +0.190 C 
BRANCH  53  54
ATOM     54  O   UNL     1       3.826  -7.846  24.485  0.00  0.00    -0.392 OA
ATOM     55  H   UNL     1       3.196  -7.841  25.232  0.00  0.00    +0.210 HD
ENDBRANCH  53  54
ENDBRANCH  46  53
ENDBRANCH  40  41
ENDBRANCH  33  40
BRANCH  35  56
ATOM     56  C   UNL     1       8.681  -1.497  26.779  0.00  0.00    +0.190 C 
BRANCH  56  57
ATOM     57  O   UNL     1       8.604  -0.081  26.730  0.00  0.00    -0.392 OA
ATOM     58  H   UNL     1       9.434   0.288  27.078  0.00  0.00    +0.210 HD
ENDBRANCH  56  57
ENDBRANCH  35  56
ENDBRANCH   1  30
TORSDOF 22
ENDMDL
MODEL 6
REMARK VINA RESULT:      -6.6      2.429      9.756
REMARK  Name = 
REMARK  23 active torsions:
REMARK  status: ('A' for Active; 'I' for Inactive)
REMARK    1  A    between atoms: C_1  and  C_2
REMARK    2  A    between atoms: C_5  and  O_7
REMARK    3  A    between atoms: O_7  and  C_8
REMARK    4  A    between atoms: C_10  and  C_12
REMARK    5  A    between atoms: C_12  and  O_13
REMARK    6  A    between atoms: C_15  and  O_17
REMARK    7  A    between atoms: O_17  and  C_18
REMARK    8  A    between atoms: C_20  and  C_22
REMARK    9  A    between atoms: C_22  and  O_23
REMARK   10  A    between atoms: C_25  and  O_27
REMARK   11  A    between atoms: C_28  and  O_30
REMARK   12  A    between atoms: C_31  and  O_33
REMARK   13  A    between atoms: C_34  and  O_36
REMARK   14  A    between atoms: C_37  and  O_39
REMARK   15  A    between atoms: C_40  and  O_42
REMARK   16  A    between atoms: C_43  and  O_45
REMARK   17  A    between atoms: C_46  and  N_48
REMARK   18  A    between atoms: N_48  and  C_49
REMARK   19  A    between atoms: C_52  and  C_53
REMARK   20  A    between atoms: C_53  and  O_54
REMARK   21  A    between atoms: C_55  and  O_57
REMARK   22  A    between atoms: C_58  and  O_60
REMARK   23  A    between atoms: C_61  and  O_63
REMARK                            x       y       z     vdW  Elec       q    Type
REMARK                         _______ _______ _______ _____ _____    ______ ____
ROOT
ATOM      1  O   UNL     1       7.559  -1.683  22.762  0.00  0.00    -0.340 OA
ENDROOT
BRANCH   1   7
ATOM      2  C   UNL     1       8.756  -5.459  24.512  0.00  0.00    +0.039 C 
ATOM      3  C   UNL     1       7.331  -4.897  24.485  0.00  0.00    +0.138 C 
ATOM      4  C   UNL     1       6.342  -5.642  23.545  0.00  0.00    +0.114 C 
ATOM      5  C   UNL     1       6.638  -5.269  22.064  0.00  0.00    +0.167 C 
ATOM      6  C   UNL     1       6.638  -3.744  21.860  0.00  0.00    +0.200 C 
ATOM      7  C   UNL     1       7.597  -3.113  22.879  0.00  0.00    +0.282 C 
ATOM      8  O   UNL     1       7.322  -3.486  24.227  0.00  0.00    -0.344 OA
BRANCH   6   9
ATOM      9  O   UNL     1       5.317  -3.211  21.975  0.00  0.00    -0.384 OA
ATOM     10  H   UNL     1       5.400  -2.280  22.264  0.00  0.00    +0.210 HD
ENDBRANCH   6   9
BRANCH   5  11
ATOM     11  O   UNL     1       7.864  -5.902  21.652  0.00  0.00    -0.387 OA
ATOM     12  H   UNL     1       8.275  -5.418  20.915  0.00  0.00    +0.210 HD
ENDBRANCH   5  11
BRANCH   4  13
ATOM     13  N   UNL     1       4.978  -5.294  24.023  0.00  0.00    -0.300 NA
ATOM     14  H   UNL     1       4.452  -4.898  23.229  0.00  0.00    +0.123 HD
BRANCH  13  15
ATOM     15  C   UNL     1       4.163  -6.423  24.497  0.00  0.00    +0.109 C 
ATOM     16  C   UNL     1       2.648  -6.141  24.305  0.00  0.00    +0.166 C 
ATOM     17  C   UNL     1       2.098  -5.189  25.369  0.00  0.00    +0.177 C 
ATOM     18  C   UNL     1       2.413  -5.659  26.804  0.00  0.00    +0.173 C 
ATOM     19  C   UNL     1       3.716  -6.397  26.977  0.00  0.00    -0.016 C 
ATOM     20  C   UNL     1       4.503  -6.711  25.927  0.00  0.00    -0.002 C 
BRANCH  18  21
ATOM     21  O   UNL     1       1.357  -6.541  27.220  0.00  0.00    -0.385 OA
ATOM     22  H   UNL     1       0.681  -5.964  27.624  0.00  0.00    +0.210 HD
ENDBRANCH  18  21
BRANCH  17  23
ATOM     23  O   UNL     1       0.666  -5.098  25.186  0.00  0.00    -0.386 OA
ATOM     24  H   UNL     1       0.557  -4.402  24.502  0.00  0.00    +0.210 HD
ENDBRANCH  17  23
BRANCH  16  25
ATOM     25  O   UNL     1       2.400  -5.579  22.999  0.00  0.00    -0.387 OA
ATOM     26  H   UNL     1       1.430  -5.467  22.947  0.00  0.00    +0.210 HD
ENDBRANCH  16  25
BRANCH  19  27
ATOM     27  C   UNL     1       4.117  -6.767  28.371  0.00  0.00    +0.189 C 
BRANCH  27  28
ATOM     28  O   UNL     1       5.318  -7.517  28.325  0.00  0.00    -0.391 OA
ATOM     29  H   UNL     1       5.319  -8.083  29.117  0.00  0.00    +0.210 HD
ENDBRANCH  27  28
ENDBRANCH  19  27
ENDBRANCH  13  15
ENDBRANCH   4  13
ENDBRANCH   1   7
BRANCH   1  30
ATOM     30  C   UNL     1       8.116  -1.032  23.923  0.00  0.00    +0.183 C 
ATOM     31  C   UNL     1       9.631  -0.753  23.726  0.00  0.00    +0.179 C 
ATOM     32  C   UNL     1      10.195   0.144  24.806  0.00  0.00    +0.201 C 
ATOM     33  C   UNL     1       9.320   1.377  25.010  0.00  0.00    +0.282 C 
ATOM     34  O   UNL     1       7.966   1.017  25.272  0.00  0.00    -0.341 OA
ATOM     35  C   UNL     1       7.359   0.285  24.194  0.00  0.00    +0.178 C 
BRANCH  32  36
ATOM     36  O   UNL     1      11.550   0.488  24.485  0.00  0.00    -0.384 OA
ATOM     37  H   UNL     1      11.557   0.891  23.599  0.00  0.00    +0.210 HD
ENDBRANCH  32  36
BRANCH  31  38
ATOM     38  O   UNL     1      10.405  -1.969  23.778  0.00  0.00    -0.386 OA
ATOM     39  H   UNL     1      11.181  -1.803  24.342  0.00  0.00    +0.210 HD
ENDBRANCH  31  38
BRANCH  33  40
ATOM     40  O   UNL     1       9.415   2.301  23.930  0.00  0.00    -0.340 OA
BRANCH  40  41
ATOM     41  C   UNL     1       8.226   3.085  23.737  0.00  0.00    +0.183 C 
ATOM     42  C   UNL     1       8.312   4.474  24.416  0.00  0.00    +0.179 C 
ATOM     43  C   UNL     1       7.136   5.362  24.032  0.00  0.00    +0.201 C 
ATOM     44  C   UNL     1       6.914   5.358  22.515  0.00  0.00    +0.279 C 
ATOM     45  O   UNL     1       6.789   4.045  22.007  0.00  0.00    -0.341 OA
ATOM     46  C   UNL     1       7.986   3.276  22.223  0.00  0.00    +0.178 C 
BRANCH  44  47
ATOM     47  O   UNL     1       5.709   6.057  22.235  0.00  0.00    -0.365 OA
ATOM     48  H   UNL     1       5.682   6.804  22.857  0.00  0.00    +0.213 HD
ENDBRANCH  44  47
BRANCH  43  49
ATOM     49  O   UNL     1       7.368   6.694  24.513  0.00  0.00    -0.384 OA
ATOM     50  H   UNL     1       6.627   6.918  25.098  0.00  0.00    +0.210 HD
ENDBRANCH  43  49
BRANCH  42  51
ATOM     51  O   UNL     1       8.318   4.376  25.853  0.00  0.00    -0.386 OA
ATOM     52  H   UNL     1       8.858   3.612  26.120  0.00  0.00    +0.210 HD
ENDBRANCH  42  51
BRANCH  46  53
ATOM     53  C   UNL     1       7.795   1.943  21.485  0.00  0.00    +0.190 C 
BRANCH  53  54
ATOM     54  O   UNL     1       9.068   1.410  21.110  0.00  0.00    -0.392 OA
ATOM     55  H   UNL     1       8.965   0.438  21.104  0.00  0.00    +0.210 HD
ENDBRANCH  53  54
ENDBRANCH  46  53
ENDBRANCH  40  41
ENDBRANCH  33  40
BRANCH  35  56
ATOM     56  C   UNL     1       5.884   0.080  24.598  0.00  0.00    +0.190 C 
BRANCH  56  57
ATOM     57  O   UNL     1       5.359  -1.204  24.300  0.00  0.00    -0.392 OA
ATOM     58  H   UNL     1       4.857  -1.151  23.469  0.00  0.00    +0.210 HD
ENDBRANCH  56  57
ENDBRANCH  35  56
ENDBRANCH   1  30
TORSDOF 22
ENDMDL
MODEL 7
REMARK VINA RESULT:      -6.5      1.957      3.724
REMARK  Name = 
REMARK  23 active torsions:
REMARK  status: ('A' for Active; 'I' for Inactive)
REMARK    1  A    between atoms: C_1  and  C_2
REMARK    2  A    between atoms: C_5  and  O_7
REMARK    3  A    between atoms: O_7  and  C_8
REMARK    4  A    between atoms: C_10  and  C_12
REMARK    5  A    between atoms: C_12  and  O_13
REMARK    6  A    between atoms: C_15  and  O_17
REMARK    7  A    between atoms: O_17  and  C_18
REMARK    8  A    between atoms: C_20  and  C_22
REMARK    9  A    between atoms: C_22  and  O_23
REMARK   10  A    between atoms: C_25  and  O_27
REMARK   11  A    between atoms: C_28  and  O_30
REMARK   12  A    between atoms: C_31  and  O_33
REMARK   13  A    between atoms: C_34  and  O_36
REMARK   14  A    between atoms: C_37  and  O_39
REMARK   15  A    between atoms: C_40  and  O_42
REMARK   16  A    between atoms: C_43  and  O_45
REMARK   17  A    between atoms: C_46  and  N_48
REMARK   18  A    between atoms: N_48  and  C_49
REMARK   19  A    between atoms: C_52  and  C_53
REMARK   20  A    between atoms: C_53  and  O_54
REMARK   21  A    between atoms: C_55  and  O_57
REMARK   22  A    between atoms: C_58  and  O_60
REMARK   23  A    between atoms: C_61  and  O_63
REMARK                            x       y       z     vdW  Elec       q    Type
REMARK                         _______ _______ _______ _____ _____    ______ ____
ROOT
ATOM      1  O   UNL     1       8.198  -2.562  22.710  0.00  0.00    -0.340 OA
ENDROOT
BRANCH   1   7
ATOM      2  C   UNL     1      10.836   0.124  24.850  0.00  0.00    +0.039 C 
ATOM      3  C   UNL     1       9.651   0.543  23.974  0.00  0.00    +0.138 C 
ATOM      4  C   UNL     1       8.431   1.123  24.743  0.00  0.00    +0.114 C 
ATOM      5  C   UNL     1       7.652  -0.027  25.444  0.00  0.00    +0.167 C 
ATOM      6  C   UNL     1       7.270  -1.134  24.445  0.00  0.00    +0.200 C 
ATOM      7  C   UNL     1       8.537  -1.583  23.703  0.00  0.00    +0.282 C 
ATOM      8  O   UNL     1       9.247  -0.511  23.089  0.00  0.00    -0.344 OA
BRANCH   6   9
ATOM      9  O   UNL     1       6.259  -0.683  23.541  0.00  0.00    -0.384 OA
ATOM     10  H   UNL     1       5.408  -1.061  23.841  0.00  0.00    +0.210 HD
ENDBRANCH   6   9
BRANCH   5  11
ATOM     11  O   UNL     1       8.420  -0.506  26.563  0.00  0.00    -0.387 OA
ATOM     12  H   UNL     1       7.871  -0.558  27.365  0.00  0.00    +0.210 HD
ENDBRANCH   5  11
BRANCH   4  13
ATOM     13  N   UNL     1       7.648   1.900  23.746  0.00  0.00    -0.300 NA
ATOM     14  H   UNL     1       6.913   1.285  23.366  0.00  0.00    +0.123 HD
BRANCH  13  15
ATOM     15  C   UNL     1       6.931   3.071  24.274  0.00  0.00    +0.109 C 
ATOM     16  C   UNL     1       5.479   3.135  23.725  0.00  0.00    +0.166 C 
ATOM     17  C   UNL     1       5.430   3.649  22.285  0.00  0.00    +0.177 C 
ATOM     18  C   UNL     1       6.165   4.994  22.110  0.00  0.00    +0.173 C 
ATOM     19  C   UNL     1       7.364   5.201  22.999  0.00  0.00    -0.016 C 
ATOM     20  C   UNL     1       7.707   4.311  23.954  0.00  0.00    -0.002 C 
BRANCH  18  21
ATOM     21  O   UNL     1       5.229   6.047  22.392  0.00  0.00    -0.385 OA
ATOM     22  H   UNL     1       4.347   5.633  22.336  0.00  0.00    +0.210 HD
ENDBRANCH  18  21
BRANCH  17  23
ATOM     23  O   UNL     1       4.039   3.799  21.915  0.00  0.00    -0.386 OA
ATOM     24  H   UNL     1       3.567   3.175  22.508  0.00  0.00    +0.210 HD
ENDBRANCH  17  23
BRANCH  16  25
ATOM     25  O   UNL     1       4.861   1.833  23.780  0.00  0.00    -0.387 OA
ATOM     26  H   UNL     1       3.920   1.985  23.558  0.00  0.00    +0.210 HD
ENDBRANCH  16  25
BRANCH  19  27
ATOM     27  C   UNL     1       8.176   6.440  22.781  0.00  0.00    +0.189 C 
BRANCH  27  28
ATOM     28  O   UNL     1       9.546   6.138  22.980  0.00  0.00    -0.391 OA
ATOM     29  H   UNL     1      10.031   6.975  22.869  0.00  0.00    +0.210 HD
ENDBRANCH  27  28
ENDBRANCH  19  27
ENDBRANCH  13  15
ENDBRANCH   4  13
ENDBRANCH   1   7
BRANCH   1  30
ATOM     30  C   UNL     1       7.940  -3.856  23.296  0.00  0.00    +0.183 C 
ATOM     31  C   UNL     1       8.673  -4.003  24.657  0.00  0.00    +0.179 C 
ATOM     32  C   UNL     1       8.232  -5.234  25.417  0.00  0.00    +0.201 C 
ATOM     33  C   UNL     1       6.711  -5.329  25.476  0.00  0.00    +0.282 C 
ATOM     34  O   UNL     1       6.135  -5.275  24.173  0.00  0.00    -0.341 OA
ATOM     35  C   UNL     1       6.419  -4.047  23.482  0.00  0.00    +0.178 C 
BRANCH  32  36
ATOM     36  O   UNL     1       8.826  -5.231  26.722  0.00  0.00    -0.384 OA
ATOM     37  H   UNL     1       9.793  -5.259  26.614  0.00  0.00    +0.210 HD
ENDBRANCH  32  36
BRANCH  31  38
ATOM     38  O   UNL     1      10.098  -4.136  24.479  0.00  0.00    -0.386 OA
ATOM     39  H   UNL     1      10.411  -3.352  23.993  0.00  0.00    +0.210 HD
ENDBRANCH  31  38
BRANCH  33  40
ATOM     40  O   UNL     1       6.134  -4.357  26.343  0.00  0.00    -0.340 OA
BRANCH  40  41
ATOM     41  C   UNL     1       4.874  -4.762  26.903  0.00  0.00    +0.183 C 
ATOM     42  C   UNL     1       3.795  -5.015  25.821  0.00  0.00    +0.179 C 
ATOM     43  C   UNL     1       2.537  -5.634  26.414  0.00  0.00    +0.201 C 
ATOM     44  C   UNL     1       2.882  -6.820  27.323  0.00  0.00    +0.279 C 
ATOM     45  O   UNL     1       3.829  -6.466  28.311  0.00  0.00    -0.341 OA
ATOM     46  C   UNL     1       5.077  -6.053  27.726  0.00  0.00    +0.178 C 
BRANCH  44  47
ATOM     47  O   UNL     1       1.695  -7.244  27.980  0.00  0.00    -0.365 OA
ATOM     48  H   UNL     1       0.972  -6.726  27.586  0.00  0.00    +0.213 HD
ENDBRANCH  44  47
BRANCH  43  49
ATOM     49  O   UNL     1       1.660  -6.038  25.354  0.00  0.00    -0.384 OA
ATOM     50  H   UNL     1       1.598  -7.007  25.390  0.00  0.00    +0.210 HD
ENDBRANCH  43  49
BRANCH  42  51
ATOM     51  O   UNL     1       3.397  -3.800  25.157  0.00  0.00    -0.386 OA
ATOM     52  H   UNL     1       2.483  -3.582  25.410  0.00  0.00    +0.210 HD
ENDBRANCH  42  51
BRANCH  46  53
ATOM     53  C   UNL     1       6.067  -5.862  28.884  0.00  0.00    +0.190 C 
BRANCH  53  54
ATOM     54  O   UNL     1       7.216  -6.688  28.680  0.00  0.00    -0.392 OA
ATOM     55  H   UNL     1       7.287  -7.256  29.473  0.00  0.00    +0.210 HD
ENDBRANCH  53  54
ENDBRANCH  46  53
ENDBRANCH  40  41
ENDBRANCH  33  40
BRANCH  35  56
ATOM     56  C   UNL     1       5.636  -4.115  22.155  0.00  0.00    +0.190 C 
BRANCH  56  57
ATOM     57  O   UNL     1       5.338  -2.855  21.575  0.00  0.00    -0.392 OA
ATOM     58  H   UNL     1       4.811  -2.338  22.208  0.00  0.00    +0.210 HD
ENDBRANCH  56  57
ENDBRANCH  35  56
ENDBRANCH   1  30
TORSDOF 22
ENDMDL
MODEL 8
REMARK VINA RESULT:      -6.5      1.674      2.951
REMARK  Name = 
REMARK  23 active torsions:
REMARK  status: ('A' for Active; 'I' for Inactive)
REMARK    1  A    between atoms: C_1  and  C_2
REMARK    2  A    between atoms: C_5  and  O_7
REMARK    3  A    between atoms: O_7  and  C_8
REMARK    4  A    between atoms: C_10  and  C_12
REMARK    5  A    between atoms: C_12  and  O_13
REMARK    6  A    between atoms: C_15  and  O_17
REMARK    7  A    between atoms: O_17  and  C_18
REMARK    8  A    between atoms: C_20  and  C_22
REMARK    9  A    between atoms: C_22  and  O_23
REMARK   10  A    between atoms: C_25  and  O_27
REMARK   11  A    between atoms: C_28  and  O_30
REMARK   12  A    between atoms: C_31  and  O_33
REMARK   13  A    between atoms: C_34  and  O_36
REMARK   14  A    between atoms: C_37  and  O_39
REMARK   15  A    between atoms: C_40  and  O_42
REMARK   16  A    between atoms: C_43  and  O_45
REMARK   17  A    between atoms: C_46  and  N_48
REMARK   18  A    between atoms: N_48  and  C_49
REMARK   19  A    between atoms: C_52  and  C_53
REMARK   20  A    between atoms: C_53  and  O_54
REMARK   21  A    between atoms: C_55  and  O_57
REMARK   22  A    between atoms: C_58  and  O_60
REMARK   23  A    between atoms: C_61  and  O_63
REMARK                            x       y       z     vdW  Elec       q    Type
REMARK                         _______ _______ _______ _____ _____    ______ ____
ROOT
ATOM      1  O   UNL     1       7.916  -1.977  24.959  0.00  0.00    -0.340 OA
ENDROOT
BRANCH   1   7
ATOM      2  C   UNL     1       9.432   0.207  21.542  0.00  0.00    +0.039 C 
ATOM      3  C   UNL     1       8.552   0.786  22.654  0.00  0.00    +0.138 C 
ATOM      4  C   UNL     1       9.263   1.782  23.611  0.00  0.00    +0.114 C 
ATOM      5  C   UNL     1      10.189   1.005  24.592  0.00  0.00    +0.167 C 
ATOM      6  C   UNL     1       9.416  -0.101  25.332  0.00  0.00    +0.200 C 
ATOM      7  C   UNL     1       8.706  -0.981  24.293  0.00  0.00    +0.282 C 
ATOM      8  O   UNL     1       7.883  -0.247  23.391  0.00  0.00    -0.344 OA
BRANCH   6   9
ATOM      9  O   UNL     1       8.495   0.456  26.271  0.00  0.00    -0.384 OA
ATOM     10  H   UNL     1       9.011   1.000  26.900  0.00  0.00    +0.210 HD
ENDBRANCH   6   9
BRANCH   5  11
ATOM     11  O   UNL     1      11.337   0.520  23.874  0.00  0.00    -0.387 OA
ATOM     12  H   UNL     1      11.658  -0.317  24.255  0.00  0.00    +0.210 HD
ENDBRANCH   5  11
BRANCH   4  13
ATOM     13  N   UNL     1       8.184   2.575  24.257  0.00  0.00    -0.300 NA
ATOM     14  H   UNL     1       7.833   2.040  25.065  0.00  0.00    +0.123 HD
BRANCH  13  15
ATOM     15  C   UNL     1       8.593   3.876  24.809  0.00  0.00    +0.109 C 
ATOM     16  C   UNL     1       7.778   4.227  26.083  0.00  0.00    +0.166 C 
ATOM     17  C   UNL     1       6.368   4.718  25.749  0.00  0.00    +0.177 C 
ATOM     18  C   UNL     1       6.371   5.881  24.736  0.00  0.00    +0.173 C 
ATOM     19  C   UNL     1       7.478   5.853  23.714  0.00  0.00    -0.016 C 
ATOM     20  C   UNL     1       8.458   4.926  23.749  0.00  0.00    -0.002 C 
BRANCH  18  21
ATOM     21  O   UNL     1       6.493   7.108  25.475  0.00  0.00    -0.385 OA
ATOM     22  H   UNL     1       7.150   7.640  24.987  0.00  0.00    +0.210 HD
ENDBRANCH  18  21
BRANCH  17  23
ATOM     23  O   UNL     1       5.743   5.143  26.983  0.00  0.00    -0.386 OA
ATOM     24  H   UNL     1       6.398   5.755  27.383  0.00  0.00    +0.210 HD
ENDBRANCH  17  23
BRANCH  16  25
ATOM     25  O   UNL     1       7.682   3.079  26.953  0.00  0.00    -0.387 OA
ATOM     26  H   UNL     1       8.542   2.622  26.871  0.00  0.00    +0.210 HD
ENDBRANCH  16  25
BRANCH  19  27
ATOM     27  C   UNL     1       7.450   6.896  22.641  0.00  0.00    +0.189 C 
BRANCH  27  28
ATOM     28  O   UNL     1       7.489   6.260  21.375  0.00  0.00    -0.391 OA
ATOM     29  H   UNL     1       8.069   6.805  20.813  0.00  0.00    +0.210 HD
ENDBRANCH  27  28
ENDBRANCH  19  27
ENDBRANCH  13  15
ENDBRANCH   4  13
ENDBRANCH   1   7
BRANCH   1  30
ATOM     30  C   UNL     1       6.621  -2.138  24.343  0.00  0.00    +0.183 C 
ATOM     31  C   UNL     1       6.660  -3.244  23.254  0.00  0.00    +0.179 C 
ATOM     32  C   UNL     1       5.279  -3.616  22.762  0.00  0.00    +0.201 C 
ATOM     33  C   UNL     1       4.330  -3.874  23.928  0.00  0.00    +0.282 C 
ATOM     34  O   UNL     1       4.295  -2.768  24.826  0.00  0.00    -0.341 OA
ATOM     35  C   UNL     1       5.571  -2.484  25.421  0.00  0.00    +0.178 C 
BRANCH  32  36
ATOM     36  O   UNL     1       5.371  -4.741  21.878  0.00  0.00    -0.384 OA
ATOM     37  H   UNL     1       6.172  -5.242  22.110  0.00  0.00    +0.210 HD
ENDBRANCH  32  36
BRANCH  31  38
ATOM     38  O   UNL     1       7.393  -2.814  22.089  0.00  0.00    -0.386 OA
ATOM     39  H   UNL     1       7.135  -1.895  21.898  0.00  0.00    +0.210 HD
ENDBRANCH  31  38
BRANCH  33  40
ATOM     40  O   UNL     1       4.620  -5.091  24.610  0.00  0.00    -0.340 OA
BRANCH  40  41
ATOM     41  C   UNL     1       3.465  -5.918  24.827  0.00  0.00    +0.183 C 
ATOM     42  C   UNL     1       2.938  -6.561  23.519  0.00  0.00    +0.179 C 
ATOM     43  C   UNL     1       1.848  -7.587  23.796  0.00  0.00    +0.201 C 
ATOM     44  C   UNL     1       2.271  -8.554  24.908  0.00  0.00    +0.279 C 
ATOM     45  O   UNL     1       2.675  -7.867  26.075  0.00  0.00    -0.341 OA
ATOM     46  C   UNL     1       3.824  -7.036  25.831  0.00  0.00    +0.178 C 
BRANCH  44  47
ATOM     47  O   UNL     1       1.156  -9.371  25.240  0.00  0.00    -0.365 OA
ATOM     48  H   UNL     1       1.483 -10.287  25.222  0.00  0.00    +0.213 HD
ENDBRANCH  44  47
BRANCH  43  49
ATOM     49  O   UNL     1       1.546  -8.297  22.587  0.00  0.00    -0.384 OA
ATOM     50  H   UNL     1       2.385  -8.643  22.242  0.00  0.00    +0.210 HD
ENDBRANCH  43  49
BRANCH  42  51
ATOM     51  O   UNL     1       2.382  -5.583  22.620  0.00  0.00    -0.386 OA
ATOM     52  H   UNL     1       3.078  -5.269  22.017  0.00  0.00    +0.210 HD
ENDBRANCH  42  51
BRANCH  46  53
ATOM     53  C   UNL     1       4.268  -6.483  27.193  0.00  0.00    +0.190 C 
BRANCH  53  54
ATOM     54  O   UNL     1       5.030  -7.471  27.891  0.00  0.00    -0.392 OA
ATOM     55  H   UNL     1       4.408  -8.193  28.106  0.00  0.00    +0.210 HD
ENDBRANCH  53  54
ENDBRANCH  46  53
ENDBRANCH  40  41
ENDBRANCH  33  40
BRANCH  35  56
ATOM     56  C   UNL     1       5.325  -1.345  26.433  0.00  0.00    +0.190 C 
BRANCH  56  57
ATOM     57  O   UNL     1       6.446  -1.010  27.235  0.00  0.00    -0.392 OA
ATOM     58  H   UNL     1       7.256  -1.185  26.726  0.00  0.00    +0.210 HD
ENDBRANCH  56  57
ENDBRANCH  35  56
ENDBRANCH   1  30
TORSDOF 22
ENDMDL
MODEL 9
REMARK VINA RESULT:      -6.4      2.649      9.235
REMARK  Name = 
REMARK  23 active torsions:
REMARK  status: ('A' for Active; 'I' for Inactive)
REMARK    1  A    between atoms: C_1  and  C_2
REMARK    2  A    between atoms: C_5  and  O_7
REMARK    3  A    between atoms: O_7  and  C_8
REMARK    4  A    between atoms: C_10  and  C_12
REMARK    5  A    between atoms: C_12  and  O_13
REMARK    6  A    between atoms: C_15  and  O_17
REMARK    7  A    between atoms: O_17  and  C_18
REMARK    8  A    between atoms: C_20  and  C_22
REMARK    9  A    between atoms: C_22  and  O_23
REMARK   10  A    between atoms: C_25  and  O_27
REMARK   11  A    between atoms: C_28  and  O_30
REMARK   12  A    between atoms: C_31  and  O_33
REMARK   13  A    between atoms: C_34  and  O_36
REMARK   14  A    between atoms: C_37  and  O_39
REMARK   15  A    between atoms: C_40  and  O_42
REMARK   16  A    between atoms: C_43  and  O_45
REMARK   17  A    between atoms: C_46  and  N_48
REMARK   18  A    between atoms: N_48  and  C_49
REMARK   19  A    between atoms: C_52  and  C_53
REMARK   20  A    between atoms: C_53  and  O_54
REMARK   21  A    between atoms: C_55  and  O_57
REMARK   22  A    between atoms: C_58  and  O_60
REMARK   23  A    between atoms: C_61  and  O_63
REMARK                            x       y       z     vdW  Elec       q    Type
REMARK                         _______ _______ _______ _____ _____    ______ ____
ROOT
ATOM      1  O   UNL     1       9.338  -2.498  23.617  0.00  0.00    -0.340 OA
ENDROOT
BRANCH   1   7
ATOM      2  C   UNL     1       5.349  -2.088  25.253  0.00  0.00    +0.039 C 
ATOM      3  C   UNL     1       5.850  -3.258  24.400  0.00  0.00    +0.138 C 
ATOM      4  C   UNL     1       6.027  -4.603  25.159  0.00  0.00    +0.114 C 
ATOM      5  C   UNL     1       7.308  -4.549  26.040  0.00  0.00    +0.167 C 
ATOM      6  C   UNL     1       8.542  -4.153  25.210  0.00  0.00    +0.200 C 
ATOM      7  C   UNL     1       8.230  -2.851  24.459  0.00  0.00    +0.282 C 
ATOM      8  O   UNL     1       7.041  -2.915  23.677  0.00  0.00    -0.344 OA
BRANCH   6   9
ATOM      9  O   UNL     1       8.918  -5.203  24.317  0.00  0.00    -0.384 OA
ATOM     10  H   UNL     1       9.590  -5.749  24.771  0.00  0.00    +0.210 HD
ENDBRANCH   6   9
BRANCH   5  11
ATOM     11  O   UNL     1       7.072  -3.683  27.165  0.00  0.00    -0.387 OA
ATOM     12  H   UNL     1       7.817  -3.070  27.295  0.00  0.00    +0.210 HD
ENDBRANCH   5  11
BRANCH   4  13
ATOM     13  N   UNL     1       6.021  -5.666  24.119  0.00  0.00    -0.300 NA
ATOM     14  H   UNL     1       6.916  -6.175  24.176  0.00  0.00    +0.123 HD
BRANCH  13  15
ATOM     15  C   UNL     1       4.984  -6.698  24.271  0.00  0.00    +0.109 C 
ATOM     16  C   UNL     1       3.812  -6.466  23.278  0.00  0.00    +0.166 C 
ATOM     17  C   UNL     1       2.880  -5.343  23.736  0.00  0.00    +0.177 C 
ATOM     18  C   UNL     1       2.373  -5.547  25.179  0.00  0.00    +0.173 C 
ATOM     19  C   UNL     1       3.333  -6.232  26.117  0.00  0.00    -0.016 C 
ATOM     20  C   UNL     1       4.516  -6.723  25.694  0.00  0.00    -0.002 C 
BRANCH  18  21
ATOM     21  O   UNL     1       1.181  -6.348  25.117  0.00  0.00    -0.385 OA
ATOM     22  H   UNL     1       0.636  -5.949  24.412  0.00  0.00    +0.210 HD
ENDBRANCH  18  21
BRANCH  17  23
ATOM     23  O   UNL     1       1.759  -5.298  22.824  0.00  0.00    -0.386 OA
ATOM     24  H   UNL     1       1.024  -5.708  23.329  0.00  0.00    +0.210 HD
ENDBRANCH  17  23
BRANCH  16  25
ATOM     25  O   UNL     1       4.319  -6.149  21.964  0.00  0.00    -0.387 OA
ATOM     26  H   UNL     1       5.236  -6.488  21.954  0.00  0.00    +0.210 HD
ENDBRANCH  16  25
BRANCH  19  27
ATOM     27  C   UNL     1       2.929  -6.343  27.554  0.00  0.00    +0.189 C 
BRANCH  27  28
ATOM     28  O   UNL     1       2.214  -7.553  27.742  0.00  0.00    -0.391 OA
ATOM     29  H   UNL     1       1.431  -7.501  27.165  0.00  0.00    +0.210 HD
ENDBRANCH  27  28
ENDBRANCH  19  27
ENDBRANCH  13  15
ENDBRANCH   4  13
ENDBRANCH   1   7
BRANCH   1  30
ATOM     30  C   UNL     1       9.537  -1.070  23.559  0.00  0.00    +0.183 C 
ATOM     31  C   UNL     1       9.055  -0.499  22.198  0.00  0.00    +0.179 C 
ATOM     32  C   UNL     1       9.014   1.013  22.191  0.00  0.00    +0.201 C 
ATOM     33  C   UNL     1       8.290   1.549  23.422  0.00  0.00    +0.282 C 
ATOM     34  O   UNL     1       8.861   1.039  24.624  0.00  0.00    -0.341 OA
ATOM     35  C   UNL     1       8.781  -0.393  24.723  0.00  0.00    +0.178 C 
BRANCH  32  36
ATOM     36  O   UNL     1       8.418   1.471  20.970  0.00  0.00    -0.384 OA
ATOM     37  H   UNL     1       8.570   2.430  20.902  0.00  0.00    +0.210 HD
ENDBRANCH  32  36
BRANCH  31  38
ATOM     38  O   UNL     1       9.939  -0.876  21.123  0.00  0.00    -0.386 OA
ATOM     39  H   UNL     1       9.390  -1.096  20.350  0.00  0.00    +0.210 HD
ENDBRANCH  31  38
BRANCH  33  40
ATOM     40  O   UNL     1       6.885   1.323  23.374  0.00  0.00    -0.340 OA
BRANCH  40  41
ATOM     41  C   UNL     1       6.104   2.474  23.735  0.00  0.00    +0.183 C 
ATOM     42  C   UNL     1       5.444   3.155  22.510  0.00  0.00    +0.179 C 
ATOM     43  C   UNL     1       4.464   4.242  22.930  0.00  0.00    +0.201 C 
ATOM     44  C   UNL     1       3.514   3.735  24.021  0.00  0.00    +0.279 C 
ATOM     45  O   UNL     1       4.218   3.188  25.118  0.00  0.00    -0.341 OA
ATOM     46  C   UNL     1       5.002   2.046  24.730  0.00  0.00    +0.178 C 
BRANCH  44  47
ATOM     47  O   UNL     1       2.744   4.833  24.493  0.00  0.00    -0.365 OA
ATOM     48  H   UNL     1       2.148   4.470  25.170  0.00  0.00    +0.213 HD
ENDBRANCH  44  47
BRANCH  43  49
ATOM     49  O   UNL     1       3.732   4.692  21.782  0.00  0.00    -0.384 OA
ATOM     50  H   UNL     1       2.940   4.135  21.713  0.00  0.00    +0.210 HD
ENDBRANCH  43  49
BRANCH  42  51
ATOM     51  O   UNL     1       6.416   3.773  21.644  0.00  0.00    -0.386 OA
ATOM     52  H   UNL     1       7.309   3.599  21.990  0.00  0.00    +0.210 HD
ENDBRANCH  42  51
BRANCH  46  53
ATOM     53  C   UNL     1       5.576   1.444  26.020  0.00  0.00    +0.190 C 
BRANCH  53  54
ATOM     54  O   UNL     1       6.800   2.101  26.358  0.00  0.00    -0.392 OA
ATOM     55  H   UNL     1       6.550   2.891  26.876  0.00  0.00    +0.210 HD
ENDBRANCH  53  54
ENDBRANCH  46  53
ENDBRANCH  40  41
ENDBRANCH  33  40
BRANCH  35  56
ATOM     56  C   UNL     1       9.336  -0.755  26.116  0.00  0.00    +0.190 C 
BRANCH  56  57
ATOM     57  O   UNL     1       8.613  -0.205  27.205  0.00  0.00    -0.392 OA
ATOM     58  H   UNL     1       8.029   0.496  26.868  0.00  0.00    +0.210 HD
ENDBRANCH  56  57
ENDBRANCH  35  56
ENDBRANCH   1  30
TORSDOF 22
ENDMDL
