MODEL 1
REMARK VINA RESULT:      -1.2      0.000      0.000
REMARK  Name = 
REMARK  45 active torsions:
REMARK  status: ('A' for Active; 'I' for Inactive)
REMARK    1  A    between atoms: C_1  and  O_2
REMARK    2  A    between atoms: O_2  and  C_3
REMARK    3  A    between atoms: C_3  and  C_4
REMARK    4  A    between atoms: C_4  and  N_6
REMARK    5  A    between atoms: C_4  and  C_9
REMARK    6  A    between atoms: N_6  and  C_7
REMARK    7  A    between atoms: N_6  and  C_8
REMARK    8  A    between atoms: C_9  and  O_11
REMARK    9  A    between atoms: O_11  and  C_12
REMARK   10  A    between atoms: C_22  and  C_54
REMARK   11  A    between atoms: C_27  and  O_29
REMARK   12  A    between atoms: O_29  and  C_30
REMARK   13  A    between atoms: C_32  and  C_34
REMARK   14  A    between atoms: C_37  and  C_38
REMARK   15  A    between atoms: C_39  and  O_41
REMARK   16  A    between atoms: O_41  and  C_42
REMARK   17  A    between atoms: C_45  and  C_47
REMARK   18  A    between atoms: C_48  and  O_50
REMARK   19  A    between atoms: C_51  and  C_53
REMARK   20  A    between atoms: C_54  and  C_56
REMARK   21  A    between atoms: C_54  and  C_57
REMARK   22  A    between atoms: C_57  and  O_59
REMARK   23  A    between atoms: C_57  and  C_60
REMARK   24  A    between atoms: C_60  and  C_62
REMARK   25  A    between atoms: C_60  and  C_63
REMARK   26  A    between atoms: C_63  and  C_64
REMARK   27  A    between atoms: C_64  and  C_65
REMARK   28  A    between atoms: C_65  and  O_67
REMARK   29  A    between atoms: C_65  and  C_76
REMARK   30  A    between atoms: O_67  and  C_68
REMARK   31  A    between atoms: C_68  and  C_70
REMARK   32  A    between atoms: C_70  and  C_72
REMARK   33  A    between atoms: C_70  and  N_73
REMARK   34  A    between atoms: N_73  and  C_74
REMARK   35  A    between atoms: N_73  and  C_75
REMARK   36  A    between atoms: C_76  and  C_78
REMARK   37  A    between atoms: C_76  and  C_79
REMARK   38  A    between atoms: C_79  and  O_81
REMARK   39  A    between atoms: C_79  and  C_85
REMARK   40  A    between atoms: O_81  and  C_82
REMARK   41  A    between atoms: C_82  and  C_83
REMARK   42  A    between atoms: C_85  and  C_87
REMARK   43  A    between atoms: C_85  and  C_88
REMARK   44  A    between atoms: C_89  and  N_90
REMARK   45  A    between atoms: N_90  and  C_91
REMARK                            x       y       z     vdW  Elec       q    Type
REMARK                         _______ _______ _______ _____ _____    ______ ____
ROOT
ATOM      1  C   UNL     1      10.318   0.373  24.559  0.00  0.00    +0.185 C 
ATOM      2  C   UNL     1       9.316   2.040  24.602  0.00  0.00    +0.056 C 
ATOM      3  C   UNL     1       8.210   1.563  25.536  0.00  0.00    +0.014 C 
ATOM      4  C   UNL     1       9.092   3.953  24.266  0.00  0.00    +0.124 C 
ATOM      5  C   UNL     1       7.764   5.330  24.228  0.00  0.00    +0.015 C 
ATOM      6  C   UNL     1       7.698   6.589  23.183  0.00  0.00    +0.010 C 
ATOM      7  C   UNL     1       7.481   6.344  25.566  0.00  0.00    +0.008 C 
ATOM      8  C   UNL     1       5.952   6.828  25.760  0.00  0.00    +0.036 C 
ATOM      9  C   UNL     1       5.309   5.734  26.568  0.00  0.00    +0.143 C 
ATOM     10  C   UNL     1       3.847   5.531  26.824  0.00  0.00    -0.048 C 
ATOM     11  C   UNL     1       2.871   5.741  25.706  0.00  0.00    +0.041 C 
ATOM     12  C   UNL     1       3.684   4.588  27.776  0.00  0.00    -0.025 C 
ATOM     13  C   UNL     1       3.220   3.213  27.411  0.00  0.00    +0.030 C 
ATOM     14  C   UNL     1       4.115   2.069  27.940  0.00  0.00    -0.008 C 
ATOM     15  C   UNL     1       4.960   2.341  29.203  0.00  0.00    +0.008 C 
ATOM     16  C   UNL     1       3.170   0.892  28.023  0.00  0.00    +0.039 C 
ATOM     17  C   UNL     1       3.744  -0.251  28.807  0.00  0.00    +0.141 C 
ATOM     18  C   UNL     1       2.830  -1.399  28.675  0.00  0.00    -0.000 C 
ATOM     19  C   UNL     1       3.084  -2.413  29.511  0.00  0.00    -0.025 C 
ATOM     20  C   UNL     1       2.216  -3.582  29.498  0.00  0.00    +0.072 C 
ATOM     21  C   UNL     1       2.981  -4.763  30.103  0.00  0.00    +0.186 C 
ATOM     22  O   UNL     1       4.093  -5.129  29.146  0.00  0.00    -0.458 OA
ATOM     23  C   UNL     1       5.337  -4.511  29.251  0.00  0.00    +0.332 C 
ATOM     24  O   UNL     1       5.715  -3.932  30.264  0.00  0.00    -0.246 OA
ATOM     25  C   UNL     1       6.189  -4.503  27.953  0.00  0.00    +0.091 C 
ATOM     26  C   UNL     1       7.061  -3.472  27.672  0.00  0.00    +0.007 C 
ATOM     27  C   UNL     1       7.947  -3.093  26.461  0.00  0.00    -0.004 C 
ATOM     28  C   UNL     1       8.629  -1.876  26.308  0.00  0.00    -0.023 C 
ATOM     29  C   UNL     1       9.610  -1.249  25.098  0.00  0.00    +0.072 C 
ENDROOT
BRANCH   4  30
ATOM     30  O   UNL     1      10.038   4.367  23.281  0.00  0.00    -0.391 OA
ATOM     31  H   UNL     1       9.520   4.606  22.490  0.00  0.00    +0.210 HD
ENDBRANCH   4  30
BRANCH   9  32
ATOM     32  O   UNL     1       5.575   4.572  25.785  0.00  0.00    -0.376 OA
ATOM     33  C   UNL     1       5.011   4.626  24.513  0.00  0.00    +0.194 C 
ENDBRANCH   9  32
BRANCH  17  34
ATOM     34  O   UNL     1       3.984   0.041  30.192  0.00  0.00    -0.376 OA
ATOM     35  C   UNL     1       4.972   1.021  30.485  0.00  0.00    +0.194 C 
ENDBRANCH  17  34
BRANCH  21  36
ATOM     36  C   UNL     1       1.906  -5.867  30.471  0.00  0.00    +0.056 C 
ATOM     37  C   UNL     1       0.457  -5.273  30.484  0.00  0.00    +0.014 C 
BRANCH  36  38
ATOM     38  C   UNL     1       1.885  -7.119  29.550  0.00  0.00    +0.124 C 
BRANCH  38  39
ATOM     39  C   UNL     1       0.732  -7.129  28.528  0.00  0.00    +0.015 C 
ATOM     40  C   UNL     1       0.450  -5.716  28.006  0.00  0.00    +0.010 C 
BRANCH  39  41
ATOM     41  C   UNL     1       0.969  -8.053  27.321  0.00  0.00    +0.009 C 
BRANCH  41  42
ATOM     42  C   UNL     1       1.369  -7.386  26.009  0.00  0.00    +0.045 C 
BRANCH  42  43
ATOM     43  C   UNL     1       2.527  -7.995  25.156  0.00  0.00    +0.183 C 
BRANCH  43  44
ATOM     44  C   UNL     1       3.550  -6.774  24.882  0.00  0.00    +0.068 C 
ATOM     45  C   UNL     1       4.600  -6.639  26.009  0.00  0.00    +0.015 C 
BRANCH  44  46
ATOM     46  C   UNL     1       3.025  -5.338  24.546  0.00  0.00    +0.189 C 
BRANCH  46  47
ATOM     47  C   UNL     1       2.934  -4.362  25.797  0.00  0.00    +0.051 C 
ATOM     48  C   UNL     1       1.571  -3.649  25.847  0.00  0.00    +0.015 C 
BRANCH  47  49
ATOM     49  C   UNL     1       4.045  -3.279  25.908  0.00  0.00    -0.005 C 
ATOM     50  C   UNL     1       4.109  -2.136  25.219  0.00  0.00    +0.073 C 
BRANCH  50  51
ATOM     51  N   UNL     1       5.119  -1.247  25.248  0.00  0.00    -0.284 N 
ATOM     52  C   UNL     1       5.405  -0.496  26.383  0.00  0.00    +0.332 C 
ATOM     53  O   UNL     1       6.287   0.369  26.468  0.00  0.00    -0.279 OA
ATOM     54  C   UNL     1       5.959  -0.904  24.077  0.00  0.00    +0.137 C 
ENDBRANCH  50  51
ENDBRANCH  47  49
ENDBRANCH  46  47
BRANCH  46  55
ATOM     55  O   UNL     1       3.834  -4.660  23.543  0.00  0.00    -0.461 OA
BRANCH  55  56
ATOM     56  C   UNL     1       5.121  -5.074  23.459  0.00  0.00    +0.304 C 
ATOM     57  O   UNL     1       5.975  -4.916  24.330  0.00  0.00    -0.251 OA
ATOM     58  C   UNL     1       5.391  -5.831  22.208  0.00  0.00    +0.136 C 
ENDBRANCH  55  56
ENDBRANCH  46  55
ENDBRANCH  44  46
ENDBRANCH  43  44
BRANCH  43  59
ATOM     59  O   UNL     1       1.967  -8.662  23.956  0.00  0.00    -0.460 OA
BRANCH  59  60
ATOM     60  C   UNL     1       1.174  -7.914  23.070  0.00  0.00    +0.324 C 
ATOM     61  O   UNL     1       0.948  -6.719  23.237  0.00  0.00    -0.249 OA
BRANCH  60  62
ATOM     62  C   UNL     1       0.477  -8.786  21.937  0.00  0.00    +0.163 C 
ATOM     63  C   UNL     1       0.498 -10.289  22.225  0.00  0.00    +0.036 C 
BRANCH  62  64
ATOM     64  N   UNL     1       0.823  -8.503  20.497  0.00  0.00    -0.296 NA
ATOM     65  C   UNL     1       1.887  -9.194  19.786  0.00  0.00    +0.105 C 
ATOM     66  C   UNL     1       0.529  -7.194  19.947  0.00  0.00    +0.105 C 
ENDBRANCH  62  64
ENDBRANCH  60  62
ENDBRANCH  59  60
ENDBRANCH  43  59
ENDBRANCH  42  43
ENDBRANCH  41  42
ENDBRANCH  39  41
ENDBRANCH  38  39
BRANCH  38  67
ATOM     67  O   UNL     1       1.827  -8.299  30.357  0.00  0.00    -0.391 OA
ATOM     68  H   UNL     1       2.477  -8.937  30.013  0.00  0.00    +0.210 HD
ENDBRANCH  38  67
ENDBRANCH  36  38
ENDBRANCH  21  36
BRANCH   1  69
ATOM     69  O   UNL     1      11.433  -0.258  23.461  0.00  0.00    -0.460 OA
BRANCH  69  70
ATOM     70  C   UNL     1      11.153  -1.197  22.424  0.00  0.00    +0.327 C 
ATOM     71  O   UNL     1      12.103  -1.859  21.980  0.00  0.00    -0.249 OA
BRANCH  70  72
ATOM     72  C   UNL     1       9.574  -1.580  21.737  0.00  0.00    +0.192 C 
BRANCH  72  73
ATOM     73  N   UNL     1       8.743  -2.726  22.312  0.00  0.00    -0.294 NA
ATOM     74  C   UNL     1       9.277  -3.449  23.473  0.00  0.00    +0.105 C 
ATOM     75  C   UNL     1       7.304  -2.442  22.540  0.00  0.00    +0.105 C 
ENDBRANCH  72  73
BRANCH  72  76
ATOM     76  C   UNL     1       8.763  -0.468  20.855  0.00  0.00    +0.189 C 
BRANCH  76  78
ATOM     77  C   UNL     1       8.059   1.861  20.801  0.00  0.00    +0.194 C 
ATOM     78  O   UNL     1       8.239   0.666  21.573  0.00  0.00    -0.381 OA
ENDBRANCH  76  78
ENDBRANCH  72  76
ENDBRANCH  70  72
ENDBRANCH  69  70
ENDBRANCH   1  69
TORSDOF 27
ENDMDL
