MODEL 1
REMARK VINA RESULT:      -7.4      0.000      0.000
REMARK  Name = 
REMARK  3 active torsions:
REMARK  status: ('A' for Active; 'I' for Inactive)
REMARK    1  A    between atoms: C_1  and  C_2
REMARK    2  A    between atoms: C_7  and  C_8
REMARK    3  A    between atoms: C_14  and  C_17
REMARK                            x       y       z     vdW  Elec       q    Type
REMARK                         _______ _______ _______ _____ _____    ______ ____
ROOT
ATOM      1  C   UNL     1      10.452   2.300  23.310  0.00  0.00    +0.048 A 
ATOM      2  N   UNL     1      10.459   1.282  24.239  0.00  0.00    -0.354 N 
ATOM      3  H   UNL     1      10.651   1.401  25.221  0.00  0.00    +0.166 HD
ATOM      4  C   UNL     1      10.029   0.097  23.688  0.00  0.00    +0.048 A 
ATOM      5  C   UNL     1       9.817  -1.150  24.287  0.00  0.00    +0.042 A 
ATOM      6  C   UNL     1       9.289  -2.174  23.486  0.00  0.00    +0.067 A 
ATOM      7  C   UNL     1       9.016  -1.953  22.133  0.00  0.00    +0.016 A 
ATOM      8  C   UNL     1       9.274  -0.704  21.546  0.00  0.00    +0.011 A 
ATOM      9  C   UNL     1       9.780   0.341  22.342  0.00  0.00    +0.000 A 
ATOM     10  C   UNL     1      10.089   1.710  22.108  0.00  0.00    +0.036 A 
ENDROOT
BRANCH   1  13
ATOM     11  C   UNL     1       8.241   4.103  24.494  0.00  0.00    +0.044 C 
ATOM     12  C   UNL     1       9.631   4.570  24.157  0.00  0.00    -0.041 A 
ATOM     13  C   UNL     1      10.644   3.720  23.658  0.00  0.00    +0.001 A 
ATOM     14  C   UNL     1      11.920   4.268  23.422  0.00  0.00    +0.010 A 
ATOM     15  C   UNL     1      12.190   5.621  23.636  0.00  0.00    +0.001 A 
ATOM     16  C   UNL     1      11.182   6.459  24.089  0.00  0.00    +0.000 A 
ATOM     17  C   UNL     1       9.916   5.938  24.348  0.00  0.00    +0.004 A 
ENDBRANCH   1  13
BRANCH   6  18
ATOM     18  C   UNL     1       8.982  -3.489  24.121  0.00  0.00    +0.308 C 
ATOM     19  N   UNL     1       9.891  -4.271  24.612  0.00  0.00    -0.099 NA
ATOM     20  H   UNL     1      10.819  -3.846  24.554  0.00  0.00    +0.363 HD
ATOM     21  N   UNL     1       7.696  -3.933  24.198  0.00  0.00    -0.247 N 
ATOM     22  H   UNL     1       7.673  -4.914  24.462  0.00  0.00    +0.288 HD
ATOM     23  H   UNL     1       7.117  -3.740  23.389  0.00  0.00    +0.288 HD
ENDBRANCH   6  18
TORSDOF 2
ENDMDL
MODEL 2
REMARK VINA RESULT:      -6.9      3.161      8.390
REMARK  Name = 
REMARK  3 active torsions:
REMARK  status: ('A' for Active; 'I' for Inactive)
REMARK    1  A    between atoms: C_1  and  C_2
REMARK    2  A    between atoms: C_7  and  C_8
REMARK    3  A    between atoms: C_14  and  C_17
REMARK                            x       y       z     vdW  Elec       q    Type
REMARK                         _______ _______ _______ _____ _____    ______ ____
ROOT
ATOM      1  C   UNL     1       7.359  -4.023  23.830  0.00  0.00    +0.048 A 
ATOM      2  N   UNL     1       6.953  -2.929  23.096  0.00  0.00    -0.354 N 
ATOM      3  H   UNL     1       6.004  -2.753  22.804  0.00  0.00    +0.166 HD
ATOM      4  C   UNL     1       7.978  -2.027  22.931  0.00  0.00    +0.048 A 
ATOM      5  C   UNL     1       7.978  -0.767  22.322  0.00  0.00    +0.042 A 
ATOM      6  C   UNL     1       9.166  -0.021  22.373  0.00  0.00    +0.067 A 
ATOM      7  C   UNL     1      10.309  -0.541  22.987  0.00  0.00    +0.016 A 
ATOM      8  C   UNL     1      10.294  -1.823  23.557  0.00  0.00    +0.011 A 
ATOM      9  C   UNL     1       9.103  -2.574  23.537  0.00  0.00    +0.000 A 
ATOM     10  C   UNL     1       8.716  -3.840  24.057  0.00  0.00    +0.036 A 
ENDROOT
BRANCH   1  13
ATOM     11  C   UNL     1       5.631  -5.869  22.056  0.00  0.00    +0.044 C 
ATOM     12  C   UNL     1       5.600  -5.860  23.560  0.00  0.00    -0.041 A 
ATOM     13  C   UNL     1       6.431  -5.040  24.357  0.00  0.00    +0.001 A 
ATOM     14  C   UNL     1       6.338  -5.155  25.758  0.00  0.00    +0.010 A 
ATOM     15  C   UNL     1       5.431  -6.024  26.366  0.00  0.00    +0.001 A 
ATOM     16  C   UNL     1       4.591  -6.799  25.579  0.00  0.00    +0.000 A 
ATOM     17  C   UNL     1       4.676  -6.719  24.191  0.00  0.00    +0.004 A 
ENDBRANCH   1  13
BRANCH   6  18
ATOM     18  C   UNL     1       9.169   1.356  21.799  0.00  0.00    +0.308 C 
ATOM     19  N   UNL     1      10.217   2.118  21.784  0.00  0.00    -0.099 NA
ATOM     20  H   UNL     1      11.035   1.634  22.162  0.00  0.00    +0.363 HD
ATOM     21  N   UNL     1       8.031   1.882  21.265  0.00  0.00    -0.247 N 
ATOM     22  H   UNL     1       8.139   2.880  21.109  0.00  0.00    +0.288 HD
ATOM     23  H   UNL     1       7.174   1.661  21.757  0.00  0.00    +0.288 HD
ENDBRANCH   6  18
TORSDOF 2
ENDMDL
MODEL 3
REMARK VINA RESULT:      -6.8      2.440      4.555
REMARK  Name = 
REMARK  3 active torsions:
REMARK  status: ('A' for Active; 'I' for Inactive)
REMARK    1  A    between atoms: C_1  and  C_2
REMARK    2  A    between atoms: C_7  and  C_8
REMARK    3  A    between atoms: C_14  and  C_17
REMARK                            x       y       z     vdW  Elec       q    Type
REMARK                         _______ _______ _______ _____ _____    ______ ____
ROOT
ATOM      1  C   UNL     1       9.474  -1.290  24.412  0.00  0.00    +0.048 A 
ATOM      2  N   UNL     1       8.616  -1.446  25.480  0.00  0.00    -0.354 N 
ATOM      3  H   UNL     1       8.126  -0.694  25.938  0.00  0.00    +0.166 HD
ATOM      4  C   UNL     1       8.396  -2.775  25.757  0.00  0.00    +0.048 A 
ATOM      5  C   UNL     1       7.548  -3.370  26.699  0.00  0.00    +0.042 A 
ATOM      6  C   UNL     1       7.463  -4.771  26.703  0.00  0.00    +0.067 A 
ATOM      7  C   UNL     1       8.225  -5.534  25.813  0.00  0.00    +0.016 A 
ATOM      8  C   UNL     1       9.097  -4.915  24.904  0.00  0.00    +0.011 A 
ATOM      9  C   UNL     1       9.175  -3.510  24.870  0.00  0.00    +0.000 A 
ATOM     10  C   UNL     1       9.877  -2.571  24.064  0.00  0.00    +0.036 A 
ENDROOT
BRANCH   1  13
ATOM     11  C   UNL     1       9.199  -0.835  21.369  0.00  0.00    +0.044 C 
ATOM     12  C   UNL     1       9.641   0.216  22.351  0.00  0.00    -0.041 A 
ATOM     13  C   UNL     1       9.718   0.002  23.746  0.00  0.00    +0.001 A 
ATOM     14  C   UNL     1      10.104   1.081  24.567  0.00  0.00    +0.010 A 
ATOM     15  C   UNL     1      10.441   2.326  24.035  0.00  0.00    +0.001 A 
ATOM     16  C   UNL     1      10.401   2.518  22.661  0.00  0.00    +0.000 A 
ATOM     17  C   UNL     1      10.004   1.475  21.828  0.00  0.00    +0.004 A 
ENDBRANCH   1  13
BRANCH   6  18
ATOM     18  C   UNL     1       6.509  -5.425  27.645  0.00  0.00    +0.308 C 
ATOM     19  N   UNL     1       6.870  -6.302  28.527  0.00  0.00    -0.099 NA
ATOM     20  H   UNL     1       7.883  -6.439  28.524  0.00  0.00    +0.363 HD
ATOM     21  N   UNL     1       5.181  -5.122  27.601  0.00  0.00    -0.247 N 
ATOM     22  H   UNL     1       4.645  -5.787  28.150  0.00  0.00    +0.288 HD
ATOM     23  H   UNL     1       4.793  -4.988  26.675  0.00  0.00    +0.288 HD
ENDBRANCH   6  18
TORSDOF 2
ENDMDL
MODEL 4
REMARK VINA RESULT:      -6.7      2.904      4.912
REMARK  Name = 
REMARK  3 active torsions:
REMARK  status: ('A' for Active; 'I' for Inactive)
REMARK    1  A    between atoms: C_1  and  C_2
REMARK    2  A    between atoms: C_7  and  C_8
REMARK    3  A    between atoms: C_14  and  C_17
REMARK                            x       y       z     vdW  Elec       q    Type
REMARK                         _______ _______ _______ _____ _____    ______ ____
ROOT
ATOM      1  C   UNL     1       8.354  -1.951  23.624  0.00  0.00    +0.048 A 
ATOM      2  N   UNL     1       7.727  -2.681  24.612  0.00  0.00    -0.354 N 
ATOM      3  H   UNL     1       7.648  -2.396  25.575  0.00  0.00    +0.166 HD
ATOM      4  C   UNL     1       7.094  -3.786  24.093  0.00  0.00    +0.048 A 
ATOM      5  C   UNL     1       6.290  -4.742  24.724  0.00  0.00    +0.042 A 
ATOM      6  C   UNL     1       5.700  -5.729  23.919  0.00  0.00    +0.067 A 
ATOM      7  C   UNL     1       5.937  -5.761  22.541  0.00  0.00    +0.016 A 
ATOM      8  C   UNL     1       6.778  -4.813  21.938  0.00  0.00    +0.011 A 
ATOM      9  C   UNL     1       7.358  -3.802  22.727  0.00  0.00    +0.000 A 
ATOM     10  C   UNL     1       8.181  -2.676  22.454  0.00  0.00    +0.036 A 
ENDROOT
BRANCH   1  13
ATOM     11  C   UNL     1       6.857   0.676  22.991  0.00  0.00    +0.044 C 
ATOM     12  C   UNL     1       8.265   0.603  23.515  0.00  0.00    -0.041 A 
ATOM     13  C   UNL     1       8.919  -0.606  23.842  0.00  0.00    +0.001 A 
ATOM     14  C   UNL     1      10.226  -0.540  24.366  0.00  0.00    +0.010 A 
ATOM     15  C   UNL     1      10.889   0.676  24.533  0.00  0.00    +0.001 A 
ATOM     16  C   UNL     1      10.257   1.858  24.174  0.00  0.00    +0.000 A 
ATOM     17  C   UNL     1       8.959   1.822  23.672  0.00  0.00    +0.004 A 
ENDBRANCH   1  13
BRANCH   6  18
ATOM     18  C   UNL     1       4.777  -6.712  24.557  0.00  0.00    +0.308 C 
ATOM     19  N   UNL     1       3.992  -7.491  23.882  0.00  0.00    -0.099 NA
ATOM     20  H   UNL     1       4.129  -7.378  22.875  0.00  0.00    +0.363 HD
ATOM     21  N   UNL     1       4.718  -6.822  25.914  0.00  0.00    -0.247 N 
ATOM     22  H   UNL     1       3.912  -7.373  26.192  0.00  0.00    +0.288 HD
ATOM     23  H   UNL     1       4.782  -5.950  26.426  0.00  0.00    +0.288 HD
ENDBRANCH   6  18
TORSDOF 2
ENDMDL
MODEL 5
REMARK VINA RESULT:      -6.6      2.389      3.817
REMARK  Name = 
REMARK  3 active torsions:
REMARK  status: ('A' for Active; 'I' for Inactive)
REMARK    1  A    between atoms: C_1  and  C_2
REMARK    2  A    between atoms: C_7  and  C_8
REMARK    3  A    between atoms: C_14  and  C_17
REMARK                            x       y       z     vdW  Elec       q    Type
REMARK                         _______ _______ _______ _____ _____    ______ ____
ROOT
ATOM      1  C   UNL     1       8.565  -0.532  23.969  0.00  0.00    +0.048 A 
ATOM      2  N   UNL     1       7.532  -0.994  23.180  0.00  0.00    -0.354 N 
ATOM      3  H   UNL     1       6.968  -0.417  22.576  0.00  0.00    +0.166 HD
ATOM      4  C   UNL     1       7.456  -2.367  23.208  0.00  0.00    +0.048 A 
ATOM      5  C   UNL     1       6.614  -3.236  22.504  0.00  0.00    +0.042 A 
ATOM      6  C   UNL     1       6.818  -4.615  22.671  0.00  0.00    +0.067 A 
ATOM      7  C   UNL     1       7.811  -5.090  23.532  0.00  0.00    +0.016 A 
ATOM      8  C   UNL     1       8.617  -4.198  24.256  0.00  0.00    +0.011 A 
ATOM      9  C   UNL     1       8.442  -2.812  24.082  0.00  0.00    +0.000 A 
ATOM     10  C   UNL     1       9.099  -1.655  24.584  0.00  0.00    +0.036 A 
ENDROOT
BRANCH   1  13
ATOM     11  C   UNL     1       7.487   1.659  25.860  0.00  0.00    +0.044 C 
ATOM     12  C   UNL     1       8.516   1.890  24.788  0.00  0.00    -0.041 A 
ATOM     13  C   UNL     1       9.031   0.867  23.961  0.00  0.00    +0.001 A 
ATOM     14  C   UNL     1      10.026   1.203  23.021  0.00  0.00    +0.010 A 
ATOM     15  C   UNL     1      10.480   2.514  22.869  0.00  0.00    +0.001 A 
ATOM     16  C   UNL     1       9.943   3.522  23.657  0.00  0.00    +0.000 A 
ATOM     17  C   UNL     1       8.973   3.213  24.607  0.00  0.00    +0.004 A 
ENDBRANCH   1  13
BRANCH   6  18
ATOM     18  C   UNL     1       5.984  -5.560  21.873  0.00  0.00    +0.308 C 
ATOM     19  N   UNL     1       6.028  -5.629  20.579  0.00  0.00    -0.099 NA
ATOM     20  H   UNL     1       6.736  -4.998  20.196  0.00  0.00    +0.363 HD
ATOM     21  N   UNL     1       5.111  -6.402  22.494  0.00  0.00    -0.247 N 
ATOM     22  H   UNL     1       4.482  -6.825  21.818  0.00  0.00    +0.288 HD
ATOM     23  H   UNL     1       4.617  -6.012  23.287  0.00  0.00    +0.288 HD
ENDBRANCH   6  18
TORSDOF 2
ENDMDL
MODEL 6
REMARK VINA RESULT:      -6.5      3.082      5.188
REMARK  Name = 
REMARK  3 active torsions:
REMARK  status: ('A' for Active; 'I' for Inactive)
REMARK    1  A    between atoms: C_1  and  C_2
REMARK    2  A    between atoms: C_7  and  C_8
REMARK    3  A    between atoms: C_14  and  C_17
REMARK                            x       y       z     vdW  Elec       q    Type
REMARK                         _______ _______ _______ _____ _____    ______ ____
ROOT
ATOM      1  C   UNL     1       8.181  -1.830  23.284  0.00  0.00    +0.048 A 
ATOM      2  N   UNL     1       6.853  -1.985  23.618  0.00  0.00    -0.354 N 
ATOM      3  H   UNL     1       6.237  -1.234  23.888  0.00  0.00    +0.166 HD
ATOM      4  C   UNL     1       6.427  -3.274  23.399  0.00  0.00    +0.048 A 
ATOM      5  C   UNL     1       5.152  -3.837  23.533  0.00  0.00    +0.042 A 
ATOM      6  C   UNL     1       4.991  -5.179  23.156  0.00  0.00    +0.067 A 
ATOM      7  C   UNL     1       6.079  -5.924  22.691  0.00  0.00    +0.016 A 
ATOM      8  C   UNL     1       7.355  -5.348  22.601  0.00  0.00    +0.011 A 
ATOM      9  C   UNL     1       7.529  -3.996  22.952  0.00  0.00    +0.000 A 
ATOM     10  C   UNL     1       8.628  -3.094  22.926  0.00  0.00    +0.036 A 
ENDROOT
BRANCH   1  13
ATOM     11  C   UNL     1       9.237  -0.266  25.730  0.00  0.00    +0.044 C 
ATOM     12  C   UNL     1       9.299   0.229  24.311  0.00  0.00    -0.041 A 
ATOM     13  C   UNL     1       8.851  -0.519  23.199  0.00  0.00    +0.001 A 
ATOM     14  C   UNL     1       9.003   0.037  21.913  0.00  0.00    +0.010 A 
ATOM     15  C   UNL     1       9.547   1.308  21.722  0.00  0.00    +0.001 A 
ATOM     16  C   UNL     1       9.949   2.055  22.821  0.00  0.00    +0.000 A 
ATOM     17  C   UNL     1       9.827   1.520  24.101  0.00  0.00    +0.004 A 
ENDBRANCH   1  13
BRANCH   6  18
ATOM     18  C   UNL     1       3.626  -5.778  23.217  0.00  0.00    +0.308 C 
ATOM     19  N   UNL     1       2.542  -5.095  23.026  0.00  0.00    -0.099 NA
ATOM     20  H   UNL     1       2.750  -4.125  22.780  0.00  0.00    +0.363 HD
ATOM     21  N   UNL     1       3.467  -7.102  23.496  0.00  0.00    -0.247 N 
ATOM     22  H   UNL     1       2.494  -7.308  23.703  0.00  0.00    +0.288 HD
ATOM     23  H   UNL     1       4.096  -7.481  24.193  0.00  0.00    +0.288 HD
ENDBRANCH   6  18
TORSDOF 2
ENDMDL
MODEL 7
REMARK VINA RESULT:      -6.5      3.057      8.135
REMARK  Name = 
REMARK  3 active torsions:
REMARK  status: ('A' for Active; 'I' for Inactive)
REMARK    1  A    between atoms: C_1  and  C_2
REMARK    2  A    between atoms: C_7  and  C_8
REMARK    3  A    between atoms: C_14  and  C_17
REMARK                            x       y       z     vdW  Elec       q    Type
REMARK                         _______ _______ _______ _____ _____    ______ ____
ROOT
ATOM      1  C   UNL     1       7.004  -3.043  23.725  0.00  0.00    +0.048 A 
ATOM      2  N   UNL     1       7.371  -2.132  22.757  0.00  0.00    -0.354 N 
ATOM      3  H   UNL     1       6.960  -2.072  21.839  0.00  0.00    +0.166 HD
ATOM      4  C   UNL     1       8.270  -1.215  23.248  0.00  0.00    +0.048 A 
ATOM      5  C   UNL     1       8.837  -0.092  22.634  0.00  0.00    +0.042 A 
ATOM      6  C   UNL     1       9.674   0.722  23.413  0.00  0.00    +0.067 A 
ATOM      7  C   UNL     1       9.947   0.396  24.745  0.00  0.00    +0.016 A 
ATOM      8  C   UNL     1       9.397  -0.756  25.327  0.00  0.00    +0.011 A 
ATOM      9  C   UNL     1       8.536  -1.570  24.566  0.00  0.00    +0.000 A 
ATOM     10  C   UNL     1       7.772  -2.739  24.839  0.00  0.00    +0.036 A 
ENDROOT
BRANCH   1  13
ATOM     11  C   UNL     1       7.229  -5.704  22.171  0.00  0.00    +0.044 C 
ATOM     12  C   UNL     1       5.968  -5.198  22.817  0.00  0.00    -0.041 A 
ATOM     13  C   UNL     1       5.894  -4.000  23.562  0.00  0.00    +0.001 A 
ATOM     14  C   UNL     1       4.662  -3.656  24.155  0.00  0.00    +0.010 A 
ATOM     15  C   UNL     1       3.523  -4.446  23.993  0.00  0.00    +0.001 A 
ATOM     16  C   UNL     1       3.592  -5.601  23.228  0.00  0.00    +0.000 A 
ATOM     17  C   UNL     1       4.801  -5.974  22.647  0.00  0.00    +0.004 A 
ENDBRANCH   1  13
BRANCH   6  18
ATOM     18  C   UNL     1      10.227   1.966  22.804  0.00  0.00    +0.308 C 
ATOM     19  N   UNL     1      10.129   2.244  21.542  0.00  0.00    -0.099 NA
ATOM     20  H   UNL     1       9.585   1.535  21.045  0.00  0.00    +0.363 HD
ATOM     21  N   UNL     1      10.886   2.877  23.574  0.00  0.00    -0.247 N 
ATOM     22  H   UNL     1      11.372   3.551  22.991  0.00  0.00    +0.288 HD
ATOM     23  H   UNL     1      11.484   2.490  24.294  0.00  0.00    +0.288 HD
ENDBRANCH   6  18
TORSDOF 2
ENDMDL
MODEL 8
REMARK VINA RESULT:      -6.5      2.043      3.020
REMARK  Name = 
REMARK  3 active torsions:
REMARK  status: ('A' for Active; 'I' for Inactive)
REMARK    1  A    between atoms: C_1  and  C_2
REMARK    2  A    between atoms: C_7  and  C_8
REMARK    3  A    between atoms: C_14  and  C_17
REMARK                            x       y       z     vdW  Elec       q    Type
REMARK                         _______ _______ _______ _____ _____    ______ ____
ROOT
ATOM      1  C   UNL     1       8.983   0.012  24.200  0.00  0.00    +0.048 A 
ATOM      2  N   UNL     1       9.050  -0.785  25.323  0.00  0.00    -0.354 N 
ATOM      3  H   UNL     1       9.359  -0.474  26.231  0.00  0.00    +0.166 HD
ATOM      4  C   UNL     1       8.504  -2.026  25.091  0.00  0.00    +0.048 A 
ATOM      5  C   UNL     1       8.304  -3.100  25.966  0.00  0.00    +0.042 A 
ATOM      6  C   UNL     1       7.639  -4.230  25.466  0.00  0.00    +0.067 A 
ATOM      7  C   UNL     1       7.223  -4.281  24.133  0.00  0.00    +0.016 A 
ATOM      8  C   UNL     1       7.470  -3.207  23.264  0.00  0.00    +0.011 A 
ATOM      9  C   UNL     1       8.113  -2.055  23.757  0.00  0.00    +0.000 A 
ATOM     10  C   UNL     1       8.457  -0.792  23.200  0.00  0.00    +0.036 A 
ENDROOT
BRANCH   1  13
ATOM     11  C   UNL     1       7.246   2.126  25.633  0.00  0.00    +0.044 C 
ATOM     12  C   UNL     1       8.472   2.440  24.820  0.00  0.00    -0.041 A 
ATOM     13  C   UNL     1       9.281   1.456  24.208  0.00  0.00    +0.001 A 
ATOM     14  C   UNL     1      10.430   1.875  23.509  0.00  0.00    +0.010 A 
ATOM     15  C   UNL     1      10.761   3.225  23.381  0.00  0.00    +0.001 A 
ATOM     16  C   UNL     1       9.942   4.189  23.950  0.00  0.00    +0.000 A 
ATOM     17  C   UNL     1       8.810   3.801  24.664  0.00  0.00    +0.004 A 
ENDBRANCH   1  13
BRANCH   6  18
ATOM     18  C   UNL     1       7.345  -5.356  26.401  0.00  0.00    +0.308 C 
ATOM     19  N   UNL     1       8.160  -5.736  27.333  0.00  0.00    -0.099 NA
ATOM     20  H   UNL     1       8.988  -5.137  27.373  0.00  0.00    +0.363 HD
ATOM     21  N   UNL     1       6.179  -6.053  26.295  0.00  0.00    -0.247 N 
ATOM     22  H   UNL     1       6.218  -6.900  26.853  0.00  0.00    +0.288 HD
ATOM     23  H   UNL     1       5.859  -6.229  25.350  0.00  0.00    +0.288 HD
ENDBRANCH   6  18
TORSDOF 2
ENDMDL
MODEL 9
REMARK VINA RESULT:      -6.5      3.223      5.562
REMARK  Name = 
REMARK  3 active torsions:
REMARK  status: ('A' for Active; 'I' for Inactive)
REMARK    1  A    between atoms: C_1  and  C_2
REMARK    2  A    between atoms: C_7  and  C_8
REMARK    3  A    between atoms: C_14  and  C_17
REMARK                            x       y       z     vdW  Elec       q    Type
REMARK                         _______ _______ _______ _____ _____    ______ ____
ROOT
ATOM      1  C   UNL     1       7.695  -2.071  23.392  0.00  0.00    +0.048 A 
ATOM      2  N   UNL     1       7.831  -2.366  24.732  0.00  0.00    -0.354 N 
ATOM      3  H   UNL     1       8.253  -1.757  25.415  0.00  0.00    +0.166 HD
ATOM      4  C   UNL     1       7.190  -3.540  25.054  0.00  0.00    +0.048 A 
ATOM      5  C   UNL     1       7.019  -4.160  26.297  0.00  0.00    +0.042 A 
ATOM      6  C   UNL     1       6.239  -5.326  26.340  0.00  0.00    +0.067 A 
ATOM      7  C   UNL     1       5.681  -5.854  25.172  0.00  0.00    +0.016 A 
ATOM      8  C   UNL     1       5.899  -5.235  23.932  0.00  0.00    +0.011 A 
ATOM      9  C   UNL     1       6.659  -4.051  23.875  0.00  0.00    +0.000 A 
ATOM     10  C   UNL     1       7.018  -3.147  22.837  0.00  0.00    +0.036 A 
ENDROOT
BRANCH   1  13
ATOM     11  C   UNL     1      10.521  -1.428  22.323  0.00  0.00    +0.044 C 
ATOM     12  C   UNL     1       9.377  -0.450  22.350  0.00  0.00    -0.041 A 
ATOM     13  C   UNL     1       8.078  -0.775  22.802  0.00  0.00    +0.001 A 
ATOM     14  C   UNL     1       7.080   0.217  22.737  0.00  0.00    +0.010 A 
ATOM     15  C   UNL     1       7.353   1.505  22.275  0.00  0.00    +0.001 A 
ATOM     16  C   UNL     1       8.640   1.831  21.870  0.00  0.00    +0.000 A 
ATOM     17  C   UNL     1       9.641   0.863  21.905  0.00  0.00    +0.004 A 
ENDBRANCH   1  13
BRANCH   6  18
ATOM     18  C   UNL     1       5.978  -5.961  27.665  0.00  0.00    +0.308 C 
ATOM     19  N   UNL     1       6.412  -5.475  28.784  0.00  0.00    -0.099 NA
ATOM     20  H   UNL     1       6.900  -4.587  28.641  0.00  0.00    +0.363 HD
ATOM     21  N   UNL     1       5.262  -7.118  27.745  0.00  0.00    -0.247 N 
ATOM     22  H   UNL     1       5.347  -7.526  28.671  0.00  0.00    +0.288 HD
ATOM     23  H   UNL     1       5.438  -7.793  27.010  0.00  0.00    +0.288 HD
ENDBRANCH   6  18
TORSDOF 2
ENDMDL
