MODEL 1
REMARK VINA RESULT:      -6.1      0.000      0.000
REMARK  Name = 
REMARK  1 active torsions:
REMARK  status: ('A' for Active; 'I' for Inactive)
REMARK    1  A    between atoms: C_11  and  C_12
REMARK                            x       y       z     vdW  Elec       q    Type
REMARK                         _______ _______ _______ _____ _____    ______ ____
ROOT
ATOM      1 BR   UNL     1       6.149  -5.959  20.570  0.00  0.00    -0.050 Br
ATOM      2  C   UNL     1       5.985  -5.597  22.417  0.00  0.00    +0.019 A 
ATOM      3  C   UNL     1       4.797  -5.891  23.076  0.00  0.00    +0.017 A 
ATOM      4  C   UNL     1       4.684  -5.633  24.444  0.00  0.00    +0.025 A 
ATOM      5  C   UNL     1       5.763  -5.100  25.164  0.00  0.00    +0.043 A 
ATOM      6  N   UNL     1       5.579  -4.971  26.549  0.00  0.00    -0.283 N 
ATOM      7  H   UNL     1       4.641  -4.986  26.928  0.00  0.00    +0.155 HD
ATOM      8  C   UNL     1       6.548  -5.035  27.517  0.00  0.00    +0.239 C 
ATOM      9  C   UNL     1       7.965  -5.359  27.076  0.00  0.00    +0.238 C 
ATOM     10  N   UNL     1       8.528  -4.254  26.309  0.00  0.00    -0.272 NA
ATOM     11  C   UNL     1       8.043  -3.981  25.142  0.00  0.00    +0.093 C 
ATOM     12  O   UNL     1       6.224  -4.946  28.702  0.00  0.00    -0.273 OA
ATOM     13  C   UNL     1       6.936  -4.740  24.480  0.00  0.00    +0.024 A 
ATOM     14  C   UNL     1       7.050  -5.021  23.107  0.00  0.00    +0.027 A 
ENDROOT
BRANCH  11  15
ATOM     15  C   UNL     1       8.618  -2.796  24.415  0.00  0.00    +0.089 A 
ATOM     16  N   UNL     1       9.866  -2.946  23.904  0.00  0.00    -0.253 NA
ATOM     17  C   UNL     1      10.365  -1.903  23.206  0.00  0.00    +0.111 A 
ATOM     18  C   UNL     1       9.687  -0.712  23.005  0.00  0.00    +0.020 A 
ATOM     19  C   UNL     1       8.413  -0.579  23.547  0.00  0.00    +0.004 A 
ATOM     20  C   UNL     1       7.861  -1.640  24.258  0.00  0.00    +0.030 A 
ENDBRANCH  11  15
TORSDOF 1
ENDMDL
MODEL 2
REMARK VINA RESULT:      -5.9      5.379      7.223
REMARK  Name = 
REMARK  1 active torsions:
REMARK  status: ('A' for Active; 'I' for Inactive)
REMARK    1  A    between atoms: C_11  and  C_12
REMARK                            x       y       z     vdW  Elec       q    Type
REMARK                         _______ _______ _______ _____ _____    ______ ____
ROOT
ATOM      1 BR   UNL     1       6.208   2.488  27.456  0.00  0.00    -0.050 Br
ATOM      2  C   UNL     1       7.415   1.468  26.419  0.00  0.00    +0.019 A 
ATOM      3  C   UNL     1       7.788   0.198  26.844  0.00  0.00    +0.017 A 
ATOM      4  C   UNL     1       8.670  -0.558  26.068  0.00  0.00    +0.025 A 
ATOM      5  C   UNL     1       9.167  -0.058  24.856  0.00  0.00    +0.043 A 
ATOM      6  N   UNL     1       9.967  -0.933  24.107  0.00  0.00    -0.283 N 
ATOM      7  H   UNL     1      10.379  -1.738  24.560  0.00  0.00    +0.155 HD
ATOM      8  C   UNL     1      10.103  -0.959  22.743  0.00  0.00    +0.239 C 
ATOM      9  C   UNL     1       9.248  -0.003  21.930  0.00  0.00    +0.238 C 
ATOM     10  N   UNL     1       9.676   1.375  22.142  0.00  0.00    -0.272 NA
ATOM     11  C   UNL     1       9.496   1.923  23.300  0.00  0.00    +0.093 C 
ATOM     12  O   UNL     1      10.815  -1.821  22.224  0.00  0.00    -0.273 OA
ATOM     13  C   UNL     1       8.841   1.253  24.467  0.00  0.00    +0.024 A 
ATOM     14  C   UNL     1       7.937   2.000  25.242  0.00  0.00    +0.027 A 
ENDROOT
BRANCH  11  15
ATOM     15  C   UNL     1      10.006   3.325  23.487  0.00  0.00    +0.089 A 
ATOM     16  N   UNL     1      11.350   3.497  23.406  0.00  0.00    -0.253 NA
ATOM     17  C   UNL     1      11.807   4.763  23.522  0.00  0.00    +0.111 A 
ATOM     18  C   UNL     1      10.992   5.864  23.730  0.00  0.00    +0.020 A 
ATOM     19  C   UNL     1       9.620   5.660  23.820  0.00  0.00    +0.004 A 
ATOM     20  C   UNL     1       9.112   4.371  23.688  0.00  0.00    +0.030 A 
ENDBRANCH  11  15
TORSDOF 1
ENDMDL
MODEL 3
REMARK VINA RESULT:      -5.8      3.312      4.551
REMARK  Name = 
REMARK  1 active torsions:
REMARK  status: ('A' for Active; 'I' for Inactive)
REMARK    1  A    between atoms: C_11  and  C_12
REMARK                            x       y       z     vdW  Elec       q    Type
REMARK                         _______ _______ _______ _____ _____    ______ ____
ROOT
ATOM      1 BR   UNL     1       4.549   1.309  26.273  0.00  0.00    -0.050 Br
ATOM      2  C   UNL     1       5.613  -0.218  25.942  0.00  0.00    +0.019 A 
ATOM      3  C   UNL     1       5.593  -1.281  26.836  0.00  0.00    +0.017 A 
ATOM      4  C   UNL     1       6.371  -2.413  26.582  0.00  0.00    +0.025 A 
ATOM      5  C   UNL     1       7.156  -2.496  25.423  0.00  0.00    +0.043 A 
ATOM      6  N   UNL     1       7.823  -3.712  25.213  0.00  0.00    -0.283 N 
ATOM      7  H   UNL     1       7.949  -4.348  25.989  0.00  0.00    +0.155 HD
ATOM      8  C   UNL     1       8.157  -4.269  24.005  0.00  0.00    +0.239 C 
ATOM      9  C   UNL     1       7.699  -3.552  22.746  0.00  0.00    +0.238 C 
ATOM     10  N   UNL     1       8.414  -2.292  22.585  0.00  0.00    -0.272 NA
ATOM     11  C   UNL     1       8.197  -1.329  23.421  0.00  0.00    +0.093 C 
ATOM     12  O   UNL     1       8.706  -5.372  23.980  0.00  0.00    -0.273 OA
ATOM     13  C   UNL     1       7.226  -1.390  24.558  0.00  0.00    +0.024 A 
ATOM     14  C   UNL     1       6.426  -0.263  24.810  0.00  0.00    +0.027 A 
ENDROOT
BRANCH  11  15
ATOM     15  C   UNL     1       9.001  -0.070  23.248  0.00  0.00    +0.089 A 
ATOM     16  N   UNL     1       9.762   0.313  24.304  0.00  0.00    -0.253 NA
ATOM     17  C   UNL     1      10.526   1.415  24.133  0.00  0.00    +0.111 A 
ATOM     18  C   UNL     1      10.556   2.162  22.966  0.00  0.00    +0.020 A 
ATOM     19  C   UNL     1       9.759   1.754  21.902  0.00  0.00    +0.004 A 
ATOM     20  C   UNL     1       8.972   0.614  22.037  0.00  0.00    +0.030 A 
ENDBRANCH  11  15
TORSDOF 1
ENDMDL
MODEL 4
REMARK VINA RESULT:      -5.7      3.743      5.811
REMARK  Name = 
REMARK  1 active torsions:
REMARK  status: ('A' for Active; 'I' for Inactive)
REMARK    1  A    between atoms: C_11  and  C_12
REMARK                            x       y       z     vdW  Elec       q    Type
REMARK                         _______ _______ _______ _____ _____    ______ ____
ROOT
ATOM      1 BR   UNL     1       4.519  -1.600  26.998  0.00  0.00    -0.050 Br
ATOM      2  C   UNL     1       5.635  -0.867  25.661  0.00  0.00    +0.019 A 
ATOM      3  C   UNL     1       5.490   0.466  25.295  0.00  0.00    +0.017 A 
ATOM      4  C   UNL     1       6.324   1.009  24.315  0.00  0.00    +0.025 A 
ATOM      5  C   UNL     1       7.320   0.228  23.711  0.00  0.00    +0.043 A 
ATOM      6  N   UNL     1       8.167   0.892  22.811  0.00  0.00    -0.283 N 
ATOM      7  H   UNL     1       7.878   1.781  22.424  0.00  0.00    +0.155 HD
ATOM      8  C   UNL     1       9.474   0.587  22.534  0.00  0.00    +0.239 C 
ATOM      9  C   UNL     1      10.122  -0.533  23.330  0.00  0.00    +0.238 C 
ATOM     10  N   UNL     1       9.541  -1.820  22.969  0.00  0.00    -0.272 NA
ATOM     11  C   UNL     1       8.312  -2.072  23.285  0.00  0.00    +0.093 C 
ATOM     12  O   UNL     1      10.106   1.295  21.747  0.00  0.00    -0.273 OA
ATOM     13  C   UNL     1       7.416  -1.136  24.035  0.00  0.00    +0.024 A 
ATOM     14  C   UNL     1       6.587  -1.670  25.036  0.00  0.00    +0.027 A 
ENDROOT
BRANCH  11  15
ATOM     15  C   UNL     1       7.740  -3.390  22.839  0.00  0.00    +0.089 A 
ATOM     16  N   UNL     1       8.252  -4.501  23.426  0.00  0.00    -0.253 NA
ATOM     17  C   UNL     1       7.704  -5.683  23.066  0.00  0.00    +0.111 A 
ATOM     18  C   UNL     1       6.683  -5.812  22.139  0.00  0.00    +0.020 A 
ATOM     19  C   UNL     1       6.183  -4.659  21.544  0.00  0.00    +0.004 A 
ATOM     20  C   UNL     1       6.712  -3.422  21.904  0.00  0.00    +0.030 A 
ENDBRANCH  11  15
TORSDOF 1
ENDMDL
MODEL 5
REMARK VINA RESULT:      -5.7      2.382      4.845
REMARK  Name = 
REMARK  1 active torsions:
REMARK  status: ('A' for Active; 'I' for Inactive)
REMARK    1  A    between atoms: C_11  and  C_12
REMARK                            x       y       z     vdW  Elec       q    Type
REMARK                         _______ _______ _______ _____ _____    ______ ____
ROOT
ATOM      1 BR   UNL     1       2.345  -5.708  23.585  0.00  0.00    -0.050 Br
ATOM      2  C   UNL     1       4.208  -5.415  23.698  0.00  0.00    +0.019 A 
ATOM      3  C   UNL     1       5.034  -5.804  22.649  0.00  0.00    +0.017 A 
ATOM      4  C   UNL     1       6.409  -5.575  22.731  0.00  0.00    +0.025 A 
ATOM      5  C   UNL     1       6.963  -4.938  23.851  0.00  0.00    +0.043 A 
ATOM      6  N   UNL     1       8.339  -4.668  23.792  0.00  0.00    -0.283 N 
ATOM      7  H   UNL     1       8.912  -5.164  23.122  0.00  0.00    +0.155 HD
ATOM      8  C   UNL     1       9.000  -3.633  24.400  0.00  0.00    +0.239 C 
ATOM      9  C   UNL     1       8.169  -2.612  25.160  0.00  0.00    +0.238 C 
ATOM     10  N   UNL     1       7.595  -3.210  26.359  0.00  0.00    -0.272 NA
ATOM     11  C   UNL     1       6.684  -4.120  26.240  0.00  0.00    +0.093 C 
ATOM     12  O   UNL     1      10.212  -3.500  24.218  0.00  0.00    -0.273 OA
ATOM     13  C   UNL     1       6.134  -4.610  24.937  0.00  0.00    +0.024 A 
ATOM     14  C   UNL     1       4.748  -4.825  24.839  0.00  0.00    +0.027 A 
ENDROOT
BRANCH  11  15
ATOM     15  C   UNL     1       6.164  -4.747  27.504  0.00  0.00    +0.089 A 
ATOM     16  N   UNL     1       6.777  -5.887  27.912  0.00  0.00    -0.253 NA
ATOM     17  C   UNL     1       6.347  -6.424  29.075  0.00  0.00    +0.111 A 
ATOM     18  C   UNL     1       5.326  -5.889  29.843  0.00  0.00    +0.020 A 
ATOM     19  C   UNL     1       4.707  -4.726  29.399  0.00  0.00    +0.004 A 
ATOM     20  C   UNL     1       5.136  -4.135  28.213  0.00  0.00    +0.030 A 
ENDBRANCH  11  15
TORSDOF 1
ENDMDL
MODEL 6
REMARK VINA RESULT:      -5.6      3.195      4.321
REMARK  Name = 
REMARK  1 active torsions:
REMARK  status: ('A' for Active; 'I' for Inactive)
REMARK    1  A    between atoms: C_11  and  C_12
REMARK                            x       y       z     vdW  Elec       q    Type
REMARK                         _______ _______ _______ _____ _____    ______ ____
ROOT
ATOM      1 BR   UNL     1       5.169  -0.195  27.643  0.00  0.00    -0.050 Br
ATOM      2  C   UNL     1       5.947  -1.591  26.634  0.00  0.00    +0.019 A 
ATOM      3  C   UNL     1       5.901  -2.896  27.111  0.00  0.00    +0.017 A 
ATOM      4  C   UNL     1       6.466  -3.927  26.357  0.00  0.00    +0.025 A 
ATOM      5  C   UNL     1       7.062  -3.662  25.115  0.00  0.00    +0.043 A 
ATOM      6  N   UNL     1       7.512  -4.778  24.394  0.00  0.00    -0.283 N 
ATOM      7  H   UNL     1       7.654  -5.655  24.877  0.00  0.00    +0.155 HD
ATOM      8  C   UNL     1       7.591  -4.899  23.030  0.00  0.00    +0.239 C 
ATOM      9  C   UNL     1       7.068  -3.748  22.188  0.00  0.00    +0.238 C 
ATOM     10  N   UNL     1       7.925  -2.578  22.330  0.00  0.00    -0.272 NA
ATOM     11  C   UNL     1       7.968  -1.957  23.464  0.00  0.00    +0.093 C 
ATOM     12  O   UNL     1       7.968  -5.965  22.540  0.00  0.00    -0.273 OA
ATOM     13  C   UNL     1       7.167  -2.333  24.671  0.00  0.00    +0.024 A 
ATOM     14  C   UNL     1       6.578  -1.303  25.426  0.00  0.00    +0.027 A 
ENDROOT
BRANCH  11  15
ATOM     15  C   UNL     1       8.911  -0.791  23.578  0.00  0.00    +0.089 A 
ATOM     16  N   UNL     1       8.743   0.214  22.682  0.00  0.00    -0.253 NA
ATOM     17  C   UNL     1       9.554   1.286  22.815  0.00  0.00    +0.111 A 
ATOM     18  C   UNL     1      10.535   1.398  23.787  0.00  0.00    +0.020 A 
ATOM     19  C   UNL     1      10.694   0.351  24.687  0.00  0.00    +0.004 A 
ATOM     20  C   UNL     1       9.864  -0.763  24.590  0.00  0.00    +0.030 A 
ENDBRANCH  11  15
TORSDOF 1
ENDMDL
MODEL 7
REMARK VINA RESULT:      -5.6      2.431      4.841
REMARK  Name = 
REMARK  1 active torsions:
REMARK  status: ('A' for Active; 'I' for Inactive)
REMARK    1  A    between atoms: C_11  and  C_12
REMARK                            x       y       z     vdW  Elec       q    Type
REMARK                         _______ _______ _______ _____ _____    ______ ____
ROOT
ATOM      1 BR   UNL     1       7.985  -2.031  22.669  0.00  0.00    -0.050 Br
ATOM      2  C   UNL     1       7.812  -3.288  24.070  0.00  0.00    +0.019 A 
ATOM      3  C   UNL     1       8.938  -3.946  24.551  0.00  0.00    +0.017 A 
ATOM      4  C   UNL     1       8.808  -4.865  25.595  0.00  0.00    +0.025 A 
ATOM      5  C   UNL     1       7.557  -5.115  26.177  0.00  0.00    +0.043 A 
ATOM      6  N   UNL     1       7.550  -5.981  27.281  0.00  0.00    -0.283 N 
ATOM      7  H   UNL     1       8.342  -6.590  27.437  0.00  0.00    +0.155 HD
ATOM      8  C   UNL     1       6.672  -5.964  28.333  0.00  0.00    +0.239 C 
ATOM      9  C   UNL     1       5.636  -4.853  28.371  0.00  0.00    +0.238 C 
ATOM     10  N   UNL     1       4.659  -5.026  27.303  0.00  0.00    -0.272 NA
ATOM     11  C   UNL     1       5.030  -4.875  26.073  0.00  0.00    +0.093 C 
ATOM     12  O   UNL     1       6.821  -6.766  29.257  0.00  0.00    -0.273 OA
ATOM     13  C   UNL     1       6.413  -4.499  25.641  0.00  0.00    +0.024 A 
ATOM     14  C   UNL     1       6.554  -3.561  24.604  0.00  0.00    +0.027 A 
ENDROOT
BRANCH  11  15
ATOM     15  C   UNL     1       4.001  -5.121  25.006  0.00  0.00    +0.089 A 
ATOM     16  N   UNL     1       4.325  -6.025  24.047  0.00  0.00    -0.253 NA
ATOM     17  C   UNL     1       3.382  -6.287  23.116  0.00  0.00    +0.111 A 
ATOM     18  C   UNL     1       2.137  -5.680  23.085  0.00  0.00    +0.020 A 
ATOM     19  C   UNL     1       1.832  -4.749  24.072  0.00  0.00    +0.004 A 
ATOM     20  C   UNL     1       2.774  -4.467  25.057  0.00  0.00    +0.030 A 
ENDBRANCH  11  15
TORSDOF 1
ENDMDL
MODEL 8
REMARK VINA RESULT:      -5.6      4.016      6.146
REMARK  Name = 
REMARK  1 active torsions:
REMARK  status: ('A' for Active; 'I' for Inactive)
REMARK    1  A    between atoms: C_11  and  C_12
REMARK                            x       y       z     vdW  Elec       q    Type
REMARK                         _______ _______ _______ _____ _____    ______ ____
ROOT
ATOM      1 BR   UNL     1      10.892   3.378  23.508  0.00  0.00    -0.050 Br
ATOM      2  C   UNL     1      10.007   1.751  23.136  0.00  0.00    +0.019 A 
ATOM      3  C   UNL     1       9.899   1.308  21.823  0.00  0.00    +0.017 A 
ATOM      4  C   UNL     1       9.255   0.098  21.553  0.00  0.00    +0.025 A 
ATOM      5  C   UNL     1       8.734  -0.684  22.594  0.00  0.00    +0.043 A 
ATOM      6  N   UNL     1       8.195  -1.925  22.225  0.00  0.00    -0.283 N 
ATOM      7  H   UNL     1       7.945  -2.089  21.259  0.00  0.00    +0.155 HD
ATOM      8  C   UNL     1       8.151  -3.063  22.989  0.00  0.00    +0.239 C 
ATOM      9  C   UNL     1       8.821  -3.024  24.352  0.00  0.00    +0.238 C 
ATOM     10  N   UNL     1       8.087  -2.150  25.259  0.00  0.00    -0.272 NA
ATOM     11  C   UNL     1       8.071  -0.876  25.038  0.00  0.00    +0.093 C 
ATOM     12  O   UNL     1       7.681  -4.096  22.508  0.00  0.00    -0.273 OA
ATOM     13  C   UNL     1       8.785  -0.198  23.911  0.00  0.00    +0.024 A 
ATOM     14  C   UNL     1       9.452   1.010  24.178  0.00  0.00    +0.027 A 
ENDROOT
BRANCH  11  15
ATOM     15  C   UNL     1       7.252  -0.024  25.968  0.00  0.00    +0.089 A 
ATOM     16  N   UNL     1       7.687   0.064  27.251  0.00  0.00    -0.253 NA
ATOM     17  C   UNL     1       6.984   0.870  28.076  0.00  0.00    +0.111 A 
ATOM     18  C   UNL     1       5.859   1.580  27.689  0.00  0.00    +0.020 A 
ATOM     19  C   UNL     1       5.427   1.465  26.373  0.00  0.00    +0.004 A 
ATOM     20  C   UNL     1       6.138   0.657  25.490  0.00  0.00    +0.030 A 
ENDBRANCH  11  15
TORSDOF 1
ENDMDL
MODEL 9
REMARK VINA RESULT:      -5.5      3.210      5.686
REMARK  Name = 
REMARK  1 active torsions:
REMARK  status: ('A' for Active; 'I' for Inactive)
REMARK    1  A    between atoms: C_11  and  C_12
REMARK                            x       y       z     vdW  Elec       q    Type
REMARK                         _______ _______ _______ _____ _____    ______ ____
ROOT
ATOM      1 BR   UNL     1       4.189  -0.397  27.037  0.00  0.00    -0.050 Br
ATOM      2  C   UNL     1       5.519  -0.628  25.715  0.00  0.00    +0.019 A 
ATOM      3  C   UNL     1       5.932   0.459  24.954  0.00  0.00    +0.017 A 
ATOM      4  C   UNL     1       6.925   0.288  23.986  0.00  0.00    +0.025 A 
ATOM      5  C   UNL     1       7.523  -0.966  23.789  0.00  0.00    +0.043 A 
ATOM      6  N   UNL     1       8.575  -1.010  22.862  0.00  0.00    -0.283 N 
ATOM      7  H   UNL     1       8.677  -0.259  22.192  0.00  0.00    +0.155 HD
ATOM      8  C   UNL     1       9.648  -1.863  22.876  0.00  0.00    +0.239 C 
ATOM      9  C   UNL     1       9.776  -2.817  24.052  0.00  0.00    +0.238 C 
ATOM     10  N   UNL     1       8.724  -3.826  24.009  0.00  0.00    -0.272 NA
ATOM     11  C   UNL     1       7.496  -3.471  24.207  0.00  0.00    +0.093 C 
ATOM     12  O   UNL     1      10.520  -1.751  22.013  0.00  0.00    -0.273 OA
ATOM     13  C   UNL     1       7.052  -2.075  24.512  0.00  0.00    +0.024 A 
ATOM     14  C   UNL     1       6.067  -1.890  25.498  0.00  0.00    +0.027 A 
ENDROOT
BRANCH  11  15
ATOM     15  C   UNL     1       6.442  -4.538  24.096  0.00  0.00    +0.089 A 
ATOM     16  N   UNL     1       6.306  -5.369  25.160  0.00  0.00    -0.253 NA
ATOM     17  C   UNL     1       5.325  -6.295  25.085  0.00  0.00    +0.111 A 
ATOM     18  C   UNL     1       4.484  -6.443  23.993  0.00  0.00    +0.020 A 
ATOM     19  C   UNL     1       4.651  -5.586  22.912  0.00  0.00    +0.004 A 
ATOM     20  C   UNL     1       5.640  -4.608  22.962  0.00  0.00    +0.030 A 
ENDBRANCH  11  15
TORSDOF 1
ENDMDL
