MODEL 1
REMARK VINA RESULT:      -4.6      0.000      0.000
REMARK  Name = 
REMARK  9 active torsions:
REMARK  status: ('A' for Active; 'I' for Inactive)
REMARK    1  A    between atoms: N_1  and  CA_2
REMARK    2  A    between atoms: CA_2  and  C_4
REMARK    3  A    between atoms: CA_2  and  C_12
REMARK    4  A    between atoms: C_4  and  C_5
REMARK    5  A    between atoms: C_5  and  C_6
REMARK    6  A    between atoms: C_5  and  C_9
REMARK    7  A    between atoms: C_6  and  O_7
REMARK    8  A    between atoms: C_9  and  O_10
REMARK    9  A    between atoms: C_12  and  O_13
REMARK                            x       y       z     vdW  Elec       q    Type
REMARK                         _______ _______ _______ _____ _____    ______ ____
ROOT
ATOM      1  C   UNL     1       8.755  -3.307  25.581  0.00  0.00    +0.056 C 
ENDROOT
BRANCH   1   2
ATOM      2  CA  UNL     1       8.971  -4.607  26.380  0.00  0.00    +0.162 C 
BRANCH   2   3
ATOM      3  N   UNL     1       9.889  -5.509  25.607  0.00  0.00    -0.318 NA
ATOM      4  H1  UNL     1      10.173  -6.299  26.194  0.00  0.00    +0.119 HD
ATOM      5  H2  UNL     1       9.342  -5.933  24.850  0.00  0.00    +0.119 HD
ENDBRANCH   2   3
BRANCH   2   6
ATOM      6  C   UNL     1       7.656  -5.376  26.620  0.00  0.00    +0.322 C 
ATOM      7  OXT UNL     1       6.719  -5.432  25.840  0.00  0.00    -0.249 OA
BRANCH   6   8
ATOM      8  O   UNL     1       7.667  -6.011  27.819  0.00  0.00    -0.480 OA
ATOM      9  H   UNL     1       8.624  -6.166  28.030  0.00  0.00    +0.295 HD
ENDBRANCH   6   8
ENDBRANCH   2   6
ENDBRANCH   1   2
BRANCH   1  10
ATOM     10  C   UNL     1       9.241  -3.286  24.114  0.00  0.00    +0.207 C 
BRANCH  10  11
ATOM     11  C   UNL     1       9.924  -1.995  23.700  0.00  0.00    +0.319 C 
ATOM     12  O   UNL     1       9.957  -1.038  24.473  0.00  0.00    -0.250 OA
BRANCH  11  13
ATOM     13  O   UNL     1      10.502  -1.916  22.492  0.00  0.00    -0.480 OA
ATOM     14  H   UNL     1      10.798  -1.054  22.154  0.00  0.00    +0.295 HD
ENDBRANCH  11  13
ENDBRANCH  10  11
BRANCH  10  15
ATOM     15  C   UNL     1       8.128  -3.630  23.134  0.00  0.00    +0.319 C 
ATOM     16  O   UNL     1       7.598  -2.804  22.404  0.00  0.00    -0.250 OA
BRANCH  15  17
ATOM     17  O   UNL     1       7.714  -4.916  23.135  0.00  0.00    -0.480 OA
ATOM     18  H   UNL     1       8.275  -5.543  22.612  0.00  0.00    +0.295 HD
ENDBRANCH  15  17
ENDBRANCH  10  15
ENDBRANCH   1  10
TORSDOF 9
ENDMDL
MODEL 2
REMARK VINA RESULT:      -4.6      2.492      4.446
REMARK  Name = 
REMARK  9 active torsions:
REMARK  status: ('A' for Active; 'I' for Inactive)
REMARK    1  A    between atoms: N_1  and  CA_2
REMARK    2  A    between atoms: CA_2  and  C_4
REMARK    3  A    between atoms: CA_2  and  C_12
REMARK    4  A    between atoms: C_4  and  C_5
REMARK    5  A    between atoms: C_5  and  C_6
REMARK    6  A    between atoms: C_5  and  C_9
REMARK    7  A    between atoms: C_6  and  O_7
REMARK    8  A    between atoms: C_9  and  O_10
REMARK    9  A    between atoms: C_12  and  O_13
REMARK                            x       y       z     vdW  Elec       q    Type
REMARK                         _______ _______ _______ _____ _____    ______ ____
ROOT
ATOM      1  C   UNL     1       6.768  -5.152  24.026  0.00  0.00    +0.056 C 
ENDROOT
BRANCH   1   2
ATOM      2  CA  UNL     1       7.277  -4.926  22.589  0.00  0.00    +0.162 C 
BRANCH   2   3
ATOM      3  N   UNL     1       7.299  -3.452  22.304  0.00  0.00    -0.318 NA
ATOM      4  H1  UNL     1       6.352  -3.070  22.380  0.00  0.00    +0.119 HD
ATOM      5  H2  UNL     1       7.822  -2.998  23.061  0.00  0.00    +0.119 HD
ENDBRANCH   2   3
BRANCH   2   6
ATOM      6  C   UNL     1       6.369  -5.590  21.533  0.00  0.00    +0.322 C 
ATOM      7  OXT UNL     1       5.984  -5.063  20.502  0.00  0.00    -0.249 OA
BRANCH   6   8
ATOM      8  O   UNL     1       6.053  -6.862  21.884  0.00  0.00    -0.480 OA
ATOM      9  H   UNL     1       5.370  -6.780  22.597  0.00  0.00    +0.295 HD
ENDBRANCH   6   8
ENDBRANCH   2   6
ENDBRANCH   1   2
BRANCH   1  10
ATOM     10  C   UNL     1       7.704  -4.737  25.184  0.00  0.00    +0.207 C 
BRANCH  10  11
ATOM     11  C   UNL     1       9.184  -4.846  24.861  0.00  0.00    +0.319 C 
ATOM     12  O   UNL     1       9.790  -3.878  24.403  0.00  0.00    -0.250 OA
BRANCH  11  13
ATOM     13  O   UNL     1       9.823  -6.002  25.095  0.00  0.00    -0.480 OA
ATOM     14  H   UNL     1       9.872  -6.351  26.002  0.00  0.00    +0.295 HD
ENDBRANCH  11  13
ENDBRANCH  10  11
BRANCH  10  15
ATOM     15  C   UNL     1       7.390  -5.483  26.473  0.00  0.00    +0.319 C 
ATOM     16  O   UNL     1       6.369  -6.136  26.638  0.00  0.00    -0.250 OA
BRANCH  15  17
ATOM     17  O   UNL     1       8.297  -5.358  27.466  0.00  0.00    -0.480 OA
ATOM     18  H   UNL     1       9.029  -6.023  27.459  0.00  0.00    +0.295 HD
ENDBRANCH  15  17
ENDBRANCH  10  15
ENDBRANCH   1  10
TORSDOF 9
ENDMDL
MODEL 3
REMARK VINA RESULT:      -4.4      2.511      4.508
REMARK  Name = 
REMARK  9 active torsions:
REMARK  status: ('A' for Active; 'I' for Inactive)
REMARK    1  A    between atoms: N_1  and  CA_2
REMARK    2  A    between atoms: CA_2  and  C_4
REMARK    3  A    between atoms: CA_2  and  C_12
REMARK    4  A    between atoms: C_4  and  C_5
REMARK    5  A    between atoms: C_5  and  C_6
REMARK    6  A    between atoms: C_5  and  C_9
REMARK    7  A    between atoms: C_6  and  O_7
REMARK    8  A    between atoms: C_9  and  O_10
REMARK    9  A    between atoms: C_12  and  O_13
REMARK                            x       y       z     vdW  Elec       q    Type
REMARK                         _______ _______ _______ _____ _____    ______ ____
ROOT
ATOM      1  C   UNL     1       6.918  -4.421  24.425  0.00  0.00    +0.056 C 
ENDROOT
BRANCH   1   2
ATOM      2  CA  UNL     1       6.935  -4.823  22.937  0.00  0.00    +0.162 C 
BRANCH   2   3
ATOM      3  N   UNL     1       7.471  -3.678  22.127  0.00  0.00    -0.318 NA
ATOM      4  H1  UNL     1       6.753  -2.954  22.035  0.00  0.00    +0.119 HD
ATOM      5  H2  UNL     1       8.217  -3.234  22.673  0.00  0.00    +0.119 HD
ENDBRANCH   2   3
BRANCH   2   6
ATOM      6  C   UNL     1       5.527  -5.153  22.401  0.00  0.00    +0.322 C 
ATOM      7  OXT UNL     1       4.539  -4.450  22.533  0.00  0.00    -0.249 OA
BRANCH   6   8
ATOM      8  O   UNL     1       5.517  -6.337  21.737  0.00  0.00    -0.480 OA
ATOM      9  H   UNL     1       6.429  -6.709  21.843  0.00  0.00    +0.295 HD
ENDBRANCH   6   8
ENDBRANCH   2   6
ENDBRANCH   1   2
BRANCH   1  10
ATOM     10  C   UNL     1       7.860  -5.190  25.379  0.00  0.00    +0.207 C 
BRANCH  10  11
ATOM     11  C   UNL     1       7.506  -5.056  26.849  0.00  0.00    +0.319 C 
ATOM     12  O   UNL     1       6.931  -4.049  27.257  0.00  0.00    -0.250 OA
BRANCH  11  13
ATOM     13  O   UNL     1       7.815  -6.054  27.692  0.00  0.00    -0.480 OA
ATOM     14  H   UNL     1       7.249  -6.844  27.730  0.00  0.00    +0.295 HD
ENDBRANCH  11  13
ENDBRANCH  10  11
BRANCH  10  15
ATOM     15  C   UNL     1       9.323  -4.831  25.155  0.00  0.00    +0.319 C 
ATOM     16  O   UNL     1       9.685  -3.916  24.428  0.00  0.00    -0.250 OA
BRANCH  15  17
ATOM     17  O   UNL     1      10.228  -5.614  25.781  0.00  0.00    -0.480 OA
ATOM     18  H   UNL     1      10.018  -5.836  26.723  0.00  0.00    +0.295 HD
ENDBRANCH  15  17
ENDBRANCH  10  15
ENDBRANCH   1  10
TORSDOF 9
ENDMDL
MODEL 4
REMARK VINA RESULT:      -4.4      2.134      4.610
REMARK  Name = 
REMARK  9 active torsions:
REMARK  status: ('A' for Active; 'I' for Inactive)
REMARK    1  A    between atoms: N_1  and  CA_2
REMARK    2  A    between atoms: CA_2  and  C_4
REMARK    3  A    between atoms: CA_2  and  C_12
REMARK    4  A    between atoms: C_4  and  C_5
REMARK    5  A    between atoms: C_5  and  C_6
REMARK    6  A    between atoms: C_5  and  C_9
REMARK    7  A    between atoms: C_6  and  O_7
REMARK    8  A    between atoms: C_9  and  O_10
REMARK    9  A    between atoms: C_12  and  O_13
REMARK                            x       y       z     vdW  Elec       q    Type
REMARK                         _______ _______ _______ _____ _____    ______ ____
ROOT
ATOM      1  C   UNL     1      10.047  -2.549  23.841  0.00  0.00    +0.056 C 
ENDROOT
BRANCH   1   2
ATOM      2  CA  UNL     1       9.809  -1.033  23.694  0.00  0.00    +0.162 C 
BRANCH   2   3
ATOM      3  N   UNL     1       8.425  -0.706  24.178  0.00  0.00    -0.318 NA
ATOM      4  H1  UNL     1       8.227   0.285  24.012  0.00  0.00    +0.119 HD
ATOM      5  H2  UNL     1       7.761  -1.206  23.578  0.00  0.00    +0.119 HD
ENDBRANCH   2   3
BRANCH   2   6
ATOM      6  C   UNL     1       9.914  -0.561  22.229  0.00  0.00    +0.322 C 
ATOM      7  OXT UNL     1      10.004   0.600  21.867  0.00  0.00    -0.249 OA
BRANCH   6   8
ATOM      8  O   UNL     1       9.908  -1.612  21.371  0.00  0.00    -0.480 OA
ATOM      9  H   UNL     1      10.669  -1.457  20.754  0.00  0.00    +0.295 HD
ENDBRANCH   6   8
ENDBRANCH   2   6
ENDBRANCH   1   2
BRANCH   1  10
ATOM     10  C   UNL     1       8.892  -3.395  24.425  0.00  0.00    +0.207 C 
BRANCH  10  11
ATOM     11  C   UNL     1       9.339  -4.492  25.374  0.00  0.00    +0.319 C 
ATOM     12  O   UNL     1       8.743  -4.674  26.434  0.00  0.00    -0.250 OA
BRANCH  11  13
ATOM     13  O   UNL     1      10.380  -5.269  25.035  0.00  0.00    -0.480 OA
ATOM     14  H   UNL     1      10.231  -6.203  24.810  0.00  0.00    +0.295 HD
ENDBRANCH  11  13
ENDBRANCH  10  11
BRANCH  10  15
ATOM     15  C   UNL     1       7.996  -3.972  23.338  0.00  0.00    +0.319 C 
ATOM     16  O   UNL     1       7.543  -3.304  22.417  0.00  0.00    -0.250 OA
BRANCH  15  17
ATOM     17  O   UNL     1       7.684  -5.281  23.459  0.00  0.00    -0.480 OA
ATOM     18  H   UNL     1       7.914  -5.693  24.329  0.00  0.00    +0.295 HD
ENDBRANCH  15  17
ENDBRANCH  10  15
ENDBRANCH   1  10
TORSDOF 9
ENDMDL
MODEL 5
REMARK VINA RESULT:      -4.4      4.032      6.091
REMARK  Name = 
REMARK  9 active torsions:
REMARK  status: ('A' for Active; 'I' for Inactive)
REMARK    1  A    between atoms: N_1  and  CA_2
REMARK    2  A    between atoms: CA_2  and  C_4
REMARK    3  A    between atoms: CA_2  and  C_12
REMARK    4  A    between atoms: C_4  and  C_5
REMARK    5  A    between atoms: C_5  and  C_6
REMARK    6  A    between atoms: C_5  and  C_9
REMARK    7  A    between atoms: C_6  and  O_7
REMARK    8  A    between atoms: C_9  and  O_10
REMARK    9  A    between atoms: C_12  and  O_13
REMARK                            x       y       z     vdW  Elec       q    Type
REMARK                         _______ _______ _______ _____ _____    ______ ____
ROOT
ATOM      1  C   UNL     1       8.302  -0.098  22.726  0.00  0.00    +0.056 C 
ENDROOT
BRANCH   1   2
ATOM      2  CA  UNL     1       7.710   1.277  23.093  0.00  0.00    +0.162 C 
BRANCH   2   3
ATOM      3  N   UNL     1       6.214   1.210  22.981  0.00  0.00    -0.318 NA
ATOM      4  H1  UNL     1       5.895   1.822  22.225  0.00  0.00    +0.119 HD
ATOM      5  H2  UNL     1       5.968   0.264  22.669  0.00  0.00    +0.119 HD
ENDBRANCH   2   3
BRANCH   2   6
ATOM      6  C   UNL     1       8.196   2.397  22.151  0.00  0.00    +0.322 C 
ATOM      7  OXT UNL     1       7.596   3.434  21.918  0.00  0.00    -0.249 OA
BRANCH   6   8
ATOM      8  O   UNL     1       9.404   2.097  21.609  0.00  0.00    -0.480 OA
ATOM      9  H   UNL     1       9.265   1.262  21.094  0.00  0.00    +0.295 HD
ENDBRANCH   6   8
ENDBRANCH   2   6
ENDBRANCH   1   2
BRANCH   1  10
ATOM     10  C   UNL     1       9.208  -0.784  23.774  0.00  0.00    +0.207 C 
BRANCH  10  11
ATOM     11  C   UNL     1      10.113   0.168  24.536  0.00  0.00    +0.319 C 
ATOM     12  O   UNL     1      10.980   0.806  23.940  0.00  0.00    -0.250 OA
BRANCH  11  13
ATOM     13  O   UNL     1       9.946   0.315  25.859  0.00  0.00    -0.480 OA
ATOM     14  H   UNL     1       9.317   0.976  26.195  0.00  0.00    +0.295 HD
ENDBRANCH  11  13
ENDBRANCH  10  11
BRANCH  10  15
ATOM     15  C   UNL     1      10.024  -1.920  23.174  0.00  0.00    +0.319 C 
ATOM     16  O   UNL     1      10.229  -2.978  23.755  0.00  0.00    -0.250 OA
BRANCH  15  17
ATOM     17  O   UNL     1      10.557  -1.688  21.955  0.00  0.00    -0.480 OA
ATOM     18  H   UNL     1      10.916  -0.776  21.816  0.00  0.00    +0.295 HD
ENDBRANCH  15  17
ENDBRANCH  10  15
ENDBRANCH   1  10
TORSDOF 9
ENDMDL
MODEL 6
REMARK VINA RESULT:      -4.4      2.506      4.115
REMARK  Name = 
REMARK  9 active torsions:
REMARK  status: ('A' for Active; 'I' for Inactive)
REMARK    1  A    between atoms: N_1  and  CA_2
REMARK    2  A    between atoms: CA_2  and  C_4
REMARK    3  A    between atoms: CA_2  and  C_12
REMARK    4  A    between atoms: C_4  and  C_5
REMARK    5  A    between atoms: C_5  and  C_6
REMARK    6  A    between atoms: C_5  and  C_9
REMARK    7  A    between atoms: C_6  and  O_7
REMARK    8  A    between atoms: C_9  and  O_10
REMARK    9  A    between atoms: C_12  and  O_13
REMARK                            x       y       z     vdW  Elec       q    Type
REMARK                         _______ _______ _______ _____ _____    ______ ____
ROOT
ATOM      1  C   UNL     1       7.555  -5.344  23.431  0.00  0.00    +0.056 C 
ENDROOT
BRANCH   1   2
ATOM      2  CA  UNL     1       6.063  -5.200  23.071  0.00  0.00    +0.162 C 
BRANCH   2   3
ATOM      3  N   UNL     1       5.466  -6.568  22.906  0.00  0.00    -0.318 NA
ATOM      4  H1  UNL     1       4.447  -6.515  23.001  0.00  0.00    +0.119 HD
ATOM      5  H2  UNL     1       5.620  -6.859  21.935  0.00  0.00    +0.119 HD
ENDBRANCH   2   3
BRANCH   2   6
ATOM      6  C   UNL     1       5.847  -4.437  21.749  0.00  0.00    +0.322 C 
ATOM      7  OXT UNL     1       5.595  -3.247  21.654  0.00  0.00    -0.249 OA
BRANCH   6   8
ATOM      8  O   UNL     1       5.987  -5.257  20.676  0.00  0.00    -0.480 OA
ATOM      9  H   UNL     1       6.124  -4.658  19.898  0.00  0.00    +0.295 HD
ENDBRANCH   6   8
ENDBRANCH   2   6
ENDBRANCH   1   2
BRANCH   1  10
ATOM     10  C   UNL     1       8.145  -4.324  24.430  0.00  0.00    +0.207 C 
BRANCH  10  11
ATOM     11  C   UNL     1       8.927  -3.195  23.783  0.00  0.00    +0.319 C 
ATOM     12  O   UNL     1      10.141  -3.104  23.956  0.00  0.00    -0.250 OA
BRANCH  11  13
ATOM     13  O   UNL     1       8.280  -2.309  23.009  0.00  0.00    -0.480 OA
ATOM     14  H   UNL     1       8.778  -1.779  22.364  0.00  0.00    +0.295 HD
ENDBRANCH  11  13
ENDBRANCH  10  11
BRANCH  10  15
ATOM     15  C   UNL     1       8.986  -4.995  25.508  0.00  0.00    +0.319 C 
ATOM     16  O   UNL     1       8.871  -4.746  26.701  0.00  0.00    -0.250 OA
BRANCH  15  17
ATOM     17  O   UNL     1       9.914  -5.875  25.073  0.00  0.00    -0.480 OA
ATOM     18  H   UNL     1       9.634  -6.824  25.075  0.00  0.00    +0.295 HD
ENDBRANCH  15  17
ENDBRANCH  10  15
ENDBRANCH   1  10
TORSDOF 9
ENDMDL
MODEL 7
REMARK VINA RESULT:      -4.3      2.655      3.988
REMARK  Name = 
REMARK  9 active torsions:
REMARK  status: ('A' for Active; 'I' for Inactive)
REMARK    1  A    between atoms: N_1  and  CA_2
REMARK    2  A    between atoms: CA_2  and  C_4
REMARK    3  A    between atoms: CA_2  and  C_12
REMARK    4  A    between atoms: C_4  and  C_5
REMARK    5  A    between atoms: C_5  and  C_6
REMARK    6  A    between atoms: C_5  and  C_9
REMARK    7  A    between atoms: C_6  and  O_7
REMARK    8  A    between atoms: C_9  and  O_10
REMARK    9  A    between atoms: C_12  and  O_13
REMARK                            x       y       z     vdW  Elec       q    Type
REMARK                         _______ _______ _______ _____ _____    ______ ____
ROOT
ATOM      1  C   UNL     1       6.792  -5.048  24.386  0.00  0.00    +0.056 C 
ENDROOT
BRANCH   1   2
ATOM      2  CA  UNL     1       6.048  -5.691  23.199  0.00  0.00    +0.162 C 
BRANCH   2   3
ATOM      3  N   UNL     1       7.031  -5.970  22.099  0.00  0.00    -0.318 NA
ATOM      4  H1  UNL     1       6.564  -6.471  21.337  0.00  0.00    +0.119 HD
ATOM      5  H2  UNL     1       7.301  -5.069  21.688  0.00  0.00    +0.119 HD
ENDBRANCH   2   3
BRANCH   2   6
ATOM      6  C   UNL     1       4.953  -4.770  22.622  0.00  0.00    +0.322 C 
ATOM      7  OXT UNL     1       3.762  -4.845  22.875  0.00  0.00    -0.249 OA
BRANCH   6   8
ATOM      8  O   UNL     1       5.482  -3.835  21.792  0.00  0.00    -0.480 OA
ATOM      9  H   UNL     1       6.458  -3.849  21.963  0.00  0.00    +0.295 HD
ENDBRANCH   6   8
ENDBRANCH   2   6
ENDBRANCH   1   2
BRANCH   1  10
ATOM     10  C   UNL     1       8.311  -4.814  24.229  0.00  0.00    +0.207 C 
BRANCH  10  11
ATOM     11  C   UNL     1       9.122  -5.105  25.479  0.00  0.00    +0.319 C 
ATOM     12  O   UNL     1       8.640  -4.896  26.591  0.00  0.00    -0.250 OA
BRANCH  11  13
ATOM     13  O   UNL     1      10.359  -5.608  25.356  0.00  0.00    -0.480 OA
ATOM     14  H   UNL     1      10.514  -6.371  24.774  0.00  0.00    +0.295 HD
ENDBRANCH  11  13
ENDBRANCH  10  11
BRANCH  10  15
ATOM     15  C   UNL     1       8.626  -3.417  23.711  0.00  0.00    +0.319 C 
ATOM     16  O   UNL     1       8.149  -2.960  22.680  0.00  0.00    -0.250 OA
BRANCH  15  17
ATOM     17  O   UNL     1       9.509  -2.700  24.439  0.00  0.00    -0.480 OA
ATOM     18  H   UNL     1      10.082  -3.227  25.051  0.00  0.00    +0.295 HD
ENDBRANCH  15  17
ENDBRANCH  10  15
ENDBRANCH   1  10
TORSDOF 9
ENDMDL
MODEL 8
REMARK VINA RESULT:      -4.2      2.358      3.933
REMARK  Name = 
REMARK  9 active torsions:
REMARK  status: ('A' for Active; 'I' for Inactive)
REMARK    1  A    between atoms: N_1  and  CA_2
REMARK    2  A    between atoms: CA_2  and  C_4
REMARK    3  A    between atoms: CA_2  and  C_12
REMARK    4  A    between atoms: C_4  and  C_5
REMARK    5  A    between atoms: C_5  and  C_6
REMARK    6  A    between atoms: C_5  and  C_9
REMARK    7  A    between atoms: C_6  and  O_7
REMARK    8  A    between atoms: C_9  and  O_10
REMARK    9  A    between atoms: C_12  and  O_13
REMARK                            x       y       z     vdW  Elec       q    Type
REMARK                         _______ _______ _______ _____ _____    ______ ____
ROOT
ATOM      1  C   UNL     1       6.843  -4.317  24.778  0.00  0.00    +0.056 C 
ENDROOT
BRANCH   1   2
ATOM      2  CA  UNL     1       7.927  -5.361  25.106  0.00  0.00    +0.162 C 
BRANCH   2   3
ATOM      3  N   UNL     1       7.823  -5.735  26.557  0.00  0.00    -0.318 NA
ATOM      4  H1  UNL     1       8.504  -6.468  26.775  0.00  0.00    +0.119 HD
ATOM      5  H2  UNL     1       8.129  -4.926  27.109  0.00  0.00    +0.119 HD
ENDBRANCH   2   3
BRANCH   2   6
ATOM      6  C   UNL     1       9.353  -4.825  24.866  0.00  0.00    +0.322 C 
ATOM      7  OXT UNL     1       9.628  -3.774  24.311  0.00  0.00    -0.249 OA
BRANCH   6   8
ATOM      8  O   UNL     1      10.290  -5.671  25.366  0.00  0.00    -0.480 OA
ATOM      9  H   UNL     1      11.165  -5.266  25.137  0.00  0.00    +0.295 HD
ENDBRANCH   6   8
ENDBRANCH   2   6
ENDBRANCH   1   2
BRANCH   1  10
ATOM     10  C   UNL     1       5.976  -4.564  23.522  0.00  0.00    +0.207 C 
BRANCH  10  11
ATOM     11  C   UNL     1       6.015  -5.991  23.007  0.00  0.00    +0.319 C 
ATOM     12  O   UNL     1       6.840  -6.319  22.156  0.00  0.00    -0.250 OA
BRANCH  11  13
ATOM     13  O   UNL     1       5.152  -6.892  23.502  0.00  0.00    -0.480 OA
ATOM     14  H   UNL     1       5.477  -7.606  24.075  0.00  0.00    +0.295 HD
ENDBRANCH  11  13
ENDBRANCH  10  11
BRANCH  10  15
ATOM     15  C   UNL     1       6.300  -3.589  22.399  0.00  0.00    +0.319 C 
ATOM     16  O   UNL     1       5.454  -3.135  21.640  0.00  0.00    -0.250 OA
BRANCH  15  17
ATOM     17  O   UNL     1       7.604  -3.270  22.249  0.00  0.00    -0.480 OA
ATOM     18  H   UNL     1       8.243  -3.860  22.722  0.00  0.00    +0.295 HD
ENDBRANCH  15  17
ENDBRANCH  10  15
ENDBRANCH   1  10
TORSDOF 9
ENDMDL
MODEL 9
REMARK VINA RESULT:      -4.2      2.129      3.034
REMARK  Name = 
REMARK  9 active torsions:
REMARK  status: ('A' for Active; 'I' for Inactive)
REMARK    1  A    between atoms: N_1  and  CA_2
REMARK    2  A    between atoms: CA_2  and  C_4
REMARK    3  A    between atoms: CA_2  and  C_12
REMARK    4  A    between atoms: C_4  and  C_5
REMARK    5  A    between atoms: C_5  and  C_6
REMARK    6  A    between atoms: C_5  and  C_9
REMARK    7  A    between atoms: C_6  and  O_7
REMARK    8  A    between atoms: C_9  and  O_10
REMARK    9  A    between atoms: C_12  and  O_13
REMARK                            x       y       z     vdW  Elec       q    Type
REMARK                         _______ _______ _______ _____ _____    ______ ____
ROOT
ATOM      1  C   UNL     1       7.851  -5.696  23.288  0.00  0.00    +0.056 C 
ENDROOT
BRANCH   1   2
ATOM      2  CA  UNL     1       8.383  -4.959  24.532  0.00  0.00    +0.162 C 
BRANCH   2   3
ATOM      3  N   UNL     1       9.775  -5.439  24.827  0.00  0.00    -0.318 NA
ATOM      4  H1  UNL     1       9.821  -6.456  24.714  0.00  0.00    +0.119 HD
ATOM      5  H2  UNL     1      10.393  -5.070  24.096  0.00  0.00    +0.119 HD
ENDBRANCH   2   3
BRANCH   2   6
ATOM      6  C   UNL     1       7.524  -5.224  25.785  0.00  0.00    +0.322 C 
ATOM      7  OXT UNL     1       6.344  -4.936  25.906  0.00  0.00    -0.249 OA
BRANCH   6   8
ATOM      8  O   UNL     1       8.244  -5.841  26.756  0.00  0.00    -0.480 OA
ATOM      9  H   UNL     1       7.982  -5.401  27.604  0.00  0.00    +0.295 HD
ENDBRANCH   6   8
ENDBRANCH   2   6
ENDBRANCH   1   2
BRANCH   1  10
ATOM     10  C   UNL     1       7.177  -4.841  22.190  0.00  0.00    +0.207 C 
BRANCH  10  11
ATOM     11  C   UNL     1       6.664  -3.496  22.673  0.00  0.00    +0.319 C 
ATOM     12  O   UNL     1       7.288  -2.468  22.415  0.00  0.00    -0.250 OA
BRANCH  11  13
ATOM     13  O   UNL     1       5.518  -3.442  23.368  0.00  0.00    -0.480 OA
ATOM     14  H   UNL     1       5.492  -2.977  24.221  0.00  0.00    +0.295 HD
ENDBRANCH  11  13
ENDBRANCH  10  11
BRANCH  10  15
ATOM     15  C   UNL     1       6.069  -5.599  21.471  0.00  0.00    +0.319 C 
ATOM     16  O   UNL     1       5.954  -5.621  20.252  0.00  0.00    -0.250 OA
BRANCH  15  17
ATOM     17  O   UNL     1       5.175  -6.232  22.260  0.00  0.00    -0.480 OA
ATOM     18  H   UNL     1       5.489  -6.440  23.176  0.00  0.00    +0.295 HD
ENDBRANCH  15  17
ENDBRANCH  10  15
ENDBRANCH   1  10
TORSDOF 9
ENDMDL
