MODEL 1
REMARK VINA RESULT:      -7.2      0.000      0.000
REMARK  Name = 
REMARK  8 active torsions:
REMARK  status: ('A' for Active; 'I' for Inactive)
REMARK    1  A    between atoms: O_1  and  C_2
REMARK    2  A    between atoms: C_4  and  C_6
REMARK    3  A    between atoms: C_6  and  O_7
REMARK    4  A    between atoms: O_7  and  P_8
REMARK    5  A    between atoms: P_8  and  O_9
REMARK    6  A    between atoms: P_8  and  O_10
REMARK    7  A    between atoms: C_13  and  N_18
REMARK    8  A    between atoms: C_15  and  O_17
REMARK                            x       y       z     vdW  Elec       q    Type
REMARK                         _______ _______ _______ _____ _____    ______ ____
ROOT
ATOM      1  C   UNL     1       8.050  -5.496  26.122  0.00  0.00    +0.178 C 
ATOM      2  C   UNL     1       9.300  -4.704  25.759  0.00  0.00    +0.195 C 
ATOM      3  C   UNL     1       8.834  -3.801  24.602  0.00  0.00    +0.253 C 
ATOM      4  O   UNL     1       7.425  -4.027  24.393  0.00  0.00    -0.346 OA
ATOM      5  C   UNL     1       6.916  -4.633  25.594  0.00  0.00    +0.178 C 
ENDROOT
BRANCH   3   6
ATOM      6  N   UNL     1       9.046  -2.375  24.775  0.00  0.00    -0.285 N 
ATOM      7  C   UNL     1       9.413  -1.440  23.848  0.00  0.00    +0.169 A 
ATOM      8  N   UNL     1       9.636  -1.643  22.526  0.00  0.00    -0.218 NA
ATOM      9  C   UNL     1       9.944  -0.552  21.891  0.00  0.00    +0.201 A 
ATOM     10  N   UNL     1      10.060   0.700  22.465  0.00  0.00    -0.312 N 
ATOM     11  H   UNL     1      10.312   1.504  21.909  0.00  0.00    +0.170 HD
ATOM     12  C   UNL     1       9.852   0.947  23.815  0.00  0.00    +0.279 A 
ATOM     13  O   UNL     1       9.975   2.071  24.291  0.00  0.00    -0.265 OA
ATOM     14  C   UNL     1       9.484  -0.250  24.543  0.00  0.00    +0.172 A 
ATOM     15  N   UNL     1       9.161  -0.422  25.865  0.00  0.00    -0.229 NA
ATOM     16  C   UNL     1       8.919  -1.713  25.977  0.00  0.00    +0.203 A 
ENDBRANCH   3   6
BRANCH   1  17
ATOM     17  O   UNL     1       7.952  -5.714  27.526  0.00  0.00    -0.386 OA
ATOM     18  H   UNL     1       8.665  -5.217  27.963  0.00  0.00    +0.210 HD
ENDBRANCH   1  17
BRANCH   2  19
ATOM     19  O   UNL     1      10.325  -5.615  25.321  0.00  0.00    -0.385 OA
ATOM     20  H   UNL     1      11.071  -5.526  25.940  0.00  0.00    +0.210 HD
ENDBRANCH   2  19
BRANCH   5  21
ATOM     21  C   UNL     1       5.674  -5.467  25.291  0.00  0.00    +0.206 C 
BRANCH  21  22
ATOM     22  O   UNL     1       5.666  -6.609  26.130  0.00  0.00    -0.284 OA
BRANCH  22  23
ATOM     23  P   UNL     1       4.643  -6.619  27.356  0.00  0.00    +0.472 P 
ATOM     24  O   UNL     1       4.235  -5.279  27.859  0.00  0.00    -0.228 OA
BRANCH  23  25
ATOM     25  O   UNL     1       5.377  -7.521  28.445  0.00  0.00    -0.303 OA
ATOM     26  H   UNL     1       6.076  -8.066  28.047  0.00  0.00    +0.222 HD
ENDBRANCH  23  25
BRANCH  23  27
ATOM     27  O   UNL     1       3.463  -7.554  26.835  0.00  0.00    -0.303 OA
ATOM     28  H   UNL     1       3.788  -8.438  26.599  0.00  0.00    +0.222 HD
ENDBRANCH  23  27
ENDBRANCH  22  23
ENDBRANCH  21  22
ENDBRANCH   5  21
TORSDOF 8
ENDMDL
MODEL 2
REMARK VINA RESULT:      -7.1      1.718      2.282
REMARK  Name = 
REMARK  8 active torsions:
REMARK  status: ('A' for Active; 'I' for Inactive)
REMARK    1  A    between atoms: O_1  and  C_2
REMARK    2  A    between atoms: C_4  and  C_6
REMARK    3  A    between atoms: C_6  and  O_7
REMARK    4  A    between atoms: O_7  and  P_8
REMARK    5  A    between atoms: P_8  and  O_9
REMARK    6  A    between atoms: P_8  and  O_10
REMARK    7  A    between atoms: C_13  and  N_18
REMARK    8  A    between atoms: C_15  and  O_17
REMARK                            x       y       z     vdW  Elec       q    Type
REMARK                         _______ _______ _______ _____ _____    ______ ____
ROOT
ATOM      1  C   UNL     1       8.035  -5.545  26.140  0.00  0.00    +0.178 C 
ATOM      2  C   UNL     1       9.271  -4.726  25.790  0.00  0.00    +0.195 C 
ATOM      3  C   UNL     1       8.798  -3.833  24.628  0.00  0.00    +0.253 C 
ATOM      4  O   UNL     1       7.397  -4.090  24.403  0.00  0.00    -0.346 OA
ATOM      5  C   UNL     1       6.888  -4.707  25.598  0.00  0.00    +0.178 C 
ENDROOT
BRANCH   3   6
ATOM      6  N   UNL     1       8.977  -2.403  24.804  0.00  0.00    -0.285 N 
ATOM      7  C   UNL     1       9.365  -1.464  23.887  0.00  0.00    +0.169 A 
ATOM      8  N   UNL     1       9.646  -1.668  22.577  0.00  0.00    -0.218 NA
ATOM      9  C   UNL     1       9.960  -0.574  21.951  0.00  0.00    +0.201 A 
ATOM     10  N   UNL     1      10.029   0.682  22.523  0.00  0.00    -0.312 N 
ATOM     11  H   UNL     1      10.289   1.488  21.974  0.00  0.00    +0.170 HD
ATOM     12  C   UNL     1       9.762   0.930  23.862  0.00  0.00    +0.279 A 
ATOM     13  O   UNL     1       9.845   2.058  24.338  0.00  0.00    -0.265 OA
ATOM     14  C   UNL     1       9.385  -0.271  24.580  0.00  0.00    +0.172 A 
ATOM     15  N   UNL     1       9.012  -0.444  25.888  0.00  0.00    -0.229 NA
ATOM     16  C   UNL     1       8.789  -1.739  25.996  0.00  0.00    +0.203 A 
ENDBRANCH   3   6
BRANCH   1  17
ATOM     17  O   UNL     1       7.926  -5.766  27.542  0.00  0.00    -0.386 OA
ATOM     18  H   UNL     1       8.810  -5.982  27.887  0.00  0.00    +0.210 HD
ENDBRANCH   1  17
BRANCH   2  19
ATOM     19  O   UNL     1      10.321  -5.614  25.363  0.00  0.00    -0.385 OA
ATOM     20  H   UNL     1      10.044  -5.997  24.512  0.00  0.00    +0.210 HD
ENDBRANCH   2  19
BRANCH   5  21
ATOM     21  C   UNL     1       5.668  -5.568  25.282  0.00  0.00    +0.206 C 
BRANCH  21  22
ATOM     22  O   UNL     1       4.696  -4.772  24.627  0.00  0.00    -0.284 OA
BRANCH  22  23
ATOM     23  P   UNL     1       4.263  -5.199  23.151  0.00  0.00    +0.472 P 
ATOM     24  O   UNL     1       2.797  -5.272  22.910  0.00  0.00    -0.228 OA
BRANCH  23  25
ATOM     25  O   UNL     1       5.024  -6.580  22.925  0.00  0.00    -0.303 OA
ATOM     26  H   UNL     1       5.478  -6.876  23.732  0.00  0.00    +0.222 HD
ENDBRANCH  23  25
BRANCH  23  27
ATOM     27  O   UNL     1       5.068  -4.178  22.229  0.00  0.00    -0.303 OA
ATOM     28  H   UNL     1       5.052  -3.280  22.595  0.00  0.00    +0.222 HD
ENDBRANCH  23  27
ENDBRANCH  22  23
ENDBRANCH  21  22
ENDBRANCH   5  21
TORSDOF 8
ENDMDL
MODEL 3
REMARK VINA RESULT:      -6.9      3.553      7.396
REMARK  Name = 
REMARK  8 active torsions:
REMARK  status: ('A' for Active; 'I' for Inactive)
REMARK    1  A    between atoms: O_1  and  C_2
REMARK    2  A    between atoms: C_4  and  C_6
REMARK    3  A    between atoms: C_6  and  O_7
REMARK    4  A    between atoms: O_7  and  P_8
REMARK    5  A    between atoms: P_8  and  O_9
REMARK    6  A    between atoms: P_8  and  O_10
REMARK    7  A    between atoms: C_13  and  N_18
REMARK    8  A    between atoms: C_15  and  O_17
REMARK                            x       y       z     vdW  Elec       q    Type
REMARK                         _______ _______ _______ _____ _____    ______ ____
ROOT
ATOM      1  C   UNL     1       6.831  -1.966  22.528  0.00  0.00    +0.178 C 
ATOM      2  C   UNL     1       6.062  -3.074  23.238  0.00  0.00    +0.195 C 
ATOM      3  C   UNL     1       7.151  -4.104  23.589  0.00  0.00    +0.253 C 
ATOM      4  O   UNL     1       8.425  -3.574  23.169  0.00  0.00    -0.346 OA
ATOM      5  C   UNL     1       8.258  -2.154  23.017  0.00  0.00    +0.178 C 
ENDROOT
BRANCH   3   6
ATOM      6  N   UNL     1       7.253  -4.480  24.988  0.00  0.00    -0.285 N 
ATOM      7  C   UNL     1       6.458  -5.325  25.712  0.00  0.00    +0.169 A 
ATOM      8  N   UNL     1       5.394  -6.034  25.262  0.00  0.00    -0.218 NA
ATOM      9  C   UNL     1       4.854  -6.775  26.183  0.00  0.00    +0.201 A 
ATOM     10  N   UNL     1       5.275  -6.849  27.497  0.00  0.00    -0.312 N 
ATOM     11  H   UNL     1       4.800  -7.443  28.161  0.00  0.00    +0.170 HD
ATOM     12  C   UNL     1       6.351  -6.131  27.999  0.00  0.00    +0.279 A 
ATOM     13  O   UNL     1       6.690  -6.215  29.176  0.00  0.00    -0.265 OA
ATOM     14  C   UNL     1       6.988  -5.313  26.986  0.00  0.00    +0.172 A 
ATOM     15  N   UNL     1       8.088  -4.498  27.065  0.00  0.00    -0.229 NA
ATOM     16  C   UNL     1       8.212  -3.999  25.851  0.00  0.00    +0.203 A 
ENDBRANCH   3   6
BRANCH   1  17
ATOM     17  O   UNL     1       6.317  -0.677  22.848  0.00  0.00    -0.386 OA
ATOM     18  H   UNL     1       7.060  -0.109  23.114  0.00  0.00    +0.210 HD
ENDBRANCH   1  17
BRANCH   2  19
ATOM     19  O   UNL     1       5.096  -3.635  22.329  0.00  0.00    -0.385 OA
ATOM     20  H   UNL     1       5.521  -3.686  21.455  0.00  0.00    +0.210 HD
ENDBRANCH   2  19
BRANCH   5  21
ATOM     21  C   UNL     1       9.268  -1.596  22.018  0.00  0.00    +0.206 C 
BRANCH  21  22
ATOM     22  O   UNL     1       8.930  -0.254  21.715  0.00  0.00    -0.284 OA
BRANCH  22  23
ATOM     23  P   UNL     1       9.611   0.896  22.588  0.00  0.00    +0.472 P 
ATOM     24  O   UNL     1      10.723   0.453  23.472  0.00  0.00    -0.228 OA
BRANCH  23  25
ATOM     25  O   UNL     1       8.385   1.546  23.370  0.00  0.00    -0.303 OA
ATOM     26  H   UNL     1       8.679   2.239  23.986  0.00  0.00    +0.222 HD
ENDBRANCH  23  25
BRANCH  23  27
ATOM     27  O   UNL     1       9.985   2.000  21.502  0.00  0.00    -0.303 OA
ATOM     28  H   UNL     1      10.928   1.969  21.274  0.00  0.00    +0.222 HD
ENDBRANCH  23  27
ENDBRANCH  22  23
ENDBRANCH  21  22
ENDBRANCH   5  21
TORSDOF 8
ENDMDL
MODEL 4
REMARK VINA RESULT:      -6.8      1.734      1.863
REMARK  Name = 
REMARK  8 active torsions:
REMARK  status: ('A' for Active; 'I' for Inactive)
REMARK    1  A    between atoms: O_1  and  C_2
REMARK    2  A    between atoms: C_4  and  C_6
REMARK    3  A    between atoms: C_6  and  O_7
REMARK    4  A    between atoms: O_7  and  P_8
REMARK    5  A    between atoms: P_8  and  O_9
REMARK    6  A    between atoms: P_8  and  O_10
REMARK    7  A    between atoms: C_13  and  N_18
REMARK    8  A    between atoms: C_15  and  O_17
REMARK                            x       y       z     vdW  Elec       q    Type
REMARK                         _______ _______ _______ _____ _____    ______ ____
ROOT
ATOM      1  C   UNL     1       7.889  -5.543  26.001  0.00  0.00    +0.178 C 
ATOM      2  C   UNL     1       8.755  -4.760  25.021  0.00  0.00    +0.195 C 
ATOM      3  C   UNL     1       7.815  -4.505  23.830  0.00  0.00    +0.253 C 
ATOM      4  O   UNL     1       6.517  -5.041  24.155  0.00  0.00    -0.346 OA
ATOM      5  C   UNL     1       6.471  -5.185  25.586  0.00  0.00    +0.178 C 
ENDROOT
BRANCH   3   6
ATOM      6  N   UNL     1       7.647  -3.119  23.429  0.00  0.00    -0.285 N 
ATOM      7  C   UNL     1       8.591  -2.225  23.003  0.00  0.00    +0.169 A 
ATOM      8  N   UNL     1       9.916  -2.454  22.832  0.00  0.00    -0.218 NA
ATOM      9  C   UNL     1      10.556  -1.415  22.387  0.00  0.00    +0.201 A 
ATOM     10  N   UNL     1       9.989  -0.182  22.120  0.00  0.00    -0.312 N 
ATOM     11  H   UNL     1      10.553   0.585  21.783  0.00  0.00    +0.170 HD
ATOM     12  C   UNL     1       8.641   0.095  22.295  0.00  0.00    +0.279 A 
ATOM     13  O   UNL     1       8.176   1.206  22.057  0.00  0.00    -0.265 OA
ATOM     14  C   UNL     1       7.898  -1.055  22.768  0.00  0.00    +0.172 A 
ATOM     15  N   UNL     1       6.559  -1.204  23.024  0.00  0.00    -0.229 NA
ATOM     16  C   UNL     1       6.443  -2.451  23.435  0.00  0.00    +0.203 A 
ENDBRANCH   3   6
BRANCH   1  17
ATOM     17  O   UNL     1       8.162  -5.183  27.352  0.00  0.00    -0.386 OA
ATOM     18  H   UNL     1       8.407  -4.242  27.374  0.00  0.00    +0.210 HD
ENDBRANCH   1  17
BRANCH   2  19
ATOM     19  O   UNL     1       9.876  -5.573  24.629  0.00  0.00    -0.385 OA
ATOM     20  H   UNL     1      10.660  -4.997  24.624  0.00  0.00    +0.210 HD
ENDBRANCH   2  19
BRANCH   5  21
ATOM     21  C   UNL     1       5.480  -6.275  25.986  0.00  0.00    +0.206 C 
BRANCH  21  22
ATOM     22  O   UNL     1       5.825  -6.767  27.269  0.00  0.00    -0.284 OA
BRANCH  22  23
ATOM     23  P   UNL     1       5.002  -6.213  28.520  0.00  0.00    +0.472 P 
ATOM     24  O   UNL     1       4.018  -5.140  28.213  0.00  0.00    -0.228 OA
BRANCH  23  25
ATOM     25  O   UNL     1       6.138  -5.771  29.547  0.00  0.00    -0.303 OA
ATOM     26  H   UNL     1       5.822  -5.802  30.466  0.00  0.00    +0.222 HD
ENDBRANCH  23  25
BRANCH  23  27
ATOM     27  O   UNL     1       4.405  -7.536  29.176  0.00  0.00    -0.303 OA
ATOM     28  H   UNL     1       4.227  -8.215  28.506  0.00  0.00    +0.222 HD
ENDBRANCH  23  27
ENDBRANCH  22  23
ENDBRANCH  21  22
ENDBRANCH   5  21
TORSDOF 8
ENDMDL
MODEL 5
REMARK VINA RESULT:      -6.8      3.926      7.417
REMARK  Name = 
REMARK  8 active torsions:
REMARK  status: ('A' for Active; 'I' for Inactive)
REMARK    1  A    between atoms: O_1  and  C_2
REMARK    2  A    between atoms: C_4  and  C_6
REMARK    3  A    between atoms: C_6  and  O_7
REMARK    4  A    between atoms: O_7  and  P_8
REMARK    5  A    between atoms: P_8  and  O_9
REMARK    6  A    between atoms: P_8  and  O_10
REMARK    7  A    between atoms: C_13  and  N_18
REMARK    8  A    between atoms: C_15  and  O_17
REMARK                            x       y       z     vdW  Elec       q    Type
REMARK                         _______ _______ _______ _____ _____    ______ ____
ROOT
ATOM      1  C   UNL     1       9.705  -2.405  23.923  0.00  0.00    +0.178 C 
ATOM      2  C   UNL     1       9.020  -3.754  24.105  0.00  0.00    +0.195 C 
ATOM      3  C   UNL     1       7.663  -3.390  24.735  0.00  0.00    +0.253 C 
ATOM      4  O   UNL     1       7.579  -1.953  24.827  0.00  0.00    -0.346 OA
ATOM      5  C   UNL     1       8.549  -1.418  23.909  0.00  0.00    +0.178 C 
ENDROOT
BRANCH   3   6
ATOM      6  N   UNL     1       6.483  -3.871  24.040  0.00  0.00    -0.285 N 
ATOM      7  C   UNL     1       5.670  -4.926  24.351  0.00  0.00    +0.169 A 
ATOM      8  N   UNL     1       5.778  -5.755  25.419  0.00  0.00    -0.218 NA
ATOM      9  C   UNL     1       4.838  -6.650  25.462  0.00  0.00    +0.201 A 
ATOM     10  N   UNL     1       3.826  -6.791  24.531  0.00  0.00    -0.312 N 
ATOM     11  H   UNL     1       3.132  -7.518  24.626  0.00  0.00    +0.170 HD
ATOM     12  C   UNL     1       3.688  -5.972  23.419  0.00  0.00    +0.279 A 
ATOM     13  O   UNL     1       2.782  -6.135  22.607  0.00  0.00    -0.265 OA
ATOM     14  C   UNL     1       4.712  -4.948  23.359  0.00  0.00    +0.172 A 
ATOM     15  N   UNL     1       4.902  -3.935  22.455  0.00  0.00    -0.229 NA
ATOM     16  C   UNL     1       5.984  -3.315  22.883  0.00  0.00    +0.203 A 
ENDBRANCH   3   6
BRANCH   1  17
ATOM     17  O   UNL     1      10.468  -2.358  22.721  0.00  0.00    -0.386 OA
ATOM     18  H   UNL     1      10.531  -3.260  22.364  0.00  0.00    +0.210 HD
ENDBRANCH   1  17
BRANCH   2  19
ATOM     19  O   UNL     1       9.803  -4.564  25.001  0.00  0.00    -0.385 OA
ATOM     20  H   UNL     1       9.316  -4.615  25.842  0.00  0.00    +0.210 HD
ENDBRANCH   2  19
BRANCH   5  21
ATOM     21  C   UNL     1       8.997  -0.027  24.349  0.00  0.00    +0.206 C 
BRANCH  21  22
ATOM     22  O   UNL     1       9.868   0.511  23.369  0.00  0.00    -0.284 OA
BRANCH  22  23
ATOM     23  P   UNL     1       9.218   1.037  22.009  0.00  0.00    +0.472 P 
ATOM     24  O   UNL     1       7.785   1.428  22.095  0.00  0.00    -0.228 OA
BRANCH  23  25
ATOM     25  O   UNL     1       9.503  -0.146  20.980  0.00  0.00    -0.303 OA
ATOM     26  H   UNL     1      10.123   0.128  20.282  0.00  0.00    +0.222 HD
ENDBRANCH  23  25
BRANCH  23  27
ATOM     27  O   UNL     1      10.224   2.181  21.546  0.00  0.00    -0.303 OA
ATOM     28  H   UNL     1      10.805   2.459  22.272  0.00  0.00    +0.222 HD
ENDBRANCH  23  27
ENDBRANCH  22  23
ENDBRANCH  21  22
ENDBRANCH   5  21
TORSDOF 8
ENDMDL
MODEL 6
REMARK VINA RESULT:      -6.7      2.411      3.203
REMARK  Name = 
REMARK  8 active torsions:
REMARK  status: ('A' for Active; 'I' for Inactive)
REMARK    1  A    between atoms: O_1  and  C_2
REMARK    2  A    between atoms: C_4  and  C_6
REMARK    3  A    between atoms: C_6  and  O_7
REMARK    4  A    between atoms: O_7  and  P_8
REMARK    5  A    between atoms: P_8  and  O_9
REMARK    6  A    between atoms: P_8  and  O_10
REMARK    7  A    between atoms: C_13  and  N_18
REMARK    8  A    between atoms: C_15  and  O_17
REMARK                            x       y       z     vdW  Elec       q    Type
REMARK                         _______ _______ _______ _____ _____    ______ ____
ROOT
ATOM      1  C   UNL     1       7.640  -4.062  25.135  0.00  0.00    +0.178 C 
ATOM      2  C   UNL     1       9.064  -3.543  24.975  0.00  0.00    +0.195 C 
ATOM      3  C   UNL     1       8.985  -2.646  23.727  0.00  0.00    +0.253 C 
ATOM      4  O   UNL     1       7.616  -2.617  23.277  0.00  0.00    -0.346 OA
ATOM      5  C   UNL     1       6.802  -3.037  24.386  0.00  0.00    +0.178 C 
ENDROOT
BRANCH   3   6
ATOM      6  N   UNL     1       9.440  -1.277  23.891  0.00  0.00    -0.285 N 
ATOM      7  C   UNL     1       9.444  -0.256  22.981  0.00  0.00    +0.169 A 
ATOM      8  N   UNL     1       8.985  -0.295  21.705  0.00  0.00    -0.218 NA
ATOM      9  C   UNL     1       9.096   0.845  21.093  0.00  0.00    +0.201 A 
ATOM     10  N   UNL     1       9.635   1.995  21.638  0.00  0.00    -0.312 N 
ATOM     11  H   UNL     1       9.696   2.846  21.096  0.00  0.00    +0.170 HD
ATOM     12  C   UNL     1      10.126   2.073  22.933  0.00  0.00    +0.279 A 
ATOM     13  O   UNL     1      10.607   3.110  23.379  0.00  0.00    -0.265 OA
ATOM     14  C   UNL     1       9.992   0.820  23.649  0.00  0.00    +0.172 A 
ATOM     15  N   UNL     1      10.315   0.497  24.941  0.00  0.00    -0.229 NA
ATOM     16  C   UNL     1       9.986  -0.775  25.051  0.00  0.00    +0.203 A 
ENDBRANCH   3   6
BRANCH   1  17
ATOM     17  O   UNL     1       7.265  -4.166  26.505  0.00  0.00    -0.386 OA
ATOM     18  H   UNL     1       7.197  -3.268  26.872  0.00  0.00    +0.210 HD
ENDBRANCH   1  17
BRANCH   2  19
ATOM     19  O   UNL     1       9.949  -4.656  24.756  0.00  0.00    -0.385 OA
ATOM     20  H   UNL     1       9.402  -5.461  24.750  0.00  0.00    +0.210 HD
ENDBRANCH   2  19
BRANCH   5  21
ATOM     21  C   UNL     1       5.490  -3.642  23.893  0.00  0.00    +0.206 C 
BRANCH  21  22
ATOM     22  O   UNL     1       5.708  -4.995  23.534  0.00  0.00    -0.284 OA
BRANCH  22  23
ATOM     23  P   UNL     1       6.041  -5.310  22.005  0.00  0.00    +0.472 P 
ATOM     24  O   UNL     1       7.440  -5.739  21.731  0.00  0.00    -0.228 OA
BRANCH  23  25
ATOM     25  O   UNL     1       5.617  -3.974  21.248  0.00  0.00    -0.303 OA
ATOM     26  H   UNL     1       5.661  -3.200  21.835  0.00  0.00    +0.222 HD
ENDBRANCH  23  25
BRANCH  23  27
ATOM     27  O   UNL     1       4.904  -6.346  21.592  0.00  0.00    -0.303 OA
ATOM     28  H   UNL     1       4.189  -6.369  22.249  0.00  0.00    +0.222 HD
ENDBRANCH  23  27
ENDBRANCH  22  23
ENDBRANCH  21  22
ENDBRANCH   5  21
TORSDOF 8
ENDMDL
MODEL 7
REMARK VINA RESULT:      -6.6      2.892      4.691
REMARK  Name = 
REMARK  8 active torsions:
REMARK  status: ('A' for Active; 'I' for Inactive)
REMARK    1  A    between atoms: O_1  and  C_2
REMARK    2  A    between atoms: C_4  and  C_6
REMARK    3  A    between atoms: C_6  and  O_7
REMARK    4  A    between atoms: O_7  and  P_8
REMARK    5  A    between atoms: P_8  and  O_9
REMARK    6  A    between atoms: P_8  and  O_10
REMARK    7  A    between atoms: C_13  and  N_18
REMARK    8  A    between atoms: C_15  and  O_17
REMARK                            x       y       z     vdW  Elec       q    Type
REMARK                         _______ _______ _______ _____ _____    ______ ____
ROOT
ATOM      1  C   UNL     1       9.401  -2.078  23.153  0.00  0.00    +0.178 C 
ATOM      2  C   UNL     1       9.679  -0.867  22.270  0.00  0.00    +0.195 C 
ATOM      3  C   UNL     1       8.626   0.161  22.722  0.00  0.00    +0.253 C 
ATOM      4  O   UNL     1       7.876  -0.411  23.812  0.00  0.00    -0.346 OA
ATOM      5  C   UNL     1       8.667  -1.486  24.346  0.00  0.00    +0.178 C 
ENDROOT
BRANCH   3   6
ATOM      6  N   UNL     1       9.132   1.454  23.146  0.00  0.00    -0.285 N 
ATOM      7  C   UNL     1       8.612   2.699  22.921  0.00  0.00    +0.169 A 
ATOM      8  N   UNL     1       7.467   3.000  22.260  0.00  0.00    -0.218 NA
ATOM      9  C   UNL     1       7.218   4.274  22.233  0.00  0.00    +0.201 A 
ATOM     10  N   UNL     1       8.017   5.256  22.790  0.00  0.00    -0.312 N 
ATOM     11  H   UNL     1       7.763   6.230  22.722  0.00  0.00    +0.170 HD
ATOM     12  C   UNL     1       9.201   4.990  23.462  0.00  0.00    +0.279 A 
ATOM     13  O   UNL     1       9.890   5.890  23.934  0.00  0.00    -0.265 OA
ATOM     14  C   UNL     1       9.491   3.572  23.528  0.00  0.00    +0.172 A 
ATOM     15  N   UNL     1      10.527   2.904  24.128  0.00  0.00    -0.229 NA
ATOM     16  C   UNL     1      10.292   1.634  23.867  0.00  0.00    +0.203 A 
ENDBRANCH   3   6
BRANCH   1  17
ATOM     17  O   UNL     1      10.602  -2.741  23.534  0.00  0.00    -0.386 OA
ATOM     18  H   UNL     1      11.354  -2.249  23.162  0.00  0.00    +0.210 HD
ENDBRANCH   1  17
BRANCH   2  19
ATOM     19  O   UNL     1       9.484  -1.234  20.892  0.00  0.00    -0.385 OA
ATOM     20  H   UNL     1       9.716  -0.457  20.353  0.00  0.00    +0.210 HD
ENDBRANCH   2  19
BRANCH   5  21
ATOM     21  C   UNL     1       7.778  -2.524  25.025  0.00  0.00    +0.206 C 
BRANCH  21  22
ATOM     22  O   UNL     1       8.592  -3.438  25.739  0.00  0.00    -0.284 OA
BRANCH  22  23
ATOM     23  P   UNL     1       8.452  -4.988  25.384  0.00  0.00    +0.472 P 
ATOM     24  O   UNL     1       7.338  -5.334  24.460  0.00  0.00    -0.228 OA
BRANCH  23  25
ATOM     25  O   UNL     1       8.349  -5.689  26.811  0.00  0.00    -0.303 OA
ATOM     26  H   UNL     1       8.920  -5.254  27.466  0.00  0.00    +0.222 HD
ENDBRANCH  23  25
BRANCH  23  27
ATOM     27  O   UNL     1       9.915  -5.378  24.885  0.00  0.00    -0.303 OA
ATOM     28  H   UNL     1      10.584  -4.770  25.238  0.00  0.00    +0.222 HD
ENDBRANCH  23  27
ENDBRANCH  22  23
ENDBRANCH  21  22
ENDBRANCH   5  21
TORSDOF 8
ENDMDL
MODEL 8
REMARK VINA RESULT:      -6.5      3.380      7.789
REMARK  Name = 
REMARK  8 active torsions:
REMARK  status: ('A' for Active; 'I' for Inactive)
REMARK    1  A    between atoms: O_1  and  C_2
REMARK    2  A    between atoms: C_4  and  C_6
REMARK    3  A    between atoms: C_6  and  O_7
REMARK    4  A    between atoms: O_7  and  P_8
REMARK    5  A    between atoms: P_8  and  O_9
REMARK    6  A    between atoms: P_8  and  O_10
REMARK    7  A    between atoms: C_13  and  N_18
REMARK    8  A    between atoms: C_15  and  O_17
REMARK                            x       y       z     vdW  Elec       q    Type
REMARK                         _______ _______ _______ _____ _____    ______ ____
ROOT
ATOM      1  C   UNL     1       9.138   0.672  22.401  0.00  0.00    +0.178 C 
ATOM      2  C   UNL     1       8.830  -0.787  22.085  0.00  0.00    +0.195 C 
ATOM      3  C   UNL     1       9.373  -1.545  23.309  0.00  0.00    +0.253 C 
ATOM      4  O   UNL     1       9.876  -0.578  24.253  0.00  0.00    -0.346 OA
ATOM      5  C   UNL     1       9.279   0.686  23.914  0.00  0.00    +0.178 C 
ENDROOT
BRANCH   3   6
ATOM      6  N   UNL     1       8.431  -2.409  23.999  0.00  0.00    -0.285 N 
ATOM      7  C   UNL     1       8.664  -3.585  24.657  0.00  0.00    +0.169 A 
ATOM      8  N   UNL     1       9.859  -4.201  24.835  0.00  0.00    -0.218 NA
ATOM      9  C   UNL     1       9.766  -5.294  25.529  0.00  0.00    +0.201 A 
ATOM     10  N   UNL     1       8.593  -5.821  26.037  0.00  0.00    -0.312 N 
ATOM     11  H   UNL     1       8.597  -6.684  26.562  0.00  0.00    +0.170 HD
ATOM     12  C   UNL     1       7.350  -5.229  25.865  0.00  0.00    +0.279 A 
ATOM     13  O   UNL     1       6.328  -5.733  26.322  0.00  0.00    -0.265 OA
ATOM     14  C   UNL     1       7.427  -3.993  25.114  0.00  0.00    +0.172 A 
ATOM     15  N   UNL     1       6.445  -3.101  24.769  0.00  0.00    -0.229 NA
ATOM     16  C   UNL     1       7.078  -2.167  24.085  0.00  0.00    +0.203 A 
ENDBRANCH   3   6
BRANCH   1  17
ATOM     17  O   UNL     1       8.104   1.541  21.948  0.00  0.00    -0.386 OA
ATOM     18  H   UNL     1       8.402   1.968  21.127  0.00  0.00    +0.210 HD
ENDBRANCH   1  17
BRANCH   2  19
ATOM     19  O   UNL     1       9.532  -1.169  20.888  0.00  0.00    -0.385 OA
ATOM     20  H   UNL     1      10.479  -1.209  21.112  0.00  0.00    +0.210 HD
ENDBRANCH   2  19
BRANCH   5  21
ATOM     21  C   UNL     1      10.161   1.840  24.382  0.00  0.00    +0.206 C 
BRANCH  21  22
ATOM     22  O   UNL     1      10.124   2.875  23.414  0.00  0.00    -0.284 OA
BRANCH  22  23
ATOM     23  P   UNL     1       9.439   4.255  23.832  0.00  0.00    +0.472 P 
ATOM     24  O   UNL     1      10.368   5.405  23.998  0.00  0.00    -0.228 OA
BRANCH  23  25
ATOM     25  O   UNL     1       8.629   3.883  25.154  0.00  0.00    -0.303 OA
ATOM     26  H   UNL     1       7.681   3.768  24.973  0.00  0.00    +0.222 HD
ENDBRANCH  23  25
BRANCH  23  27
ATOM     27  O   UNL     1       8.296   4.437  22.738  0.00  0.00    -0.303 OA
ATOM     28  H   UNL     1       7.748   5.216  22.922  0.00  0.00    +0.222 HD
ENDBRANCH  23  27
ENDBRANCH  22  23
ENDBRANCH  21  22
ENDBRANCH   5  21
TORSDOF 8
ENDMDL
MODEL 9
REMARK VINA RESULT:      -6.5      1.490      2.169
REMARK  Name = 
REMARK  8 active torsions:
REMARK  status: ('A' for Active; 'I' for Inactive)
REMARK    1  A    between atoms: O_1  and  C_2
REMARK    2  A    between atoms: C_4  and  C_6
REMARK    3  A    between atoms: C_6  and  O_7
REMARK    4  A    between atoms: O_7  and  P_8
REMARK    5  A    between atoms: P_8  and  O_9
REMARK    6  A    between atoms: P_8  and  O_10
REMARK    7  A    between atoms: C_13  and  N_18
REMARK    8  A    between atoms: C_15  and  O_17
REMARK                            x       y       z     vdW  Elec       q    Type
REMARK                         _______ _______ _______ _____ _____    ______ ____
ROOT
ATOM      1  C   UNL     1       8.330  -4.524  24.559  0.00  0.00    +0.178 C 
ATOM      2  C   UNL     1       8.449  -3.416  23.521  0.00  0.00    +0.195 C 
ATOM      3  C   UNL     1       7.827  -2.195  24.220  0.00  0.00    +0.253 C 
ATOM      4  O   UNL     1       7.459  -2.580  25.560  0.00  0.00    -0.346 OA
ATOM      5  C   UNL     1       8.206  -3.769  25.873  0.00  0.00    +0.178 C 
ENDROOT
BRANCH   3   6
ATOM      6  N   UNL     1       8.659  -1.007  24.300  0.00  0.00    -0.285 N 
ATOM      7  C   UNL     1       8.963  -0.100  23.323  0.00  0.00    +0.169 A 
ATOM      8  N   UNL     1       8.518  -0.099  22.042  0.00  0.00    -0.218 NA
ATOM      9  C   UNL     1       8.958   0.912  21.355  0.00  0.00    +0.201 A 
ATOM     10  N   UNL     1       9.805   1.894  21.832  0.00  0.00    -0.312 N 
ATOM     11  H   UNL     1      10.113   2.648  21.235  0.00  0.00    +0.170 HD
ATOM     12  C   UNL     1      10.292   1.921  23.131  0.00  0.00    +0.279 A 
ATOM     13  O   UNL     1      11.052   2.805  23.517  0.00  0.00    -0.265 OA
ATOM     14  C   UNL     1       9.797   0.817  23.928  0.00  0.00    +0.172 A 
ATOM     15  N   UNL     1      10.006   0.510  25.248  0.00  0.00    -0.229 NA
ATOM     16  C   UNL     1       9.322  -0.601  25.437  0.00  0.00    +0.203 A 
ENDBRANCH   3   6
BRANCH   1  17
ATOM     17  O   UNL     1       9.461  -5.390  24.541  0.00  0.00    -0.386 OA
ATOM     18  H   UNL     1       9.686  -5.578  23.613  0.00  0.00    +0.210 HD
ENDBRANCH   1  17
BRANCH   2  19
ATOM     19  O   UNL     1       7.692  -3.782  22.352  0.00  0.00    -0.385 OA
ATOM     20  H   UNL     1       6.857  -4.174  22.662  0.00  0.00    +0.210 HD
ENDBRANCH   2  19
BRANCH   5  21
ATOM     21  C   UNL     1       7.481  -4.599  26.928  0.00  0.00    +0.206 C 
BRANCH  21  22
ATOM     22  O   UNL     1       7.029  -5.806  26.340  0.00  0.00    -0.284 OA
BRANCH  22  23
ATOM     23  P   UNL     1       5.458  -6.092  26.353  0.00  0.00    +0.472 P 
ATOM     24  O   UNL     1       4.855  -6.406  25.030  0.00  0.00    -0.228 OA
BRANCH  23  25
ATOM     25  O   UNL     1       4.849  -4.793  27.048  0.00  0.00    -0.303 OA
ATOM     26  H   UNL     1       4.468  -4.182  26.395  0.00  0.00    +0.222 HD
ENDBRANCH  23  25
BRANCH  23  27
ATOM     27  O   UNL     1       5.305  -7.216  27.472  0.00  0.00    -0.303 OA
ATOM     28  H   UNL     1       4.429  -7.185  27.889  0.00  0.00    +0.222 HD
ENDBRANCH  23  27
ENDBRANCH  22  23
ENDBRANCH  21  22
ENDBRANCH   5  21
TORSDOF 8
ENDMDL
