MODEL 1
REMARK VINA RESULT:      -4.1      0.000      0.000
REMARK  Name = 
REMARK  6 active torsions:
REMARK  status: ('A' for Active; 'I' for Inactive)
REMARK    1  A    between atoms: O_1  and  C_2
REMARK    2  A    between atoms: C_2  and  C_3
REMARK    3  A    between atoms: C_6  and  S_8
REMARK    4  A    between atoms: C_9  and  O_11
REMARK    5  A    between atoms: C_12  and  O_14
REMARK    6  A    between atoms: C_15  and  S_17
REMARK                            x       y       z     vdW  Elec       q    Type
REMARK                         _______ _______ _______ _____ _____    ______ ____
ROOT
ATOM      1  C   UNL     1       8.478   1.042  22.941  0.00  0.00    +0.160 C 
ATOM      2  C   UNL     1       9.135   1.893  24.042  0.00  0.00    +0.105 C 
ATOM      3  C   UNL     1      10.109   1.066  24.900  0.00  0.00    +0.161 C 
ATOM      4  C   UNL     1       9.500  -0.250  25.400  0.00  0.00    +0.183 C 
ATOM      5  C   UNL     1       8.761  -1.013  24.278  0.00  0.00    +0.204 C 
ATOM      6  O   UNL     1       7.964  -0.212  23.415  0.00  0.00    -0.357 OA
ENDROOT
BRANCH   2   7
ATOM      7  S   UNL     1       7.835   2.731  25.047  0.00  0.00    -0.170 S 
ATOM      8  H   UNL     1       6.823   1.907  24.737  0.00  0.00    +0.102 HD
ENDBRANCH   2   7
BRANCH   3   9
ATOM      9  O   UNL     1      11.288   0.791  24.124  0.00  0.00    -0.388 OA
ATOM     10  H   UNL     1      11.994   1.380  24.452  0.00  0.00    +0.210 HD
ENDBRANCH   3   9
BRANCH   4  11
ATOM     11  O   UNL     1       8.645   0.043  26.518  0.00  0.00    -0.386 OA
ATOM     12  H   UNL     1       8.021   0.744  26.265  0.00  0.00    +0.210 HD
ENDBRANCH   4  11
BRANCH   5  13
ATOM     13  S   UNL     1       9.826  -2.201  23.394  0.00  0.00    -0.145 S 
ATOM     14  H   UNL     1      10.859  -1.373  23.200  0.00  0.00    +0.104 HD
ENDBRANCH   5  13
BRANCH   1  15
ATOM     15  C   UNL     1       9.393   0.900  21.706  0.00  0.00    +0.188 C 
BRANCH  15  16
ATOM     16  O   UNL     1      10.176   2.079  21.527  0.00  0.00    -0.392 OA
ATOM     17  H   UNL     1      10.756   2.164  22.302  0.00  0.00    +0.210 HD
ENDBRANCH  15  16
ENDBRANCH   1  15
TORSDOF 6
ENDMDL
MODEL 2
REMARK VINA RESULT:      -4.1      2.216      3.495
REMARK  Name = 
REMARK  6 active torsions:
REMARK  status: ('A' for Active; 'I' for Inactive)
REMARK    1  A    between atoms: O_1  and  C_2
REMARK    2  A    between atoms: C_2  and  C_3
REMARK    3  A    between atoms: C_6  and  S_8
REMARK    4  A    between atoms: C_9  and  O_11
REMARK    5  A    between atoms: C_12  and  O_14
REMARK    6  A    between atoms: C_15  and  S_17
REMARK                            x       y       z     vdW  Elec       q    Type
REMARK                         _______ _______ _______ _____ _____    ______ ____
ROOT
ATOM      1  C   UNL     1       9.339   2.700  24.362  0.00  0.00    +0.160 C 
ATOM      2  C   UNL     1      10.203   1.621  23.684  0.00  0.00    +0.105 C 
ATOM      3  C   UNL     1       9.606   1.171  22.339  0.00  0.00    +0.161 C 
ATOM      4  C   UNL     1       8.116   0.819  22.431  0.00  0.00    +0.183 C 
ATOM      5  C   UNL     1       7.313   1.882  23.212  0.00  0.00    +0.204 C 
ATOM      6  O   UNL     1       7.939   2.380  24.387  0.00  0.00    -0.357 OA
ENDROOT
BRANCH   2   7
ATOM      7  S   UNL     1      10.479   0.216  24.848  0.00  0.00    -0.170 S 
ATOM      8  H   UNL     1      10.275   0.897  25.985  0.00  0.00    +0.102 HD
ENDBRANCH   2   7
BRANCH   3   9
ATOM      9  O   UNL     1       9.797   2.220  21.375  0.00  0.00    -0.388 OA
ATOM     10  H   UNL     1       9.951   1.793  20.509  0.00  0.00    +0.210 HD
ENDBRANCH   3   9
BRANCH   4  11
ATOM     11  O   UNL     1       7.996  -0.492  23.009  0.00  0.00    -0.386 OA
ATOM     12  H   UNL     1       8.861  -0.935  22.976  0.00  0.00    +0.210 HD
ENDBRANCH   4  11
BRANCH   5  13
ATOM     13  S   UNL     1       6.621   3.188  22.145  0.00  0.00    -0.145 S 
ATOM     14  H   UNL     1       6.873   2.587  20.976  0.00  0.00    +0.104 HD
ENDBRANCH   5  13
BRANCH   1  15
ATOM     15  C   UNL     1       9.635   4.105  23.796  0.00  0.00    +0.188 C 
BRANCH  15  16
ATOM     16  O   UNL     1      10.960   4.164  23.270  0.00  0.00    -0.392 OA
ATOM     17  H   UNL     1      10.947   3.726  22.403  0.00  0.00    +0.210 HD
ENDBRANCH  15  16
ENDBRANCH   1  15
TORSDOF 6
ENDMDL
MODEL 3
REMARK VINA RESULT:      -4.0      1.719      3.730
REMARK  Name = 
REMARK  6 active torsions:
REMARK  status: ('A' for Active; 'I' for Inactive)
REMARK    1  A    between atoms: O_1  and  C_2
REMARK    2  A    between atoms: C_2  and  C_3
REMARK    3  A    between atoms: C_6  and  S_8
REMARK    4  A    between atoms: C_9  and  O_11
REMARK    5  A    between atoms: C_12  and  O_14
REMARK    6  A    between atoms: C_15  and  S_17
REMARK                            x       y       z     vdW  Elec       q    Type
REMARK                         _______ _______ _______ _____ _____    ______ ____
ROOT
ATOM      1  C   UNL     1       7.992  -0.577  24.330  0.00  0.00    +0.160 C 
ATOM      2  C   UNL     1       9.416  -1.137  24.492  0.00  0.00    +0.105 C 
ATOM      3  C   UNL     1      10.428  -0.393  23.603  0.00  0.00    +0.161 C 
ATOM      4  C   UNL     1       9.966  -0.261  22.147  0.00  0.00    +0.183 C 
ATOM      5  C   UNL     1       8.496   0.201  22.042  0.00  0.00    +0.204 C 
ATOM      6  O   UNL     1       7.596  -0.406  22.960  0.00  0.00    -0.357 OA
ENDROOT
BRANCH   2   7
ATOM      7  S   UNL     1       9.412  -2.958  24.198  0.00  0.00    -0.170 S 
ATOM      8  H   UNL     1       9.533  -2.913  22.863  0.00  0.00    +0.102 HD
ENDBRANCH   2   7
BRANCH   3   9
ATOM      9  O   UNL     1      10.658   0.914  24.158  0.00  0.00    -0.388 OA
ATOM     10  H   UNL     1      11.161   0.792  24.987  0.00  0.00    +0.210 HD
ENDBRANCH   3   9
BRANCH   4  11
ATOM     11  O   UNL     1      10.193  -1.517  21.485  0.00  0.00    -0.386 OA
ATOM     12  H   UNL     1      10.138  -1.384  20.523  0.00  0.00    +0.210 HD
ENDBRANCH   4  11
BRANCH   5  13
ATOM     13  S   UNL     1       8.318   2.013  21.938  0.00  0.00    -0.145 S 
ATOM     14  H   UNL     1       8.325   2.096  20.602  0.00  0.00    +0.104 HD
ENDBRANCH   5  13
BRANCH   1  15
ATOM     15  C   UNL     1       7.772   0.684  25.192  0.00  0.00    +0.188 C 
BRANCH  15  16
ATOM     16  O   UNL     1       8.590   0.640  26.360  0.00  0.00    -0.392 OA
ATOM     17  H   UNL     1       9.514   0.584  26.066  0.00  0.00    +0.210 HD
ENDBRANCH  15  16
ENDBRANCH   1  15
TORSDOF 6
ENDMDL
MODEL 4
REMARK VINA RESULT:      -4.0      1.980      3.733
REMARK  Name = 
REMARK  6 active torsions:
REMARK  status: ('A' for Active; 'I' for Inactive)
REMARK    1  A    between atoms: O_1  and  C_2
REMARK    2  A    between atoms: C_2  and  C_3
REMARK    3  A    between atoms: C_6  and  S_8
REMARK    4  A    between atoms: C_9  and  O_11
REMARK    5  A    between atoms: C_12  and  O_14
REMARK    6  A    between atoms: C_15  and  S_17
REMARK                            x       y       z     vdW  Elec       q    Type
REMARK                         _______ _______ _______ _____ _____    ______ ____
ROOT
ATOM      1  C   UNL     1       9.405   0.163  24.570  0.00  0.00    +0.160 C 
ATOM      2  C   UNL     1       8.708   0.572  23.260  0.00  0.00    +0.105 C 
ATOM      3  C   UNL     1       8.106  -0.641  22.529  0.00  0.00    +0.161 C 
ATOM      4  C   UNL     1       9.095  -1.804  22.379  0.00  0.00    +0.183 C 
ATOM      5  C   UNL     1       9.845  -2.103  23.695  0.00  0.00    +0.204 C 
ATOM      6  O   UNL     1      10.284  -0.964  24.424  0.00  0.00    -0.357 OA
ENDROOT
BRANCH   2   7
ATOM      7  S   UNL     1       9.873   1.535  22.204  0.00  0.00    -0.170 S 
ATOM      8  H   UNL     1       9.054   2.566  21.946  0.00  0.00    +0.102 HD
ENDBRANCH   2   7
BRANCH   3   9
ATOM      9  O   UNL     1       6.943  -1.084  23.249  0.00  0.00    -0.388 OA
ATOM     10  H   UNL     1       6.944  -2.061  23.227  0.00  0.00    +0.210 HD
ENDBRANCH   3   9
BRANCH   4  11
ATOM     11  O   UNL     1       9.990  -1.499  21.296  0.00  0.00    -0.386 OA
ATOM     12  H   UNL     1      10.876  -1.324  21.655  0.00  0.00    +0.210 HD
ENDBRANCH   4  11
BRANCH   5  13
ATOM     13  S   UNL     1       9.011  -3.353  24.730  0.00  0.00    -0.145 S 
ATOM     14  H   UNL     1       9.449  -2.899  25.910  0.00  0.00    +0.104 HD
ENDBRANCH   5  13
BRANCH   1  15
ATOM     15  C   UNL     1       8.397   0.005  25.728  0.00  0.00    +0.188 C 
BRANCH  15  16
ATOM     16  O   UNL     1       9.069  -0.378  26.926  0.00  0.00    -0.392 OA
ATOM     17  H   UNL     1       8.567  -0.009  27.672  0.00  0.00    +0.210 HD
ENDBRANCH  15  16
ENDBRANCH   1  15
TORSDOF 6
ENDMDL
MODEL 5
REMARK VINA RESULT:      -4.0      0.992      3.512
REMARK  Name = 
REMARK  6 active torsions:
REMARK  status: ('A' for Active; 'I' for Inactive)
REMARK    1  A    between atoms: O_1  and  C_2
REMARK    2  A    between atoms: C_2  and  C_3
REMARK    3  A    between atoms: C_6  and  S_8
REMARK    4  A    between atoms: C_9  and  O_11
REMARK    5  A    between atoms: C_12  and  O_14
REMARK    6  A    between atoms: C_15  and  S_17
REMARK                            x       y       z     vdW  Elec       q    Type
REMARK                         _______ _______ _______ _____ _____    ______ ____
ROOT
ATOM      1  C   UNL     1       9.335   1.056  24.947  0.00  0.00    +0.160 C 
ATOM      2  C   UNL     1       8.398   1.966  24.134  0.00  0.00    +0.105 C 
ATOM      3  C   UNL     1       8.114   1.392  22.734  0.00  0.00    +0.161 C 
ATOM      4  C   UNL     1       9.387   0.972  21.988  0.00  0.00    +0.183 C 
ATOM      5  C   UNL     1      10.342   0.151  22.883  0.00  0.00    +0.204 C 
ATOM      6  O   UNL     1      10.493   0.625  24.214  0.00  0.00    -0.357 OA
ENDROOT
BRANCH   2   7
ATOM      7  S   UNL     1       9.080   3.679  24.077  0.00  0.00    -0.170 S 
ATOM      8  H   UNL     1       8.561   4.028  22.890  0.00  0.00    +0.102 HD
ENDBRANCH   2   7
BRANCH   3   9
ATOM      9  O   UNL     1       7.236   0.262  22.868  0.00  0.00    -0.388 OA
ATOM     10  H   UNL     1       7.724  -0.523  22.552  0.00  0.00    +0.210 HD
ENDBRANCH   3   9
BRANCH   4  11
ATOM     11  O   UNL     1      10.013   2.153  21.460  0.00  0.00    -0.386 OA
ATOM     12  H   UNL     1       9.884   2.178  20.496  0.00  0.00    +0.210 HD
ENDBRANCH   4  11
BRANCH   5  13
ATOM     13  S   UNL     1      10.057  -1.648  22.777  0.00  0.00    -0.145 S 
ATOM     14  H   UNL     1       9.595  -1.661  21.522  0.00  0.00    +0.104 HD
ENDBRANCH   5  13
BRANCH   1  15
ATOM     15  C   UNL     1       8.566  -0.104  25.614  0.00  0.00    +0.188 C 
BRANCH  15  16
ATOM     16  O   UNL     1       9.145  -0.426  26.877  0.00  0.00    -0.392 OA
ATOM     17  H   UNL     1      10.083  -0.628  26.724  0.00  0.00    +0.210 HD
ENDBRANCH  15  16
ENDBRANCH   1  15
TORSDOF 6
ENDMDL
MODEL 6
REMARK VINA RESULT:      -4.0      4.245      6.284
REMARK  Name = 
REMARK  6 active torsions:
REMARK  status: ('A' for Active; 'I' for Inactive)
REMARK    1  A    between atoms: O_1  and  C_2
REMARK    2  A    between atoms: C_2  and  C_3
REMARK    3  A    between atoms: C_6  and  S_8
REMARK    4  A    between atoms: C_9  and  O_11
REMARK    5  A    between atoms: C_12  and  O_14
REMARK    6  A    between atoms: C_15  and  S_17
REMARK                            x       y       z     vdW  Elec       q    Type
REMARK                         _______ _______ _______ _____ _____    ______ ____
ROOT
ATOM      1  C   UNL     1       7.115  -3.948  25.754  0.00  0.00    +0.160 C 
ATOM      2  C   UNL     1       6.643  -5.098  24.847  0.00  0.00    +0.105 C 
ATOM      3  C   UNL     1       7.446  -5.162  23.536  0.00  0.00    +0.161 C 
ATOM      4  C   UNL     1       7.550  -3.804  22.829  0.00  0.00    +0.183 C 
ATOM      5  C   UNL     1       7.923  -2.666  23.805  0.00  0.00    +0.204 C 
ATOM      6  O   UNL     1       7.262  -2.698  25.063  0.00  0.00    -0.357 OA
ENDROOT
BRANCH   2   7
ATOM      7  S   UNL     1       4.825  -4.968  24.563  0.00  0.00    -0.170 S 
ATOM      8  H   UNL     1       4.872  -4.044  23.591  0.00  0.00    +0.102 HD
ENDBRANCH   2   7
BRANCH   3   9
ATOM      9  O   UNL     1       8.764  -5.658  23.826  0.00  0.00    -0.388 OA
ATOM     10  H   UNL     1       9.344  -4.883  23.954  0.00  0.00    +0.210 HD
ENDBRANCH   3   9
BRANCH   4  11
ATOM     11  O   UNL     1       6.310  -3.555  22.146  0.00  0.00    -0.386 OA
ATOM     12  H   UNL     1       6.450  -3.649  21.188  0.00  0.00    +0.210 HD
ENDBRANCH   4  11
BRANCH   5  13
ATOM     13  S   UNL     1       9.721  -2.389  23.932  0.00  0.00    -0.145 S 
ATOM     14  H   UNL     1       9.655  -1.247  24.628  0.00  0.00    +0.104 HD
ENDBRANCH   5  13
BRANCH   1  15
ATOM     15  C   UNL     1       8.361  -4.344  26.575  0.00  0.00    +0.188 C 
BRANCH  15  16
ATOM     16  O   UNL     1       8.349  -5.742  26.859  0.00  0.00    -0.392 OA
ATOM     17  H   UNL     1       8.194  -6.207  26.020  0.00  0.00    +0.210 HD
ENDBRANCH  15  16
ENDBRANCH   1  15
TORSDOF 6
ENDMDL
MODEL 7
REMARK VINA RESULT:      -4.0      4.330      5.601
REMARK  Name = 
REMARK  6 active torsions:
REMARK  status: ('A' for Active; 'I' for Inactive)
REMARK    1  A    between atoms: O_1  and  C_2
REMARK    2  A    between atoms: C_2  and  C_3
REMARK    3  A    between atoms: C_6  and  S_8
REMARK    4  A    between atoms: C_9  and  O_11
REMARK    5  A    between atoms: C_12  and  O_14
REMARK    6  A    between atoms: C_15  and  S_17
REMARK                            x       y       z     vdW  Elec       q    Type
REMARK                         _______ _______ _______ _____ _____    ______ ____
ROOT
ATOM      1  C   UNL     1       7.721  -2.524  25.373  0.00  0.00    +0.160 C 
ATOM      2  C   UNL     1       8.228  -3.073  24.028  0.00  0.00    +0.105 C 
ATOM      3  C   UNL     1       8.230  -4.612  24.001  0.00  0.00    +0.161 C 
ATOM      4  C   UNL     1       8.907  -5.233  25.230  0.00  0.00    +0.183 C 
ATOM      5  C   UNL     1       8.442  -4.573  26.547  0.00  0.00    +0.204 C 
ATOM      6  O   UNL     1       8.324  -3.156  26.513  0.00  0.00    -0.357 OA
ENDROOT
BRANCH   2   7
ATOM      7  S   UNL     1       9.880  -2.351  23.637  0.00  0.00    -0.170 S 
ATOM      8  H   UNL     1       9.597  -1.087  23.983  0.00  0.00    +0.102 HD
ENDBRANCH   2   7
BRANCH   3   9
ATOM      9  O   UNL     1       6.872  -5.075  23.912  0.00  0.00    -0.388 OA
ATOM     10  H   UNL     1       6.724  -5.361  22.990  0.00  0.00    +0.210 HD
ENDBRANCH   3   9
BRANCH   4  11
ATOM     11  O   UNL     1      10.332  -5.152  25.051  0.00  0.00    -0.386 OA
ATOM     12  H   UNL     1      10.713  -6.043  25.129  0.00  0.00    +0.210 HD
ENDBRANCH   4  11
BRANCH   5  13
ATOM     13  S   UNL     1       7.007  -5.407  27.301  0.00  0.00    -0.145 S 
ATOM     14  H   UNL     1       6.130  -4.414  27.113  0.00  0.00    +0.104 HD
ENDBRANCH   5  13
BRANCH   1  15
ATOM     15  C   UNL     1       6.179  -2.496  25.433  0.00  0.00    +0.188 C 
BRANCH  15  16
ATOM     16  O   UNL     1       5.632  -2.287  24.132  0.00  0.00    -0.392 OA
ATOM     17  H   UNL     1       5.856  -3.065  23.595  0.00  0.00    +0.210 HD
ENDBRANCH  15  16
ENDBRANCH   1  15
TORSDOF 6
ENDMDL
MODEL 8
REMARK VINA RESULT:      -3.9      1.863      4.060
REMARK  Name = 
REMARK  6 active torsions:
REMARK  status: ('A' for Active; 'I' for Inactive)
REMARK    1  A    between atoms: O_1  and  C_2
REMARK    2  A    between atoms: C_2  and  C_3
REMARK    3  A    between atoms: C_6  and  S_8
REMARK    4  A    between atoms: C_9  and  O_11
REMARK    5  A    between atoms: C_12  and  O_14
REMARK    6  A    between atoms: C_15  and  S_17
REMARK                            x       y       z     vdW  Elec       q    Type
REMARK                         _______ _______ _______ _____ _____    ______ ____
ROOT
ATOM      1  C   UNL     1       7.381   0.360  23.147  0.00  0.00    +0.160 C 
ATOM      2  C   UNL     1       8.859  -0.020  23.338  0.00  0.00    +0.105 C 
ATOM      3  C   UNL     1       9.719   1.198  23.722  0.00  0.00    +0.161 C 
ATOM      4  C   UNL     1       9.493   2.406  22.804  0.00  0.00    +0.183 C 
ATOM      5  C   UNL     1       7.993   2.678  22.558  0.00  0.00    +0.204 C 
ATOM      6  O   UNL     1       7.190   1.527  22.331  0.00  0.00    -0.357 OA
ENDROOT
BRANCH   2   7
ATOM      7  S   UNL     1       9.484  -0.888  21.836  0.00  0.00    -0.170 S 
ATOM      8  H   UNL     1      10.556  -0.110  21.625  0.00  0.00    +0.102 HD
ENDBRANCH   2   7
BRANCH   3   9
ATOM      9  O   UNL     1       9.423   1.562  25.082  0.00  0.00    -0.388 OA
ATOM     10  H   UNL     1       8.454   1.662  25.151  0.00  0.00    +0.210 HD
ENDBRANCH   3   9
BRANCH   4  11
ATOM     11  O   UNL     1      10.216   2.185  21.581  0.00  0.00    -0.386 OA
ATOM     12  H   UNL     1      10.944   2.828  21.521  0.00  0.00    +0.210 HD
ENDBRANCH   4  11
BRANCH   5  13
ATOM     13  S   UNL     1       7.269   3.847  23.757  0.00  0.00    -0.145 S 
ATOM     14  H   UNL     1       6.066   3.267  23.837  0.00  0.00    +0.104 HD
ENDBRANCH   5  13
BRANCH   1  15
ATOM     15  C   UNL     1       6.629   0.426  24.493  0.00  0.00    +0.188 C 
BRANCH  15  16
ATOM     16  O   UNL     1       5.281   0.847  24.293  0.00  0.00    -0.392 OA
ATOM     17  H   UNL     1       5.303   1.790  24.060  0.00  0.00    +0.210 HD
ENDBRANCH  15  16
ENDBRANCH   1  15
TORSDOF 6
ENDMDL
MODEL 9
REMARK VINA RESULT:      -3.9      2.187      2.309
REMARK  Name = 
REMARK  6 active torsions:
REMARK  status: ('A' for Active; 'I' for Inactive)
REMARK    1  A    between atoms: O_1  and  C_2
REMARK    2  A    between atoms: C_2  and  C_3
REMARK    3  A    between atoms: C_6  and  S_8
REMARK    4  A    between atoms: C_9  and  O_11
REMARK    5  A    between atoms: C_12  and  O_14
REMARK    6  A    between atoms: C_15  and  S_17
REMARK                            x       y       z     vdW  Elec       q    Type
REMARK                         _______ _______ _______ _____ _____    ______ ____
ROOT
ATOM      1  C   UNL     1       9.029   0.322  22.312  0.00  0.00    +0.160 C 
ATOM      2  C   UNL     1      10.110   0.512  23.389  0.00  0.00    +0.105 C 
ATOM      3  C   UNL     1       9.694  -0.107  24.735  0.00  0.00    +0.161 C 
ATOM      4  C   UNL     1       8.285   0.309  25.177  0.00  0.00    +0.183 C 
ATOM      5  C   UNL     1       7.258   0.201  24.028  0.00  0.00    +0.204 C 
ATOM      6  O   UNL     1       7.707   0.661  22.760  0.00  0.00    -0.357 OA
ENDROOT
BRANCH   2   7
ATOM      7  S   UNL     1      10.548   2.299  23.531  0.00  0.00    -0.170 S 
ATOM      8  H   UNL     1       9.413   2.792  23.013  0.00  0.00    +0.102 HD
ENDBRANCH   2   7
BRANCH   3   9
ATOM      9  O   UNL     1       9.764  -1.539  24.627  0.00  0.00    -0.388 OA
ATOM     10  H   UNL     1      10.458  -1.842  25.244  0.00  0.00    +0.210 HD
ENDBRANCH   3   9
BRANCH   4  11
ATOM     11  O   UNL     1       8.356   1.637  25.723  0.00  0.00    -0.386 OA
ATOM     12  H   UNL     1       7.544   2.120  25.493  0.00  0.00    +0.210 HD
ENDBRANCH   4  11
BRANCH   5  13
ATOM     13  S   UNL     1       6.423  -1.419  23.961  0.00  0.00    -0.145 S 
ATOM     14  H   UNL     1       5.727  -1.192  22.842  0.00  0.00    +0.104 HD
ENDBRANCH   5  13
BRANCH   1  15
ATOM     15  C   UNL     1       9.113  -1.074  21.659  0.00  0.00    +0.188 C 
BRANCH  15  16
ATOM     16  O   UNL     1      10.449  -1.571  21.712  0.00  0.00    -0.392 OA
ATOM     17  H   UNL     1      10.488  -2.224  22.430  0.00  0.00    +0.210 HD
ENDBRANCH  15  16
ENDBRANCH   1  15
TORSDOF 6
ENDMDL
