MODEL 1
REMARK VINA RESULT:      -8.2      0.000      0.000
REMARK  Name = 
REMARK  8 active torsions:
REMARK  status: ('A' for Active; 'I' for Inactive)
REMARK    1  A    between atoms: C_2  and  N_3
REMARK    2  A    between atoms: C_2  and  C_4
REMARK    3  A    between atoms: C_2  and  C_13
REMARK    4  A    between atoms: C_13  and  C_15
REMARK    5  A    between atoms: C_13  and  C_20
REMARK    6  A    between atoms: N_17  and  C_18
REMARK    7  A    between atoms: N_17  and  C_19
REMARK    8  A    between atoms: C_24  and  C_28
REMARK                            x       y       z     vdW  Elec       q    Type
REMARK                         _______ _______ _______ _____ _____    ______ ____
ROOT
ATOM      1  C   UNL     1       8.570  -1.842  24.839  0.00  0.00    +0.104 C 
ENDROOT
BRANCH   1   2
ATOM      2  C   UNL     1       9.278  -0.567  25.441  0.00  0.00    +0.003 C 
ATOM      3  C   UNL     1       8.291   0.612  25.666  0.00  0.00    +0.005 C 
ATOM      4  C   UNL     1       7.788   1.235  24.365  0.00  0.00    +0.008 C 
ATOM      5  C   UNL     1       8.903   1.685  23.410  0.00  0.00    +0.021 C 
ATOM      6  C   UNL     1      10.023   0.634  23.284  0.00  0.00    +0.008 C 
ATOM      7  C   UNL     1      10.452  -0.028  24.600  0.00  0.00    +0.005 C 
BRANCH   5   8
ATOM      8  C   UNL     1       9.433   3.091  23.665  0.00  0.00    -0.026 A 
ATOM      9  C   UNL     1       8.598   4.132  24.273  0.00  0.00    +0.009 A 
ATOM     10  C   UNL     1       9.082   5.342  24.612  0.00  0.00    +0.048 A 
ATOM     11  C   UNL     1      10.444   5.646  24.369  0.00  0.00    +0.156 A 
ATOM     12  N   UNL     1      11.218   4.670  23.744  0.00  0.00    -0.220 N 
ATOM     13  N   UNL     1      12.478   5.151  23.595  0.00  0.00    -0.154 NA
ATOM     14  C   UNL     1      12.398   6.353  24.156  0.00  0.00    +0.246 A 
ATOM     15  N   UNL     1      11.173   6.705  24.638  0.00  0.00    -0.215 NA
ATOM     16  C   UNL     1      10.717   3.418  23.394  0.00  0.00    +0.118 A 
ENDBRANCH   5   8
ENDBRANCH   1   2
BRANCH   1  17
ATOM     17  C   UNL     1       7.682  -2.453  25.933  0.00  0.00    +0.220 C 
ATOM     18  N   UNL     1       6.317  -2.227  25.918  0.00  0.00    -0.307 N 
ATOM     19  C   UNL     1       5.538  -2.643  27.078  0.00  0.00    +0.131 C 
ATOM     20  C   UNL     1       5.536  -1.855  24.748  0.00  0.00    +0.131 C 
ATOM     21  O   UNL     1       8.219  -3.105  26.839  0.00  0.00    -0.275 OA
ENDBRANCH   1  17
BRANCH   1  22
ATOM     22  C   UNL     1       9.472  -3.009  24.301  0.00  0.00    +0.150 C 
BRANCH  22  23
ATOM     23  C   UNL     1       8.678  -4.317  24.017  0.00  0.00    +0.233 C 
ATOM     24  N   UNL     1       7.673  -4.366  23.073  0.00  0.00    -0.294 N 
ATOM     25  C   UNL     1       6.921  -5.611  22.884  0.00  0.00    +0.183 C 
ATOM     26  C   UNL     1       5.847  -5.294  21.852  0.00  0.00    +0.266 C 
ATOM     27  F   UNL     1       4.631  -5.748  22.223  0.00  0.00    -0.204 F 
ATOM     28  F   UNL     1       6.145  -5.856  20.657  0.00  0.00    -0.204 F 
ATOM     29  C   UNL     1       5.846  -3.783  21.728  0.00  0.00    +0.096 C 
ATOM     30  C   UNL     1       7.295  -3.422  22.030  0.00  0.00    +0.114 C 
ATOM     31  O   UNL     1       8.984  -5.359  24.608  0.00  0.00    -0.274 OA
ENDBRANCH  22  23
BRANCH  22  32
ATOM     32  N   UNL     1      10.329  -2.599  23.170  0.00  0.00    -0.319 NA
ATOM     33  H   UNL     1      11.311  -2.719  23.455  0.00  0.00    +0.119 HD
ATOM     34  H   UNL     1      10.223  -1.603  22.993  0.00  0.00    +0.119 HD
ENDBRANCH  22  32
ENDBRANCH   1  22
TORSDOF 6
ENDMDL
MODEL 2
REMARK VINA RESULT:      -7.9      1.853      2.997
REMARK  Name = 
REMARK  8 active torsions:
REMARK  status: ('A' for Active; 'I' for Inactive)
REMARK    1  A    between atoms: C_2  and  N_3
REMARK    2  A    between atoms: C_2  and  C_4
REMARK    3  A    between atoms: C_2  and  C_13
REMARK    4  A    between atoms: C_13  and  C_15
REMARK    5  A    between atoms: C_13  and  C_20
REMARK    6  A    between atoms: N_17  and  C_18
REMARK    7  A    between atoms: N_17  and  C_19
REMARK    8  A    between atoms: C_24  and  C_28
REMARK                            x       y       z     vdW  Elec       q    Type
REMARK                         _______ _______ _______ _____ _____    ______ ____
ROOT
ATOM      1  C   UNL     1       6.621  -3.864  26.389  0.00  0.00    +0.104 C 
ENDROOT
BRANCH   1   2
ATOM      2  C   UNL     1       7.579  -2.654  26.716  0.00  0.00    +0.003 C 
ATOM      3  C   UNL     1       6.837  -1.288  26.711  0.00  0.00    +0.005 C 
ATOM      4  C   UNL     1       6.393  -0.847  25.318  0.00  0.00    +0.008 C 
ATOM      5  C   UNL     1       7.525  -0.810  24.280  0.00  0.00    +0.021 C 
ATOM      6  C   UNL     1       8.426  -2.058  24.354  0.00  0.00    +0.008 C 
ATOM      7  C   UNL     1       8.789  -2.521  25.771  0.00  0.00    +0.005 C 
BRANCH   5   8
ATOM      8  C   UNL     1       8.315   0.492  24.242  0.00  0.00    -0.026 A 
ATOM      9  C   UNL     1       9.780   0.506  24.189  0.00  0.00    +0.009 A 
ATOM     10  C   UNL     1      10.489   1.641  24.039  0.00  0.00    +0.048 A 
ATOM     11  C   UNL     1       9.813   2.882  23.937  0.00  0.00    +0.156 A 
ATOM     12  N   UNL     1       8.423   2.866  24.039  0.00  0.00    -0.220 N 
ATOM     13  N   UNL     1       7.969   4.140  23.926  0.00  0.00    -0.154 NA
ATOM     14  C   UNL     1       9.089   4.830  23.734  0.00  0.00    +0.246 A 
ATOM     15  N   UNL     1      10.244   4.107  23.740  0.00  0.00    -0.215 NA
ATOM     16  C   UNL     1       7.690   1.691  24.195  0.00  0.00    +0.118 A 
ENDBRANCH   5   8
ENDBRANCH   1   2
BRANCH   1  17
ATOM     17  C   UNL     1       5.698  -4.079  27.598  0.00  0.00    +0.220 C 
ATOM     18  N   UNL     1       4.409  -3.575  27.578  0.00  0.00    -0.307 N 
ATOM     19  C   UNL     1       3.637  -3.614  28.814  0.00  0.00    +0.131 C 
ATOM     20  C   UNL     1       3.648  -3.249  26.382  0.00  0.00    +0.131 C 
ATOM     21  O   UNL     1       6.147  -4.666  28.591  0.00  0.00    -0.275 OA
ENDBRANCH   1  17
BRANCH   1  22
ATOM     22  C   UNL     1       7.267  -5.260  26.075  0.00  0.00    +0.150 C 
BRANCH  22  23
ATOM     23  C   UNL     1       7.726  -5.403  24.594  0.00  0.00    +0.233 C 
ATOM     24  N   UNL     1       6.838  -5.293  23.544  0.00  0.00    -0.294 N 
ATOM     25  C   UNL     1       7.315  -5.490  22.172  0.00  0.00    +0.183 C 
ATOM     26  C   UNL     1       6.081  -5.392  21.285  0.00  0.00    +0.266 C 
ATOM     27  F   UNL     1       6.019  -6.392  20.381  0.00  0.00    -0.204 F 
ATOM     28  F   UNL     1       6.068  -4.223  20.603  0.00  0.00    -0.204 F 
ATOM     29  C   UNL     1       4.901  -5.449  22.236  0.00  0.00    +0.096 C 
ATOM     30  C   UNL     1       5.462  -4.816  23.504  0.00  0.00    +0.114 C 
ATOM     31  O   UNL     1       8.925  -5.564  24.339  0.00  0.00    -0.274 OA
ENDBRANCH  22  23
BRANCH  22  32
ATOM     32  N   UNL     1       8.318  -5.638  27.041  0.00  0.00    -0.319 NA
ATOM     33  H   UNL     1       9.159  -5.901  26.510  0.00  0.00    +0.119 HD
ATOM     34  H   UNL     1       8.047  -6.479  27.544  0.00  0.00    +0.119 HD
ENDBRANCH  22  32
ENDBRANCH   1  22
TORSDOF 6
ENDMDL
MODEL 3
REMARK VINA RESULT:      -7.9      2.743      4.050
REMARK  Name = 
REMARK  8 active torsions:
REMARK  status: ('A' for Active; 'I' for Inactive)
REMARK    1  A    between atoms: C_2  and  N_3
REMARK    2  A    between atoms: C_2  and  C_4
REMARK    3  A    between atoms: C_2  and  C_13
REMARK    4  A    between atoms: C_13  and  C_15
REMARK    5  A    between atoms: C_13  and  C_20
REMARK    6  A    between atoms: N_17  and  C_18
REMARK    7  A    between atoms: N_17  and  C_19
REMARK    8  A    between atoms: C_24  and  C_28
REMARK                            x       y       z     vdW  Elec       q    Type
REMARK                         _______ _______ _______ _____ _____    ______ ____
ROOT
ATOM      1  C   UNL     1       6.761  -4.479  24.593  0.00  0.00    +0.104 C 
ENDROOT
BRANCH   1   2
ATOM      2  C   UNL     1       8.083  -3.682  24.264  0.00  0.00    +0.003 C 
ATOM      3  C   UNL     1       8.613  -2.879  25.485  0.00  0.00    +0.005 C 
ATOM      4  C   UNL     1       7.728  -1.692  25.857  0.00  0.00    +0.008 C 
ATOM      5  C   UNL     1       7.453  -0.724  24.697  0.00  0.00    +0.021 C 
ATOM      6  C   UNL     1       7.102  -1.463  23.391  0.00  0.00    +0.008 C 
ATOM      7  C   UNL     1       7.961  -2.697  23.085  0.00  0.00    +0.005 C 
BRANCH   5   8
ATOM      8  C   UNL     1       8.509   0.358  24.504  0.00  0.00    -0.026 A 
ATOM      9  C   UNL     1       9.926   0.029  24.316  0.00  0.00    +0.009 A 
ATOM     10  C   UNL     1      10.854   0.961  24.029  0.00  0.00    +0.048 A 
ATOM     11  C   UNL     1      10.470   2.320  23.911  0.00  0.00    +0.156 A 
ATOM     12  N   UNL     1       9.131   2.631  24.140  0.00  0.00    -0.220 N 
ATOM     13  N   UNL     1       8.969   3.970  23.989  0.00  0.00    -0.154 NA
ATOM     14  C   UNL     1      10.190   4.373  23.651  0.00  0.00    +0.246 A 
ATOM     15  N   UNL     1      11.144   3.403  23.598  0.00  0.00    -0.215 NA
ATOM     16  C   UNL     1       8.171   1.665  24.438  0.00  0.00    +0.118 A 
ENDBRANCH   5   8
ENDBRANCH   1   2
BRANCH   1  17
ATOM     17  C   UNL     1       6.968  -5.212  25.926  0.00  0.00    +0.220 C 
ATOM     18  N   UNL     1       6.113  -4.966  26.986  0.00  0.00    -0.307 N 
ATOM     19  C   UNL     1       6.460  -5.516  28.292  0.00  0.00    +0.131 C 
ATOM     20  C   UNL     1       4.762  -4.436  26.877  0.00  0.00    +0.131 C 
ATOM     21  O   UNL     1       7.931  -5.982  26.038  0.00  0.00    -0.275 OA
ENDBRANCH   1  17
BRANCH   1  22
ATOM     22  C   UNL     1       6.272  -5.562  23.566  0.00  0.00    +0.150 C 
BRANCH  22  23
ATOM     23  C   UNL     1       4.801  -5.348  23.105  0.00  0.00    +0.233 C 
ATOM     24  N   UNL     1       3.772  -6.145  23.563  0.00  0.00    -0.294 N 
ATOM     25  C   UNL     1       2.413  -5.933  23.054  0.00  0.00    +0.183 C 
ATOM     26  C   UNL     1       1.559  -7.024  23.686  0.00  0.00    +0.266 C 
ATOM     27  F   UNL     1       0.764  -7.638  22.784  0.00  0.00    -0.204 F 
ATOM     28  F   UNL     1       0.761  -6.513  24.653  0.00  0.00    -0.204 F 
ATOM     29  C   UNL     1       2.546  -8.003  24.292  0.00  0.00    +0.096 C 
ATOM     30  C   UNL     1       3.724  -7.108  24.655  0.00  0.00    +0.114 C 
ATOM     31  O   UNL     1       4.527  -4.407  22.352  0.00  0.00    -0.274 OA
ENDBRANCH  22  23
BRANCH  22  32
ATOM     32  N   UNL     1       7.207  -5.749  22.438  0.00  0.00    -0.319 NA
ATOM     33  H   UNL     1       8.001  -6.312  22.773  0.00  0.00    +0.119 HD
ATOM     34  H   UNL     1       7.610  -4.857  22.165  0.00  0.00    +0.119 HD
ENDBRANCH  22  32
ENDBRANCH   1  22
TORSDOF 6
ENDMDL
MODEL 4
REMARK VINA RESULT:      -7.8      2.543      3.775
REMARK  Name = 
REMARK  8 active torsions:
REMARK  status: ('A' for Active; 'I' for Inactive)
REMARK    1  A    between atoms: C_2  and  N_3
REMARK    2  A    between atoms: C_2  and  C_4
REMARK    3  A    between atoms: C_2  and  C_13
REMARK    4  A    between atoms: C_13  and  C_15
REMARK    5  A    between atoms: C_13  and  C_20
REMARK    6  A    between atoms: N_17  and  C_18
REMARK    7  A    between atoms: N_17  and  C_19
REMARK    8  A    between atoms: C_24  and  C_28
REMARK                            x       y       z     vdW  Elec       q    Type
REMARK                         _______ _______ _______ _____ _____    ______ ____
ROOT
ATOM      1  C   UNL     1       7.268  -2.795  24.033  0.00  0.00    +0.104 C 
ENDROOT
BRANCH   1   2
ATOM      2  C   UNL     1       8.009  -1.657  23.230  0.00  0.00    +0.003 C 
ATOM      3  C   UNL     1       9.380  -1.280  23.858  0.00  0.00    +0.005 C 
ATOM      4  C   UNL     1       9.254  -0.556  25.196  0.00  0.00    +0.008 C 
ATOM      5  C   UNL     1       8.358   0.691  25.155  0.00  0.00    +0.021 C 
ATOM      6  C   UNL     1       7.050   0.445  24.377  0.00  0.00    +0.008 C 
ATOM      7  C   UNL     1       7.203  -0.352  23.075  0.00  0.00    +0.005 C 
BRANCH   5   8
ATOM      8  C   UNL     1       9.068   1.973  24.736  0.00  0.00    -0.026 A 
ATOM      9  C   UNL     1      10.344   1.949  24.015  0.00  0.00    +0.009 A 
ATOM     10  C   UNL     1      10.927   3.064  23.536  0.00  0.00    +0.048 A 
ATOM     11  C   UNL     1      10.305   4.321  23.735  0.00  0.00    +0.156 A 
ATOM     12  N   UNL     1       9.118   4.342  24.465  0.00  0.00    -0.220 N 
ATOM     13  N   UNL     1       8.689   5.626  24.552  0.00  0.00    -0.154 NA
ATOM     14  C   UNL     1       9.608   6.286  23.855  0.00  0.00    +0.246 A 
ATOM     15  N   UNL     1      10.621   5.534  23.342  0.00  0.00    -0.215 NA
ATOM     16  C   UNL     1       8.516   3.187  24.961  0.00  0.00    +0.118 A 
ENDBRANCH   5   8
ENDBRANCH   1   2
BRANCH   1  17
ATOM     17  C   UNL     1       8.250  -3.960  24.220  0.00  0.00    +0.220 C 
ATOM     18  N   UNL     1       8.687  -4.296  25.490  0.00  0.00    -0.307 N 
ATOM     19  C   UNL     1       9.771  -5.263  25.610  0.00  0.00    +0.131 C 
ATOM     20  C   UNL     1       7.997  -3.980  26.731  0.00  0.00    +0.131 C 
ATOM     21  O   UNL     1       8.667  -4.552  23.216  0.00  0.00    -0.275 OA
ENDBRANCH   1  17
BRANCH   1  22
ATOM     22  C   UNL     1       5.964  -3.412  23.415  0.00  0.00    +0.150 C 
BRANCH  22  23
ATOM     23  C   UNL     1       4.823  -3.601  24.457  0.00  0.00    +0.233 C 
ATOM     24  N   UNL     1       4.529  -4.836  24.997  0.00  0.00    -0.294 N 
ATOM     25  C   UNL     1       3.408  -4.966  25.934  0.00  0.00    +0.183 C 
ATOM     26  C   UNL     1       3.308  -6.451  26.257  0.00  0.00    +0.266 C 
ATOM     27  F   UNL     1       2.039  -6.907  26.181  0.00  0.00    -0.204 F 
ATOM     28  F   UNL     1       3.758  -6.704  27.508  0.00  0.00    -0.204 F 
ATOM     29  C   UNL     1       4.193  -7.142  25.238  0.00  0.00    +0.096 C 
ATOM     30  C   UNL     1       5.263  -6.094  24.959  0.00  0.00    +0.114 C 
ATOM     31  O   UNL     1       4.193  -2.616  24.860  0.00  0.00    -0.274 OA
ENDBRANCH  22  23
BRANCH  22  32
ATOM     32  N   UNL     1       5.518  -2.709  22.195  0.00  0.00    -0.319 NA
ATOM     33  H   UNL     1       4.573  -3.046  21.962  0.00  0.00    +0.119 HD
ATOM     34  H   UNL     1       6.098  -2.976  21.405  0.00  0.00    +0.119 HD
ENDBRANCH  22  32
ENDBRANCH   1  22
TORSDOF 6
ENDMDL
MODEL 5
REMARK VINA RESULT:      -7.7      3.050      4.966
REMARK  Name = 
REMARK  8 active torsions:
REMARK  status: ('A' for Active; 'I' for Inactive)
REMARK    1  A    between atoms: C_2  and  N_3
REMARK    2  A    between atoms: C_2  and  C_4
REMARK    3  A    between atoms: C_2  and  C_13
REMARK    4  A    between atoms: C_13  and  C_15
REMARK    5  A    between atoms: C_13  and  C_20
REMARK    6  A    between atoms: N_17  and  C_18
REMARK    7  A    between atoms: N_17  and  C_19
REMARK    8  A    between atoms: C_24  and  C_28
REMARK                            x       y       z     vdW  Elec       q    Type
REMARK                         _______ _______ _______ _____ _____    ______ ____
ROOT
ATOM      1  C   UNL     1       5.855  -3.124  24.501  0.00  0.00    +0.104 C 
ENDROOT
BRANCH   1   2
ATOM      2  C   UNL     1       5.919  -1.622  24.022  0.00  0.00    +0.003 C 
ATOM      3  C   UNL     1       7.103  -1.357  23.050  0.00  0.00    +0.005 C 
ATOM      4  C   UNL     1       8.470  -1.429  23.729  0.00  0.00    +0.008 C 
ATOM      5  C   UNL     1       8.611  -0.518  24.958  0.00  0.00    +0.021 C 
ATOM      6  C   UNL     1       7.377  -0.585  25.879  0.00  0.00    +0.008 C 
ATOM      7  C   UNL     1       6.022  -0.589  25.161  0.00  0.00    +0.005 C 
BRANCH   5   8
ATOM      8  C   UNL     1       9.044   0.910  24.647  0.00  0.00    -0.026 A 
ATOM      9  C   UNL     1      10.076   1.203  23.647  0.00  0.00    +0.009 A 
ATOM     10  C   UNL     1      10.388   2.459  23.277  0.00  0.00    +0.048 A 
ATOM     11  C   UNL     1       9.714   3.555  23.871  0.00  0.00    +0.156 A 
ATOM     12  N   UNL     1       8.770   3.270  24.856  0.00  0.00    -0.220 N 
ATOM     13  N   UNL     1       8.248   4.440  25.302  0.00  0.00    -0.154 NA
ATOM     14  C   UNL     1       8.872   5.341  24.551  0.00  0.00    +0.246 A 
ATOM     15  N   UNL     1       9.784   4.850  23.665  0.00  0.00    -0.215 NA
ATOM     16  C   UNL     1       8.448   1.969  25.239  0.00  0.00    +0.118 A 
ENDBRANCH   5   8
ENDBRANCH   1   2
BRANCH   1  17
ATOM     17  C   UNL     1       5.851  -4.020  23.254  0.00  0.00    +0.220 C 
ATOM     18  N   UNL     1       6.976  -4.761  22.935  0.00  0.00    -0.307 N 
ATOM     19  C   UNL     1       7.013  -5.433  21.642  0.00  0.00    +0.131 C 
ATOM     20  C   UNL     1       8.019  -5.156  23.869  0.00  0.00    +0.131 C 
ATOM     21  O   UNL     1       4.847  -4.027  22.530  0.00  0.00    -0.275 OA
ENDBRANCH   1  17
BRANCH   1  22
ATOM     22  C   UNL     1       4.627  -3.574  25.371  0.00  0.00    +0.150 C 
BRANCH  22  23
ATOM     23  C   UNL     1       4.957  -3.675  26.889  0.00  0.00    +0.233 C 
ATOM     24  N   UNL     1       5.156  -4.891  27.510  0.00  0.00    -0.294 N 
ATOM     25  C   UNL     1       5.411  -4.930  28.954  0.00  0.00    +0.183 C 
ATOM     26  C   UNL     1       5.490  -6.406  29.321  0.00  0.00    +0.266 C 
ATOM     27  F   UNL     1       4.760  -6.700  30.417  0.00  0.00    -0.204 F 
ATOM     28  F   UNL     1       6.769  -6.773  29.570  0.00  0.00    -0.204 F 
ATOM     29  C   UNL     1       4.965  -7.148  28.106  0.00  0.00    +0.096 C 
ATOM     30  C   UNL     1       5.351  -6.224  26.958  0.00  0.00    +0.114 C 
ATOM     31  O   UNL     1       5.102  -2.642  27.553  0.00  0.00    -0.274 OA
ENDBRANCH  22  23
BRANCH  22  32
ATOM     32  N   UNL     1       3.409  -2.785  25.098  0.00  0.00    -0.319 NA
ATOM     33  H   UNL     1       3.556  -2.266  24.221  0.00  0.00    +0.119 HD
ATOM     34  H   UNL     1       3.286  -2.072  25.812  0.00  0.00    +0.119 HD
ENDBRANCH  22  32
ENDBRANCH   1  22
TORSDOF 6
ENDMDL
MODEL 6
REMARK VINA RESULT:      -7.3      4.589      8.880
REMARK  Name = 
REMARK  8 active torsions:
REMARK  status: ('A' for Active; 'I' for Inactive)
REMARK    1  A    between atoms: C_2  and  N_3
REMARK    2  A    between atoms: C_2  and  C_4
REMARK    3  A    between atoms: C_2  and  C_13
REMARK    4  A    between atoms: C_13  and  C_15
REMARK    5  A    between atoms: C_13  and  C_20
REMARK    6  A    between atoms: N_17  and  C_18
REMARK    7  A    between atoms: N_17  and  C_19
REMARK    8  A    between atoms: C_24  and  C_28
REMARK                            x       y       z     vdW  Elec       q    Type
REMARK                         _______ _______ _______ _____ _____    ______ ____
ROOT
ATOM      1  C   UNL     1       7.525   1.775  23.627  0.00  0.00    +0.104 C 
ENDROOT
BRANCH   1   2
ATOM      2  C   UNL     1       7.065   0.268  23.551  0.00  0.00    +0.003 C 
ATOM      3  C   UNL     1       6.052  -0.103  24.670  0.00  0.00    +0.005 C 
ATOM      4  C   UNL     1       6.676  -0.135  26.064  0.00  0.00    +0.008 C 
ATOM      5  C   UNL     1       7.911  -1.041  26.179  0.00  0.00    +0.021 C 
ATOM      6  C   UNL     1       8.879  -0.864  24.993  0.00  0.00    +0.008 C 
ATOM      7  C   UNL     1       8.213  -0.758  23.614  0.00  0.00    +0.005 C 
BRANCH   5   8
ATOM      8  C   UNL     1       7.604  -2.503  26.483  0.00  0.00    -0.026 A 
ATOM      9  C   UNL     1       8.617  -3.552  26.335  0.00  0.00    +0.009 A 
ATOM     10  C   UNL     1       8.399  -4.827  26.709  0.00  0.00    +0.048 A 
ATOM     11  C   UNL     1       7.145  -5.193  27.257  0.00  0.00    +0.156 A 
ATOM     12  N   UNL     1       6.169  -4.201  27.347  0.00  0.00    -0.220 N 
ATOM     13  N   UNL     1       5.050  -4.747  27.884  0.00  0.00    -0.154 NA
ATOM     14  C   UNL     1       5.420  -6.003  28.112  0.00  0.00    +0.246 A 
ATOM     15  N   UNL     1       6.690  -6.327  27.738  0.00  0.00    -0.215 NA
ATOM     16  C   UNL     1       6.396  -2.882  26.960  0.00  0.00    +0.118 A 
ENDBRANCH   5   8
ENDBRANCH   1   2
BRANCH   1  17
ATOM     17  C   UNL     1       6.268   2.650  23.737  0.00  0.00    +0.220 C 
ATOM     18  N   UNL     1       5.973   3.284  24.931  0.00  0.00    -0.307 N 
ATOM     19  C   UNL     1       4.673   3.931  25.063  0.00  0.00    +0.131 C 
ATOM     20  C   UNL     1       6.931   3.599  25.979  0.00  0.00    +0.131 C 
ATOM     21  O   UNL     1       5.516   2.735  22.757  0.00  0.00    -0.275 OA
ENDBRANCH   1  17
BRANCH   1  22
ATOM     22  C   UNL     1       8.364   2.356  22.434  0.00  0.00    +0.150 C 
BRANCH  22  23
ATOM     23  C   UNL     1       9.838   2.674  22.820  0.00  0.00    +0.233 C 
ATOM     24  N   UNL     1      10.220   3.924  23.264  0.00  0.00    -0.294 N 
ATOM     25  C   UNL     1      11.632   4.183  23.562  0.00  0.00    +0.183 C 
ATOM     26  C   UNL     1      11.714   5.659  23.930  0.00  0.00    +0.266 C 
ATOM     27  F   UNL     1      12.729   6.287  23.301  0.00  0.00    -0.204 F 
ATOM     28  F   UNL     1      11.899   5.814  25.262  0.00  0.00    -0.204 F 
ATOM     29  C   UNL     1      10.377   6.247  23.521  0.00  0.00    +0.096 C 
ATOM     30  C   UNL     1       9.427   5.068  23.692  0.00  0.00    +0.114 C 
ATOM     31  O   UNL     1      10.687   1.776  22.785  0.00  0.00    -0.274 OA
ENDBRANCH  22  23
BRANCH  22  32
ATOM     32  N   UNL     1       8.254   1.546  21.204  0.00  0.00    -0.319 NA
ATOM     33  H   UNL     1       7.259   1.501  20.941  0.00  0.00    +0.119 HD
ATOM     34  H   UNL     1       8.522   0.583  21.393  0.00  0.00    +0.119 HD
ENDBRANCH  22  32
ENDBRANCH   1  22
TORSDOF 6
ENDMDL
MODEL 7
REMARK VINA RESULT:      -7.3      2.936      4.440
REMARK  Name = 
REMARK  8 active torsions:
REMARK  status: ('A' for Active; 'I' for Inactive)
REMARK    1  A    between atoms: C_2  and  N_3
REMARK    2  A    between atoms: C_2  and  C_4
REMARK    3  A    between atoms: C_2  and  C_13
REMARK    4  A    between atoms: C_13  and  C_15
REMARK    5  A    between atoms: C_13  and  C_20
REMARK    6  A    between atoms: N_17  and  C_18
REMARK    7  A    between atoms: N_17  and  C_19
REMARK    8  A    between atoms: C_24  and  C_28
REMARK                            x       y       z     vdW  Elec       q    Type
REMARK                         _______ _______ _______ _____ _____    ______ ____
ROOT
ATOM      1  C   UNL     1       5.824  -3.211  24.328  0.00  0.00    +0.104 C 
ENDROOT
BRANCH   1   2
ATOM      2  C   UNL     1       5.930  -1.697  23.901  0.00  0.00    +0.003 C 
ATOM      3  C   UNL     1       7.125  -1.430  22.943  0.00  0.00    +0.005 C 
ATOM      4  C   UNL     1       8.486  -1.562  23.623  0.00  0.00    +0.008 C 
ATOM      5  C   UNL     1       8.646  -0.697  24.883  0.00  0.00    +0.021 C 
ATOM      6  C   UNL     1       7.407  -0.763  25.798  0.00  0.00    +0.008 C 
ATOM      7  C   UNL     1       6.055  -0.706  25.075  0.00  0.00    +0.005 C 
BRANCH   5   8
ATOM      8  C   UNL     1       9.118   0.728  24.623  0.00  0.00    -0.026 A 
ATOM      9  C   UNL     1      10.236   1.019  23.719  0.00  0.00    +0.009 A 
ATOM     10  C   UNL     1      10.591   2.274  23.387  0.00  0.00    +0.048 A 
ATOM     11  C   UNL     1       9.879   3.372  23.930  0.00  0.00    +0.156 A 
ATOM     12  N   UNL     1       8.850   3.089  24.827  0.00  0.00    -0.220 N 
ATOM     13  N   UNL     1       8.302   4.261  25.235  0.00  0.00    -0.154 NA
ATOM     14  C   UNL     1       8.998   5.161  24.549  0.00  0.00    +0.246 A 
ATOM     15  N   UNL     1       9.979   4.668  23.742  0.00  0.00    -0.215 NA
ATOM     16  C   UNL     1       8.483   1.789  25.170  0.00  0.00    +0.118 A 
ENDBRANCH   5   8
ENDBRANCH   1   2
BRANCH   1  17
ATOM     17  C   UNL     1       5.782  -4.063  23.051  0.00  0.00    +0.220 C 
ATOM     18  N   UNL     1       6.878  -4.833  22.701  0.00  0.00    -0.307 N 
ATOM     19  C   UNL     1       6.886  -5.461  21.385  0.00  0.00    +0.131 C 
ATOM     20  C   UNL     1       7.909  -5.300  23.616  0.00  0.00    +0.131 C 
ATOM     21  O   UNL     1       4.776  -4.007  22.331  0.00  0.00    -0.275 OA
ENDBRANCH   1  17
BRANCH   1  22
ATOM     22  C   UNL     1       4.591  -3.654  25.193  0.00  0.00    +0.150 C 
BRANCH  22  23
ATOM     23  C   UNL     1       4.548  -5.187  25.458  0.00  0.00    +0.233 C 
ATOM     24  N   UNL     1       3.470  -5.961  25.079  0.00  0.00    -0.294 N 
ATOM     25  C   UNL     1       3.460  -7.392  25.403  0.00  0.00    +0.183 C 
ATOM     26  C   UNL     1       2.109  -7.914  24.931  0.00  0.00    +0.266 C 
ATOM     27  F   UNL     1       1.505  -8.684  25.861  0.00  0.00    -0.204 F 
ATOM     28  F   UNL     1       2.244  -8.658  23.809  0.00  0.00    -0.204 F 
ATOM     29  C   UNL     1       1.284  -6.676  24.636  0.00  0.00    +0.096 C 
ATOM     30  C   UNL     1       2.341  -5.664  24.209  0.00  0.00    +0.114 C 
ATOM     31  O   UNL     1       5.524  -5.746  25.972  0.00  0.00    -0.274 OA
ENDBRANCH  22  23
BRANCH  22  32
ATOM     32  N   UNL     1       4.434  -2.853  26.423  0.00  0.00    -0.319 NA
ATOM     33  H   UNL     1       5.369  -2.547  26.725  0.00  0.00    +0.119 HD
ATOM     34  H   UNL     1       4.087  -3.436  27.180  0.00  0.00    +0.119 HD
ENDBRANCH  22  32
ENDBRANCH   1  22
TORSDOF 6
ENDMDL
MODEL 8
REMARK VINA RESULT:      -7.2      1.962      2.704
REMARK  Name = 
REMARK  8 active torsions:
REMARK  status: ('A' for Active; 'I' for Inactive)
REMARK    1  A    between atoms: C_2  and  N_3
REMARK    2  A    between atoms: C_2  and  C_4
REMARK    3  A    between atoms: C_2  and  C_13
REMARK    4  A    between atoms: C_13  and  C_15
REMARK    5  A    between atoms: C_13  and  C_20
REMARK    6  A    between atoms: N_17  and  C_18
REMARK    7  A    between atoms: N_17  and  C_19
REMARK    8  A    between atoms: C_24  and  C_28
REMARK                            x       y       z     vdW  Elec       q    Type
REMARK                         _______ _______ _______ _____ _____    ______ ____
ROOT
ATOM      1  C   UNL     1       7.810  -2.356  23.780  0.00  0.00    +0.104 C 
ENDROOT
BRANCH   1   2
ATOM      2  C   UNL     1       8.832  -1.248  23.315  0.00  0.00    +0.003 C 
ATOM      3  C   UNL     1       9.532  -0.544  24.511  0.00  0.00    +0.005 C 
ATOM      4  C   UNL     1       8.594   0.349  25.321  0.00  0.00    +0.008 C 
ATOM      5  C   UNL     1       7.847   1.399  24.485  0.00  0.00    +0.021 C 
ATOM      6  C   UNL     1       7.282   0.810  23.177  0.00  0.00    +0.008 C 
ATOM      7  C   UNL     1       8.222  -0.144  22.428  0.00  0.00    +0.005 C 
BRANCH   5   8
ATOM      8  C   UNL     1       8.607   2.702  24.271  0.00  0.00    -0.026 A 
ATOM      9  C   UNL     1       8.048   3.997  24.671  0.00  0.00    +0.009 A 
ATOM     10  C   UNL     1       8.750   5.143  24.597  0.00  0.00    +0.048 A 
ATOM     11  C   UNL     1      10.079   5.122  24.105  0.00  0.00    +0.156 A 
ATOM     12  N   UNL     1      10.586   3.895  23.679  0.00  0.00    -0.220 N 
ATOM     13  N   UNL     1      11.855   4.084  23.240  0.00  0.00    -0.154 NA
ATOM     14  C   UNL     1      12.045   5.382  23.454  0.00  0.00    +0.246 A 
ATOM     15  N   UNL     1      10.986   6.062  23.974  0.00  0.00    -0.215 NA
ATOM     16  C   UNL     1       9.858   2.709  23.756  0.00  0.00    +0.118 A 
ENDBRANCH   5   8
ENDBRANCH   1   2
BRANCH   1  17
ATOM     17  C   UNL     1       8.592  -3.430  24.550  0.00  0.00    +0.220 C 
ATOM     18  N   UNL     1       8.324  -3.648  25.890  0.00  0.00    -0.307 N 
ATOM     19  C   UNL     1       9.221  -4.521  26.637  0.00  0.00    +0.131 C 
ATOM     20  C   UNL     1       7.085  -3.305  26.570  0.00  0.00    +0.131 C 
ATOM     21  O   UNL     1       9.484  -4.053  23.959  0.00  0.00    -0.275 OA
ENDBRANCH   1  17
BRANCH   1  22
ATOM     22  C   UNL     1       6.986  -3.115  22.680  0.00  0.00    +0.150 C 
BRANCH  22  23
ATOM     23  C   UNL     1       6.573  -4.553  23.107  0.00  0.00    +0.233 C 
ATOM     24  N   UNL     1       5.448  -4.791  23.869  0.00  0.00    -0.294 N 
ATOM     25  C   UNL     1       5.137  -6.162  24.288  0.00  0.00    +0.183 C 
ATOM     26  C   UNL     1       3.904  -6.054  25.176  0.00  0.00    +0.266 C 
ATOM     27  F   UNL     1       4.033  -6.762  26.318  0.00  0.00    -0.204 F 
ATOM     28  F   UNL     1       2.805  -6.511  24.533  0.00  0.00    -0.204 F 
ATOM     29  C   UNL     1       3.754  -4.574  25.472  0.00  0.00    +0.096 C 
ATOM     30  C   UNL     1       4.333  -3.923  24.222  0.00  0.00    +0.114 C 
ATOM     31  O   UNL     1       7.233  -5.521  22.711  0.00  0.00    -0.274 OA
ENDBRANCH  22  23
BRANCH  22  32
ATOM     32  N   UNL     1       5.853  -2.322  22.161  0.00  0.00    -0.319 NA
ATOM     33  H   UNL     1       6.107  -1.980  21.223  0.00  0.00    +0.119 HD
ATOM     34  H   UNL     1       5.724  -1.485  22.723  0.00  0.00    +0.119 HD
ENDBRANCH  22  32
ENDBRANCH   1  22
TORSDOF 6
ENDMDL
MODEL 9
REMARK VINA RESULT:      -7.2      4.322      9.450
REMARK  Name = 
REMARK  8 active torsions:
REMARK  status: ('A' for Active; 'I' for Inactive)
REMARK    1  A    between atoms: C_2  and  N_3
REMARK    2  A    between atoms: C_2  and  C_4
REMARK    3  A    between atoms: C_2  and  C_13
REMARK    4  A    between atoms: C_13  and  C_15
REMARK    5  A    between atoms: C_13  and  C_20
REMARK    6  A    between atoms: N_17  and  C_18
REMARK    7  A    between atoms: N_17  and  C_19
REMARK    8  A    between atoms: C_24  and  C_28
REMARK                            x       y       z     vdW  Elec       q    Type
REMARK                         _______ _______ _______ _____ _____    ______ ____
ROOT
ATOM      1  C   UNL     1       7.967  -0.856  24.912  0.00  0.00    +0.104 C 
ENDROOT
BRANCH   1   2
ATOM      2  C   UNL     1       7.783  -2.395  25.207  0.00  0.00    +0.003 C 
ATOM      3  C   UNL     1       7.622  -3.235  23.909  0.00  0.00    +0.005 C 
ATOM      4  C   UNL     1       6.296  -2.990  23.191  0.00  0.00    +0.008 C 
ATOM      5  C   UNL     1       5.056  -3.185  24.077  0.00  0.00    +0.021 C 
ATOM      6  C   UNL     1       5.221  -2.534  25.464  0.00  0.00    +0.008 C 
ATOM      7  C   UNL     1       6.592  -2.735  26.123  0.00  0.00    +0.005 C 
BRANCH   5   8
ATOM      8  C   UNL     1       4.543  -4.618  24.149  0.00  0.00    -0.026 A 
ATOM      9  C   UNL     1       5.129  -5.604  25.062  0.00  0.00    +0.009 A 
ATOM     10  C   UNL     1       4.615  -6.837  25.224  0.00  0.00    +0.048 A 
ATOM     11  C   UNL     1       3.470  -7.223  24.483  0.00  0.00    +0.156 A 
ATOM     12  N   UNL     1       2.949  -6.299  23.580  0.00  0.00    -0.220 N 
ATOM     13  N   UNL     1       1.872  -6.854  22.970  0.00  0.00    -0.154 NA
ATOM     14  C   UNL     1       1.791  -8.045  23.555  0.00  0.00    +0.246 A 
ATOM     15  N   UNL     1       2.750  -8.321  24.482  0.00  0.00    -0.215 NA
ATOM     16  C   UNL     1       3.482  -5.022  23.414  0.00  0.00    +0.118 A 
ENDBRANCH   5   8
ENDBRANCH   1   2
BRANCH   1  17
ATOM     17  C   UNL     1       9.009  -0.708  23.793  0.00  0.00    +0.220 C 
ATOM     18  N   UNL     1       8.647  -0.134  22.587  0.00  0.00    -0.307 N 
ATOM     19  C   UNL     1       9.596  -0.199  21.482  0.00  0.00    +0.131 C 
ATOM     20  C   UNL     1       7.520   0.764  22.384  0.00  0.00    +0.131 C 
ATOM     21  O   UNL     1      10.150  -1.151  23.982  0.00  0.00    -0.275 OA
ENDBRANCH   1  17
BRANCH   1  22
ATOM     22  C   UNL     1       8.444   0.073  26.084  0.00  0.00    +0.150 C 
BRANCH  22  23
ATOM     23  C   UNL     1       7.345   1.065  26.565  0.00  0.00    +0.233 C 
ATOM     24  N   UNL     1       7.359   2.397  26.204  0.00  0.00    -0.294 N 
ATOM     25  C   UNL     1       6.329   3.298  26.730  0.00  0.00    +0.183 C 
ATOM     26  C   UNL     1       6.690   4.685  26.216  0.00  0.00    +0.266 C 
ATOM     27  F   UNL     1       6.637   5.621  27.188  0.00  0.00    -0.204 F 
ATOM     28  F   UNL     1       5.845   5.070  25.232  0.00  0.00    -0.204 F 
ATOM     29  C   UNL     1       8.098   4.554  25.669  0.00  0.00    +0.096 C 
ATOM     30  C   UNL     1       8.141   3.105  25.199  0.00  0.00    +0.114 C 
ATOM     31  O   UNL     1       6.399   0.648  27.243  0.00  0.00    -0.274 OA
ENDBRANCH  22  23
BRANCH  22  32
ATOM     32  N   UNL     1       9.069  -0.675  27.193  0.00  0.00    -0.319 NA
ATOM     33  H   UNL     1       9.235  -1.639  26.872  0.00  0.00    +0.119 HD
ATOM     34  H   UNL     1       8.418  -0.762  27.969  0.00  0.00    +0.119 HD
ENDBRANCH  22  32
ENDBRANCH   1  22
TORSDOF 6
ENDMDL
