MODEL 1
REMARK VINA RESULT:      -5.0      0.000      0.000
REMARK  Name = 
REMARK  9 active torsions:
REMARK  status: ('A' for Active; 'I' for Inactive)
REMARK    1  A    between atoms: C_1  and  C_2
REMARK    2  A    between atoms: C_2  and  C_3
REMARK    3  A    between atoms: C_3  and  C_4
REMARK    4  A    between atoms: C_4  and  C_6
REMARK    5  A    between atoms: C_6  and  O_7
REMARK    6  A    between atoms: C_8  and  O_9
REMARK    7  A    between atoms: O_9  and  P_10
REMARK    8  A    between atoms: P_10  and  O_11
REMARK    9  A    between atoms: P_10  and  O_12
REMARK                            x       y       z     vdW  Elec       q    Type
REMARK                         _______ _______ _______ _____ _____    ______ ____
ROOT
ATOM      1  C   UNL     1      10.109  -1.224  23.217  0.00  0.00    +0.195 C 
ATOM      2  C   UNL     1       9.785  -2.037  24.223  0.00  0.00    +0.248 C 
ENDROOT
BRANCH   1   3
ATOM      3  C   UNL     1      10.054   0.274  23.294  0.00  0.00    +0.200 C 
ATOM      4  O   UNL     1      10.085   0.771  24.419  0.00  0.00    -0.289 OA
BRANCH   3   5
ATOM      5  C   UNL     1       9.971   1.073  22.015  0.00  0.00    +0.083 C 
BRANCH   5   7
ATOM      6  C   UNL     1       7.975   2.582  21.984  0.00  0.00    +0.004 C 
ATOM      7  C   UNL     1       8.536   1.247  21.526  0.00  0.00    +0.005 C 
ENDBRANCH   5   7
ENDBRANCH   3   5
ENDBRANCH   1   3
BRANCH   1   8
ATOM      8  O   UNL     1      10.541  -1.766  22.013  0.00  0.00    -0.501 OA
ATOM      9  H   UNL     1       9.830  -2.381  21.743  0.00  0.00    +0.292 HD
ENDBRANCH   1   8
BRANCH   2  10
ATOM     10  O   UNL     1       9.906  -3.395  24.082  0.00  0.00    -0.408 OA
BRANCH  10  11
ATOM     11  P   UNL     1       9.162  -4.516  24.957  0.00  0.00    +0.528 P 
ATOM     12  O   UNL     1       8.310  -3.998  26.058  0.00  0.00    -0.216 OA
BRANCH  11  13
ATOM     13  O   UNL     1      10.434  -5.400  25.346  0.00  0.00    -0.293 OA
ATOM     14  H   UNL     1      11.106  -5.352  24.642  0.00  0.00    +0.223 HD
ENDBRANCH  11  13
BRANCH  11  15
ATOM     15  O   UNL     1       8.461  -5.370  23.806  0.00  0.00    -0.293 OA
ATOM     16  H   UNL     1       8.606  -6.326  23.903  0.00  0.00    +0.223 HD
ENDBRANCH  11  15
ENDBRANCH  10  11
ENDBRANCH   2  10
TORSDOF 8
ENDMDL
MODEL 2
REMARK VINA RESULT:      -4.9      3.051      5.625
REMARK  Name = 
REMARK  9 active torsions:
REMARK  status: ('A' for Active; 'I' for Inactive)
REMARK    1  A    between atoms: C_1  and  C_2
REMARK    2  A    between atoms: C_2  and  C_3
REMARK    3  A    between atoms: C_3  and  C_4
REMARK    4  A    between atoms: C_4  and  C_6
REMARK    5  A    between atoms: C_6  and  O_7
REMARK    6  A    between atoms: C_8  and  O_9
REMARK    7  A    between atoms: O_9  and  P_10
REMARK    8  A    between atoms: P_10  and  O_11
REMARK    9  A    between atoms: P_10  and  O_12
REMARK                            x       y       z     vdW  Elec       q    Type
REMARK                         _______ _______ _______ _____ _____    ______ ____
ROOT
ATOM      1  C   UNL     1       9.722  -1.800  22.988  0.00  0.00    +0.195 C 
ATOM      2  C   UNL     1       9.949  -0.650  23.624  0.00  0.00    +0.248 C 
ENDROOT
BRANCH   1   3
ATOM      3  C   UNL     1       9.178  -3.033  23.648  0.00  0.00    +0.200 C 
ATOM      4  O   UNL     1       9.963  -3.684  24.336  0.00  0.00    -0.289 OA
BRANCH   3   5
ATOM      5  C   UNL     1       7.727  -3.398  23.442  0.00  0.00    +0.083 C 
BRANCH   5   7
ATOM      6  C   UNL     1       7.232  -5.485  22.153  0.00  0.00    +0.004 C 
ATOM      7  C   UNL     1       7.482  -4.901  23.533  0.00  0.00    +0.005 C 
ENDBRANCH   5   7
ENDBRANCH   3   5
ENDBRANCH   1   3
BRANCH   1   8
ATOM      8  O   UNL     1       9.983  -1.890  21.627  0.00  0.00    -0.501 OA
ATOM      9  H   UNL     1       9.111  -1.795  21.194  0.00  0.00    +0.292 HD
ENDBRANCH   1   8
BRANCH   2  10
ATOM     10  O   UNL     1      10.407   0.442  22.935  0.00  0.00    -0.408 OA
BRANCH  10  11
ATOM     11  P   UNL     1       9.517   1.637  22.338  0.00  0.00    +0.528 P 
ATOM     12  O   UNL     1       8.495   2.189  23.265  0.00  0.00    -0.216 OA
BRANCH  11  13
ATOM     13  O   UNL     1       9.010   0.917  21.006  0.00  0.00    -0.293 OA
ATOM     14  H   UNL     1       8.070   0.673  21.091  0.00  0.00    +0.223 HD
ENDBRANCH  11  13
BRANCH  11  15
ATOM     15  O   UNL     1      10.658   2.620  21.811  0.00  0.00    -0.293 OA
ATOM     16  H   UNL     1      10.618   2.767  20.852  0.00  0.00    +0.223 HD
ENDBRANCH  11  15
ENDBRANCH  10  11
ENDBRANCH   2  10
TORSDOF 8
ENDMDL
MODEL 3
REMARK VINA RESULT:      -4.9      1.643      2.140
REMARK  Name = 
REMARK  9 active torsions:
REMARK  status: ('A' for Active; 'I' for Inactive)
REMARK    1  A    between atoms: C_1  and  C_2
REMARK    2  A    between atoms: C_2  and  C_3
REMARK    3  A    between atoms: C_3  and  C_4
REMARK    4  A    between atoms: C_4  and  C_6
REMARK    5  A    between atoms: C_6  and  O_7
REMARK    6  A    between atoms: C_8  and  O_9
REMARK    7  A    between atoms: O_9  and  P_10
REMARK    8  A    between atoms: P_10  and  O_11
REMARK    9  A    between atoms: P_10  and  O_12
REMARK                            x       y       z     vdW  Elec       q    Type
REMARK                         _______ _______ _______ _____ _____    ______ ____
ROOT
ATOM      1  C   UNL     1       8.890  -2.763  23.539  0.00  0.00    +0.195 C 
ATOM      2  C   UNL     1       7.959  -3.614  23.973  0.00  0.00    +0.248 C 
ENDROOT
BRANCH   1   3
ATOM      3  C   UNL     1       8.589  -1.489  22.805  0.00  0.00    +0.200 C 
ATOM      4  O   UNL     1       7.480  -0.990  22.995  0.00  0.00    -0.289 OA
BRANCH   3   5
ATOM      5  C   UNL     1       9.642  -0.897  21.898  0.00  0.00    +0.083 C 
BRANCH   5   7
ATOM      6  C   UNL     1      10.013   1.571  22.082  0.00  0.00    +0.004 C 
ATOM      7  C   UNL     1       9.247   0.475  21.361  0.00  0.00    +0.005 C 
ENDBRANCH   5   7
ENDBRANCH   3   5
ENDBRANCH   1   3
BRANCH   1   8
ATOM      8  O   UNL     1      10.231  -3.040  23.775  0.00  0.00    -0.501 OA
ATOM      9  H   UNL     1      10.468  -3.726  23.119  0.00  0.00    +0.292 HD
ENDBRANCH   1   8
BRANCH   2  10
ATOM     10  O   UNL     1       8.319  -4.735  24.674  0.00  0.00    -0.408 OA
BRANCH  10  11
ATOM     11  P   UNL     1       8.835  -4.787  26.192  0.00  0.00    +0.528 P 
ATOM     12  O   UNL     1       8.728  -3.508  26.942  0.00  0.00    -0.216 OA
BRANCH  11  13
ATOM     13  O   UNL     1      10.294  -5.382  25.931  0.00  0.00    -0.293 OA
ATOM     14  H   UNL     1      10.473  -5.428  24.973  0.00  0.00    +0.223 HD
ENDBRANCH  11  13
BRANCH  11  15
ATOM     15  O   UNL     1       8.019  -6.045  26.738  0.00  0.00    -0.293 OA
ATOM     16  H   UNL     1       7.446  -5.826  27.491  0.00  0.00    +0.223 HD
ENDBRANCH  11  15
ENDBRANCH  10  11
ENDBRANCH   2  10
TORSDOF 8
ENDMDL
MODEL 4
REMARK VINA RESULT:      -4.9      1.501      1.699
REMARK  Name = 
REMARK  9 active torsions:
REMARK  status: ('A' for Active; 'I' for Inactive)
REMARK    1  A    between atoms: C_1  and  C_2
REMARK    2  A    between atoms: C_2  and  C_3
REMARK    3  A    between atoms: C_3  and  C_4
REMARK    4  A    between atoms: C_4  and  C_6
REMARK    5  A    between atoms: C_6  and  O_7
REMARK    6  A    between atoms: C_8  and  O_9
REMARK    7  A    between atoms: O_9  and  P_10
REMARK    8  A    between atoms: P_10  and  O_11
REMARK    9  A    between atoms: P_10  and  O_12
REMARK                            x       y       z     vdW  Elec       q    Type
REMARK                         _______ _______ _______ _____ _____    ______ ____
ROOT
ATOM      1  C   UNL     1       8.877  -1.940  22.857  0.00  0.00    +0.195 C 
ATOM      2  C   UNL     1       9.790  -2.245  23.779  0.00  0.00    +0.248 C 
ENDROOT
BRANCH   1   3
ATOM      3  C   UNL     1       8.573  -0.541  22.403  0.00  0.00    +0.200 C 
ATOM      4  O   UNL     1       7.467  -0.091  22.701  0.00  0.00    -0.289 OA
BRANCH   3   5
ATOM      5  C   UNL     1       9.620   0.223  21.627  0.00  0.00    +0.083 C 
BRANCH   5   7
ATOM      6  C   UNL     1      10.424   1.572  23.575  0.00  0.00    +0.004 C 
ATOM      7  C   UNL     1       9.842   1.630  22.173  0.00  0.00    +0.005 C 
ENDBRANCH   5   7
ENDBRANCH   3   5
ENDBRANCH   1   3
BRANCH   1   8
ATOM      8  O   UNL     1       8.153  -2.958  22.250  0.00  0.00    -0.501 OA
ATOM      9  H   UNL     1       7.217  -2.682  22.323  0.00  0.00    +0.292 HD
ENDBRANCH   1   8
BRANCH   2  10
ATOM     10  O   UNL     1      10.035  -3.553  24.104  0.00  0.00    -0.408 OA
BRANCH  10  11
ATOM     11  P   UNL     1       9.249  -4.430  25.194  0.00  0.00    +0.528 P 
ATOM     12  O   UNL     1       8.772  -3.680  26.385  0.00  0.00    -0.216 OA
BRANCH  11  13
ATOM     13  O   UNL     1      10.342  -5.573  25.416  0.00  0.00    -0.293 OA
ATOM     14  H   UNL     1      10.450  -5.755  26.368  0.00  0.00    +0.223 HD
ENDBRANCH  11  13
BRANCH  11  15
ATOM     15  O   UNL     1       8.159  -5.141  24.270  0.00  0.00    -0.293 OA
ATOM     16  H   UNL     1       8.527  -5.466  23.433  0.00  0.00    +0.223 HD
ENDBRANCH  11  15
ENDBRANCH  10  11
ENDBRANCH   2  10
TORSDOF 8
ENDMDL
MODEL 5
REMARK VINA RESULT:      -4.7      1.061      1.710
REMARK  Name = 
REMARK  9 active torsions:
REMARK  status: ('A' for Active; 'I' for Inactive)
REMARK    1  A    between atoms: C_1  and  C_2
REMARK    2  A    between atoms: C_2  and  C_3
REMARK    3  A    between atoms: C_3  and  C_4
REMARK    4  A    between atoms: C_4  and  C_6
REMARK    5  A    between atoms: C_6  and  O_7
REMARK    6  A    between atoms: C_8  and  O_9
REMARK    7  A    between atoms: O_9  and  P_10
REMARK    8  A    between atoms: P_10  and  O_11
REMARK    9  A    between atoms: P_10  and  O_12
REMARK                            x       y       z     vdW  Elec       q    Type
REMARK                         _______ _______ _______ _____ _____    ______ ____
ROOT
ATOM      1  C   UNL     1       9.347  -1.712  23.875  0.00  0.00    +0.195 C 
ATOM      2  C   UNL     1       9.746  -2.921  24.271  0.00  0.00    +0.248 C 
ENDROOT
BRANCH   1   3
ATOM      3  C   UNL     1      10.057  -0.889  22.839  0.00  0.00    +0.200 C 
ATOM      4  O   UNL     1      10.440  -1.482  21.830  0.00  0.00    -0.289 OA
BRANCH   3   5
ATOM      5  C   UNL     1      10.255   0.588  23.082  0.00  0.00    +0.083 C 
BRANCH   5   7
ATOM      6  C   UNL     1       8.393   1.530  21.700  0.00  0.00    +0.004 C 
ATOM      7  C   UNL     1       9.901   1.434  21.863  0.00  0.00    +0.005 C 
ENDBRANCH   5   7
ENDBRANCH   3   5
ENDBRANCH   1   3
BRANCH   1   8
ATOM      8  O   UNL     1       8.201  -1.156  24.427  0.00  0.00    -0.501 OA
ATOM      9  H   UNL     1       8.480  -0.813  25.300  0.00  0.00    +0.292 HD
ENDBRANCH   1   8
BRANCH   2  10
ATOM     10  O   UNL     1       9.013  -3.623  25.192  0.00  0.00    -0.408 OA
BRANCH  10  11
ATOM     11  P   UNL     1       8.889  -5.220  25.297  0.00  0.00    +0.528 P 
ATOM     12  O   UNL     1       7.975  -5.715  26.358  0.00  0.00    -0.216 OA
BRANCH  11  13
ATOM     13  O   UNL     1      10.442  -5.573  25.422  0.00  0.00    -0.293 OA
ATOM     14  H   UNL     1      10.969  -4.979  24.856  0.00  0.00    +0.223 HD
ENDBRANCH  11  13
BRANCH  11  15
ATOM     15  O   UNL     1       8.550  -5.590  23.783  0.00  0.00    -0.293 OA
ATOM     16  H   UNL     1       7.644  -5.351  23.528  0.00  0.00    +0.223 HD
ENDBRANCH  11  15
ENDBRANCH  10  11
ENDBRANCH   2  10
TORSDOF 8
ENDMDL
MODEL 6
REMARK VINA RESULT:      -4.7      3.053      4.329
REMARK  Name = 
REMARK  9 active torsions:
REMARK  status: ('A' for Active; 'I' for Inactive)
REMARK    1  A    between atoms: C_1  and  C_2
REMARK    2  A    between atoms: C_2  and  C_3
REMARK    3  A    between atoms: C_3  and  C_4
REMARK    4  A    between atoms: C_4  and  C_6
REMARK    5  A    between atoms: C_6  and  O_7
REMARK    6  A    between atoms: C_8  and  O_9
REMARK    7  A    between atoms: O_9  and  P_10
REMARK    8  A    between atoms: P_10  and  O_11
REMARK    9  A    between atoms: P_10  and  O_12
REMARK                            x       y       z     vdW  Elec       q    Type
REMARK                         _______ _______ _______ _____ _____    ______ ____
ROOT
ATOM      1  C   UNL     1      10.217   2.275  23.129  0.00  0.00    +0.195 C 
ATOM      2  C   UNL     1      10.483   1.162  23.812  0.00  0.00    +0.248 C 
ENDROOT
BRANCH   1   3
ATOM      3  C   UNL     1       9.861   3.588  23.764  0.00  0.00    +0.200 C 
ATOM      4  O   UNL     1       8.874   3.596  24.500  0.00  0.00    -0.289 OA
BRANCH   3   5
ATOM      5  C   UNL     1      10.717   4.799  23.478  0.00  0.00    +0.083 C 
BRANCH   5   7
ATOM      6  C   UNL     1      12.928   5.477  22.524  0.00  0.00    +0.004 C 
ATOM      7  C   UNL     1      12.201   4.458  23.383  0.00  0.00    +0.005 C 
ENDBRANCH   5   7
ENDBRANCH   3   5
ENDBRANCH   1   3
BRANCH   1   8
ATOM      8  O   UNL     1      10.276   2.255  21.741  0.00  0.00    -0.501 OA
ATOM      9  H   UNL     1       9.511   2.791  21.447  0.00  0.00    +0.292 HD
ENDBRANCH   1   8
BRANCH   2  10
ATOM     10  O   UNL     1      10.843   0.015  23.154  0.00  0.00    -0.408 OA
BRANCH  10  11
ATOM     11  P   UNL     1       9.867  -1.184  22.721  0.00  0.00    +0.528 P 
ATOM     12  O   UNL     1      10.367  -2.549  23.028  0.00  0.00    -0.216 OA
BRANCH  11  13
ATOM     13  O   UNL     1       9.665  -0.787  21.187  0.00  0.00    -0.293 OA
ATOM     14  H   UNL     1      10.503  -0.464  20.809  0.00  0.00    +0.223 HD
ENDBRANCH  11  13
BRANCH  11  15
ATOM     15  O   UNL     1       8.503  -0.715  23.404  0.00  0.00    -0.293 OA
ATOM     16  H   UNL     1       8.044  -1.435  23.865  0.00  0.00    +0.223 HD
ENDBRANCH  11  15
ENDBRANCH  10  11
ENDBRANCH   2  10
TORSDOF 8
ENDMDL
MODEL 7
REMARK VINA RESULT:      -4.5      3.332      5.740
REMARK  Name = 
REMARK  9 active torsions:
REMARK  status: ('A' for Active; 'I' for Inactive)
REMARK    1  A    between atoms: C_1  and  C_2
REMARK    2  A    between atoms: C_2  and  C_3
REMARK    3  A    between atoms: C_3  and  C_4
REMARK    4  A    between atoms: C_4  and  C_6
REMARK    5  A    between atoms: C_6  and  O_7
REMARK    6  A    between atoms: C_8  and  O_9
REMARK    7  A    between atoms: O_9  and  P_10
REMARK    8  A    between atoms: P_10  and  O_11
REMARK    9  A    between atoms: P_10  and  O_12
REMARK                            x       y       z     vdW  Elec       q    Type
REMARK                         _______ _______ _______ _____ _____    ______ ____
ROOT
ATOM      1  C   UNL     1       9.500  -1.335  22.690  0.00  0.00    +0.195 C 
ATOM      2  C   UNL     1       9.891  -0.460  23.617  0.00  0.00    +0.248 C 
ENDROOT
BRANCH   1   3
ATOM      3  C   UNL     1       8.650  -2.539  22.973  0.00  0.00    +0.200 C 
ATOM      4  O   UNL     1       7.774  -2.804  22.150  0.00  0.00    -0.289 OA
BRANCH   3   5
ATOM      5  C   UNL     1       8.911  -3.346  24.223  0.00  0.00    +0.083 C 
BRANCH   5   7
ATOM      6  C   UNL     1       7.278  -4.936  25.255  0.00  0.00    +0.004 C 
ATOM      7  C   UNL     1       8.308  -4.745  24.154  0.00  0.00    +0.005 C 
ENDBRANCH   5   7
ENDBRANCH   3   5
ENDBRANCH   1   3
BRANCH   1   8
ATOM      8  O   UNL     1       9.878  -1.142  21.367  0.00  0.00    -0.501 OA
ATOM      9  H   UNL     1       9.147  -0.628  20.967  0.00  0.00    +0.292 HD
ENDBRANCH   1   8
BRANCH   2  10
ATOM     10  O   UNL     1      10.631   0.637  23.264  0.00  0.00    -0.408 OA
BRANCH  10  11
ATOM     11  P   UNL     1      10.073   2.115  22.981  0.00  0.00    +0.528 P 
ATOM     12  O   UNL     1      10.953   3.222  23.437  0.00  0.00    -0.216 OA
BRANCH  11  13
ATOM     13  O   UNL     1       8.639   1.966  23.668  0.00  0.00    -0.293 OA
ATOM     14  H   UNL     1       8.322   1.048  23.591  0.00  0.00    +0.223 HD
ENDBRANCH  11  13
BRANCH  11  15
ATOM     15  O   UNL     1       9.744   2.013  21.423  0.00  0.00    -0.293 OA
ATOM     16  H   UNL     1       9.123   1.297  21.213  0.00  0.00    +0.223 HD
ENDBRANCH  11  15
ENDBRANCH  10  11
ENDBRANCH   2  10
TORSDOF 8
ENDMDL
MODEL 8
REMARK VINA RESULT:      -4.5      2.643      3.724
REMARK  Name = 
REMARK  9 active torsions:
REMARK  status: ('A' for Active; 'I' for Inactive)
REMARK    1  A    between atoms: C_1  and  C_2
REMARK    2  A    between atoms: C_2  and  C_3
REMARK    3  A    between atoms: C_3  and  C_4
REMARK    4  A    between atoms: C_4  and  C_6
REMARK    5  A    between atoms: C_6  and  O_7
REMARK    6  A    between atoms: C_8  and  O_9
REMARK    7  A    between atoms: O_9  and  P_10
REMARK    8  A    between atoms: P_10  and  O_11
REMARK    9  A    between atoms: P_10  and  O_12
REMARK                            x       y       z     vdW  Elec       q    Type
REMARK                         _______ _______ _______ _____ _____    ______ ____
ROOT
ATOM      1  C   UNL     1       8.117  -2.999  23.107  0.00  0.00    +0.195 C 
ATOM      2  C   UNL     1       7.958  -4.247  23.548  0.00  0.00    +0.248 C 
ENDROOT
BRANCH   1   3
ATOM      3  C   UNL     1       9.445  -2.307  23.000  0.00  0.00    +0.200 C 
ATOM      4  O   UNL     1      10.357  -2.751  23.697  0.00  0.00    -0.289 OA
BRANCH   3   5
ATOM      5  C   UNL     1       9.589  -1.134  22.060  0.00  0.00    +0.083 C 
BRANCH   5   7
ATOM      6  C   UNL     1       9.861   1.348  21.888  0.00  0.00    +0.004 C 
ATOM      7  C   UNL     1      10.073   0.128  22.769  0.00  0.00    +0.005 C 
ENDBRANCH   5   7
ENDBRANCH   3   5
ENDBRANCH   1   3
BRANCH   1   8
ATOM      8  O   UNL     1       7.006  -2.271  22.701  0.00  0.00    -0.501 OA
ATOM      9  H   UNL     1       6.626  -1.908  23.526  0.00  0.00    +0.292 HD
ENDBRANCH   1   8
BRANCH   2  10
ATOM     10  O   UNL     1       6.713  -4.818  23.572  0.00  0.00    -0.408 OA
BRANCH  10  11
ATOM     11  P   UNL     1       5.967  -5.534  22.345  0.00  0.00    +0.528 P 
ATOM     12  O   UNL     1       6.843  -5.917  21.208  0.00  0.00    -0.216 OA
BRANCH  11  13
ATOM     13  O   UNL     1       4.833  -4.440  22.082  0.00  0.00    -0.293 OA
ATOM     14  H   UNL     1       3.993  -4.720  22.490  0.00  0.00    +0.223 HD
ENDBRANCH  11  13
BRANCH  11  15
ATOM     15  O   UNL     1       5.184  -6.694  23.112  0.00  0.00    -0.293 OA
ATOM     16  H   UNL     1       5.656  -7.543  23.096  0.00  0.00    +0.223 HD
ENDBRANCH  11  15
ENDBRANCH  10  11
ENDBRANCH   2  10
TORSDOF 8
ENDMDL
MODEL 9
REMARK VINA RESULT:      -4.4      3.487      5.748
REMARK  Name = 
REMARK  9 active torsions:
REMARK  status: ('A' for Active; 'I' for Inactive)
REMARK    1  A    between atoms: C_1  and  C_2
REMARK    2  A    between atoms: C_2  and  C_3
REMARK    3  A    between atoms: C_3  and  C_4
REMARK    4  A    between atoms: C_4  and  C_6
REMARK    5  A    between atoms: C_6  and  O_7
REMARK    6  A    between atoms: C_8  and  O_9
REMARK    7  A    between atoms: O_9  and  P_10
REMARK    8  A    between atoms: P_10  and  O_11
REMARK    9  A    between atoms: P_10  and  O_12
REMARK                            x       y       z     vdW  Elec       q    Type
REMARK                         _______ _______ _______ _____ _____    ______ ____
ROOT
ATOM      1  C   UNL     1       9.741  -0.034  24.755  0.00  0.00    +0.195 C 
ATOM      2  C   UNL     1      10.711   0.445  23.976  0.00  0.00    +0.248 C 
ENDROOT
BRANCH   1   3
ATOM      3  C   UNL     1       9.340  -1.479  24.808  0.00  0.00    +0.200 C 
ATOM      4  O   UNL     1       8.735  -1.849  25.814  0.00  0.00    -0.289 OA
BRANCH   3   5
ATOM      5  C   UNL     1       9.687  -2.381  23.647  0.00  0.00    +0.083 C 
BRANCH   5   7
ATOM      6  C   UNL     1       7.519  -3.152  22.664  0.00  0.00    +0.004 C 
ATOM      7  C   UNL     1       8.715  -2.233  22.480  0.00  0.00    +0.005 C 
ENDBRANCH   5   7
ENDBRANCH   3   5
ENDBRANCH   1   3
BRANCH   1   8
ATOM      8  O   UNL     1       9.047   0.832  25.592  0.00  0.00    -0.501 OA
ATOM      9  H   UNL     1       8.720   1.543  25.006  0.00  0.00    +0.292 HD
ENDBRANCH   1   8
BRANCH   2  10
ATOM     10  O   UNL     1      11.042   1.774  24.022  0.00  0.00    -0.408 OA
BRANCH  10  11
ATOM     11  P   UNL     1      10.320   2.967  23.228  0.00  0.00    +0.528 P 
ATOM     12  O   UNL     1       9.048   3.447  23.827  0.00  0.00    -0.216 OA
BRANCH  11  13
ATOM     13  O   UNL     1      10.259   2.291  21.782  0.00  0.00    -0.293 OA
ATOM     14  H   UNL     1       9.551   2.697  21.249  0.00  0.00    +0.223 HD
ENDBRANCH  11  13
BRANCH  11  15
ATOM     15  O   UNL     1      11.524   4.006  23.096  0.00  0.00    -0.293 OA
ATOM     16  H   UNL     1      12.377   3.633  23.375  0.00  0.00    +0.223 HD
ENDBRANCH  11  15
ENDBRANCH  10  11
ENDBRANCH   2  10
TORSDOF 8
ENDMDL
