MODEL 1
REMARK VINA RESULT:      -4.9      0.000      0.000
REMARK  Name = 
REMARK  5 active torsions:
REMARK  status: ('A' for Active; 'I' for Inactive)
REMARK    1  A    between atoms: C_1  and  C_2
REMARK    2  A    between atoms: C_2  and  N_3
REMARK    3  A    between atoms: N_7  and  C_8
REMARK    4  A    between atoms: C_8  and  C_9
REMARK    5  A    between atoms: C_8  and  C_10
REMARK                            x       y       z     vdW  Elec       q    Type
REMARK                         _______ _______ _______ _____ _____    ______ ____
ROOT
ATOM      1  N   UNL     1       9.003  -0.715  23.467  0.00  0.00    -0.314 N 
ATOM      2  H   UNL     1       8.465  -0.413  22.662  0.00  0.00    +0.149 HD
ATOM      3  C   UNL     1       8.685  -2.045  23.710  0.00  0.00    +0.221 A 
ATOM      4  N   UNL     1       9.492  -2.792  24.439  0.00  0.00    -0.184 NA
ATOM      5  C   UNL     1       9.056  -4.030  24.607  0.00  0.00    +0.229 A 
ATOM      6 CL   UNL     1      10.049  -5.047  25.556  0.00  0.00    -0.041 Cl
ATOM      7  N   UNL     1       7.954  -4.580  24.126  0.00  0.00    -0.184 NA
ATOM      8  C   UNL     1       7.214  -3.745  23.421  0.00  0.00    +0.221 A 
ATOM      9  N   UNL     1       5.993  -4.155  22.920  0.00  0.00    -0.311 N 
ATOM     10  H   UNL     1       5.649  -3.453  22.276  0.00  0.00    +0.149 HD
ATOM     11  N   UNL     1       7.547  -2.481  23.177  0.00  0.00    -0.181 NA
ENDROOT
BRANCH   9  12
ATOM     12  C   UNL     1       5.828  -5.545  22.518  0.00  0.00    +0.067 C 
ATOM     13  C   UNL     1       6.158  -5.706  21.034  0.00  0.00    +0.027 C 
ATOM     14  C   UNL     1       4.378  -5.951  22.781  0.00  0.00    +0.027 C 
ENDBRANCH   9  12
BRANCH   1  16
ATOM     15  C   UNL     1      10.728   0.645  24.509  0.00  0.00    +0.024 C 
ATOM     16  C   UNL     1      10.420  -0.401  23.449  0.00  0.00    +0.101 C 
ENDBRANCH   1  16
TORSDOF 2
ENDMDL
MODEL 2
REMARK VINA RESULT:      -4.9      0.899      5.259
REMARK  Name = 
REMARK  5 active torsions:
REMARK  status: ('A' for Active; 'I' for Inactive)
REMARK    1  A    between atoms: C_1  and  C_2
REMARK    2  A    between atoms: C_2  and  N_3
REMARK    3  A    between atoms: N_7  and  C_8
REMARK    4  A    between atoms: C_8  and  C_9
REMARK    5  A    between atoms: C_8  and  C_10
REMARK                            x       y       z     vdW  Elec       q    Type
REMARK                         _______ _______ _______ _____ _____    ______ ____
ROOT
ATOM      1  N   UNL     1       6.670  -4.218  21.882  0.00  0.00    -0.314 N 
ATOM      2  H   UNL     1       6.192  -3.392  21.541  0.00  0.00    +0.149 HD
ATOM      3  C   UNL     1       7.614  -3.804  22.813  0.00  0.00    +0.221 A 
ATOM      4  N   UNL     1       8.109  -4.668  23.678  0.00  0.00    -0.184 NA
ATOM      5  C   UNL     1       9.012  -4.142  24.490  0.00  0.00    +0.229 A 
ATOM      6 CL   UNL     1       9.706  -5.214  25.626  0.00  0.00    -0.041 Cl
ATOM      7  N   UNL     1       9.438  -2.891  24.537  0.00  0.00    -0.184 NA
ATOM      8  C   UNL     1       8.887  -2.113  23.625  0.00  0.00    +0.221 A 
ATOM      9  N   UNL     1       9.291  -0.797  23.501  0.00  0.00    -0.311 N 
ATOM     10  H   UNL     1       8.655  -0.316  22.876  0.00  0.00    +0.149 HD
ATOM     11  N   UNL     1       7.965  -2.522  22.757  0.00  0.00    -0.181 NA
ENDROOT
BRANCH   9  12
ATOM     12  C   UNL     1       9.706  -0.073  24.694  0.00  0.00    +0.067 C 
ATOM     13  C   UNL     1       8.578   0.841  25.174  0.00  0.00    +0.027 C 
ATOM     14  C   UNL     1      10.942   0.756  24.345  0.00  0.00    +0.027 C 
ENDBRANCH   9  12
BRANCH   1  16
ATOM     15  C   UNL     1       4.600  -4.799  23.016  0.00  0.00    +0.024 C 
ATOM     16  C   UNL     1       5.828  -5.328  22.292  0.00  0.00    +0.101 C 
ENDBRANCH   1  16
TORSDOF 2
ENDMDL
MODEL 3
REMARK VINA RESULT:      -4.8      2.460      4.997
REMARK  Name = 
REMARK  5 active torsions:
REMARK  status: ('A' for Active; 'I' for Inactive)
REMARK    1  A    between atoms: C_1  and  C_2
REMARK    2  A    between atoms: C_2  and  N_3
REMARK    3  A    between atoms: N_7  and  C_8
REMARK    4  A    between atoms: C_8  and  C_9
REMARK    5  A    between atoms: C_8  and  C_10
REMARK                            x       y       z     vdW  Elec       q    Type
REMARK                         _______ _______ _______ _____ _____    ______ ____
ROOT
ATOM      1  N   UNL     1       5.981  -4.015  25.885  0.00  0.00    -0.314 N 
ATOM      2  H   UNL     1       6.371  -3.283  26.467  0.00  0.00    +0.149 HD
ATOM      3  C   UNL     1       6.524  -3.876  24.613  0.00  0.00    +0.221 A 
ATOM      4  N   UNL     1       6.492  -4.890  23.770  0.00  0.00    -0.184 NA
ATOM      5  C   UNL     1       7.024  -4.610  22.590  0.00  0.00    +0.229 A 
ATOM      6 CL   UNL     1       7.001  -5.878  21.444  0.00  0.00    -0.041 Cl
ATOM      7  N   UNL     1       7.577  -3.477  22.192  0.00  0.00    -0.184 NA
ATOM      8  C   UNL     1       7.548  -2.527  23.107  0.00  0.00    +0.221 A 
ATOM      9  N   UNL     1       8.019  -1.262  22.809  0.00  0.00    -0.311 N 
ATOM     10  H   UNL     1       8.073  -0.722  23.663  0.00  0.00    +0.149 HD
ATOM     11  N   UNL     1       7.047  -2.687  24.329  0.00  0.00    -0.181 NA
ENDROOT
BRANCH   9  12
ATOM     12  C   UNL     1       9.133  -1.128  21.880  0.00  0.00    +0.067 C 
ATOM     13  C   UNL     1      10.439  -1.534  22.563  0.00  0.00    +0.027 C 
ATOM     14  C   UNL     1       9.206   0.332  21.430  0.00  0.00    +0.027 C 
ENDBRANCH   9  12
BRANCH   1  16
ATOM     15  C   UNL     1       7.232  -5.528  27.319  0.00  0.00    +0.024 C 
ATOM     16  C   UNL     1       6.007  -5.359  26.435  0.00  0.00    +0.101 C 
ENDBRANCH   1  16
TORSDOF 2
ENDMDL
MODEL 4
REMARK VINA RESULT:      -4.8      3.702      5.520
REMARK  Name = 
REMARK  5 active torsions:
REMARK  status: ('A' for Active; 'I' for Inactive)
REMARK    1  A    between atoms: C_1  and  C_2
REMARK    2  A    between atoms: C_2  and  N_3
REMARK    3  A    between atoms: N_7  and  C_8
REMARK    4  A    between atoms: C_8  and  C_9
REMARK    5  A    between atoms: C_8  and  C_10
REMARK                            x       y       z     vdW  Elec       q    Type
REMARK                         _______ _______ _______ _____ _____    ______ ____
ROOT
ATOM      1  N   UNL     1      11.180   3.590  22.655  0.00  0.00    -0.314 N 
ATOM      2  H   UNL     1      11.827   3.024  22.119  0.00  0.00    +0.149 HD
ATOM      3  C   UNL     1      10.235   2.736  23.210  0.00  0.00    +0.221 A 
ATOM      4  N   UNL     1       9.511   3.134  24.239  0.00  0.00    -0.184 NA
ATOM      5  C   UNL     1       8.638   2.229  24.650  0.00  0.00    +0.229 A 
ATOM      6 CL   UNL     1       7.657   2.689  25.972  0.00  0.00    -0.041 Cl
ATOM      7  N   UNL     1       8.436   1.013  24.173  0.00  0.00    -0.184 NA
ATOM      8  C   UNL     1       9.204   0.719  23.140  0.00  0.00    +0.221 A 
ATOM      9  N   UNL     1       9.052  -0.488  22.485  0.00  0.00    -0.311 N 
ATOM     10  H   UNL     1       9.821  -0.610  21.838  0.00  0.00    +0.149 HD
ATOM     11  N   UNL     1      10.121   1.541  22.638  0.00  0.00    -0.181 NA
ENDROOT
BRANCH   9  12
ATOM     12  C   UNL     1       8.652  -1.660  23.252  0.00  0.00    +0.067 C 
ATOM     13  C   UNL     1       9.886  -2.362  23.819  0.00  0.00    +0.027 C 
ATOM     14  C   UNL     1       7.890  -2.604  22.322  0.00  0.00    +0.027 C 
ENDBRANCH   9  12
BRANCH   1  16
ATOM     15  C   UNL     1      12.943   5.247  22.895  0.00  0.00    +0.024 C 
ATOM     16  C   UNL     1      11.769   4.554  23.568  0.00  0.00    +0.101 C 
ENDBRANCH   1  16
TORSDOF 2
ENDMDL
MODEL 5
REMARK VINA RESULT:      -4.8      1.975      5.605
REMARK  Name = 
REMARK  5 active torsions:
REMARK  status: ('A' for Active; 'I' for Inactive)
REMARK    1  A    between atoms: C_1  and  C_2
REMARK    2  A    between atoms: C_2  and  N_3
REMARK    3  A    between atoms: N_7  and  C_8
REMARK    4  A    between atoms: C_8  and  C_9
REMARK    5  A    between atoms: C_8  and  C_10
REMARK                            x       y       z     vdW  Elec       q    Type
REMARK                         _______ _______ _______ _____ _____    ______ ____
ROOT
ATOM      1  N   UNL     1       7.745  -5.161  23.209  0.00  0.00    -0.314 N 
ATOM      2  H   UNL     1       8.516  -5.220  22.553  0.00  0.00    +0.149 HD
ATOM      3  C   UNL     1       7.675  -3.848  23.659  0.00  0.00    +0.221 A 
ATOM      4  N   UNL     1       6.565  -3.401  24.213  0.00  0.00    -0.184 NA
ATOM      5  C   UNL     1       6.646  -2.143  24.614  0.00  0.00    +0.229 A 
ATOM      6 CL   UNL     1       5.244  -1.506  25.356  0.00  0.00    -0.041 Cl
ATOM      7  N   UNL     1       7.671  -1.315  24.504  0.00  0.00    -0.184 NA
ATOM      8  C   UNL     1       8.733  -1.865  23.946  0.00  0.00    +0.221 A 
ATOM      9  N   UNL     1       9.908  -1.145  23.835  0.00  0.00    -0.311 N 
ATOM     10  H   UNL     1      10.551  -1.656  23.241  0.00  0.00    +0.149 HD
ATOM     11  N   UNL     1       8.774  -3.116  23.497  0.00  0.00    -0.181 NA
ENDROOT
BRANCH   9  12
ATOM     12  C   UNL     1       9.835   0.295  23.631  0.00  0.00    +0.067 C 
ATOM     13  C   UNL     1       9.963   0.622  22.144  0.00  0.00    +0.027 C 
ATOM     14  C   UNL     1      10.976   0.946  24.413  0.00  0.00    +0.027 C 
ENDBRANCH   9  12
BRANCH   1  16
ATOM     15  C   UNL     1       6.441  -5.803  21.260  0.00  0.00    +0.024 C 
ATOM     16  C   UNL     1       6.488  -5.746  22.779  0.00  0.00    +0.101 C 
ENDBRANCH   1  16
TORSDOF 2
ENDMDL
MODEL 6
REMARK VINA RESULT:      -4.6      2.425      3.003
REMARK  Name = 
REMARK  5 active torsions:
REMARK  status: ('A' for Active; 'I' for Inactive)
REMARK    1  A    between atoms: C_1  and  C_2
REMARK    2  A    between atoms: C_2  and  N_3
REMARK    3  A    between atoms: N_7  and  C_8
REMARK    4  A    between atoms: C_8  and  C_9
REMARK    5  A    between atoms: C_8  and  C_10
REMARK                            x       y       z     vdW  Elec       q    Type
REMARK                         _______ _______ _______ _____ _____    ______ ____
ROOT
ATOM      1  N   UNL     1       9.713   0.434  22.122  0.00  0.00    -0.314 N 
ATOM      2  H   UNL     1      10.434  -0.198  21.794  0.00  0.00    +0.149 HD
ATOM      3  C   UNL     1       8.659  -0.338  22.594  0.00  0.00    +0.221 A 
ATOM      4  N   UNL     1       7.768   0.192  23.409  0.00  0.00    -0.184 NA
ATOM      5  C   UNL     1       6.809  -0.650  23.761  0.00  0.00    +0.229 A 
ATOM      6 CL   UNL     1       5.612  -0.019  24.806  0.00  0.00    -0.041 Cl
ATOM      7  N   UNL     1       6.667  -1.917  23.413  0.00  0.00    -0.184 NA
ATOM      8  C   UNL     1       7.604  -2.344  22.589  0.00  0.00    +0.221 A 
ATOM      9  N   UNL     1       7.544  -3.627  22.075  0.00  0.00    -0.311 N 
ATOM     10  H   UNL     1       8.417  -3.834  21.606  0.00  0.00    +0.149 HD
ATOM     11  N   UNL     1       8.621  -1.597  22.168  0.00  0.00    -0.181 NA
ENDROOT
BRANCH   9  12
ATOM     12  C   UNL     1       6.978  -4.687  22.897  0.00  0.00    +0.067 C 
ATOM     13  C   UNL     1       7.982  -5.118  23.966  0.00  0.00    +0.027 C 
ATOM     14  C   UNL     1       6.640  -5.868  21.987  0.00  0.00    +0.027 C 
ENDBRANCH   9  12
BRANCH   1  16
ATOM     15  C   UNL     1      10.962   0.932  24.148  0.00  0.00    +0.024 C 
ATOM     16  C   UNL     1      10.148   1.506  23.000  0.00  0.00    +0.101 C 
ENDBRANCH   1  16
TORSDOF 2
ENDMDL
MODEL 7
REMARK VINA RESULT:      -4.6      2.902      3.565
REMARK  Name = 
REMARK  5 active torsions:
REMARK  status: ('A' for Active; 'I' for Inactive)
REMARK    1  A    between atoms: C_1  and  C_2
REMARK    2  A    between atoms: C_2  and  N_3
REMARK    3  A    between atoms: N_7  and  C_8
REMARK    4  A    between atoms: C_8  and  C_9
REMARK    5  A    between atoms: C_8  and  C_10
REMARK                            x       y       z     vdW  Elec       q    Type
REMARK                         _______ _______ _______ _____ _____    ______ ____
ROOT
ATOM      1  N   UNL     1       6.422   1.214  22.513  0.00  0.00    -0.314 N 
ATOM      2  H   UNL     1       5.771   0.698  21.932  0.00  0.00    +0.149 HD
ATOM      3  C   UNL     1       7.224   0.289  23.169  0.00  0.00    +0.221 A 
ATOM      4  N   UNL     1       8.379   0.666  23.684  0.00  0.00    -0.184 NA
ATOM      5  C   UNL     1       9.027  -0.311  24.297  0.00  0.00    +0.229 A 
ATOM      6 CL   UNL     1      10.525   0.116  25.000  0.00  0.00    -0.041 Cl
ATOM      7  N   UNL     1       8.665  -1.576  24.425  0.00  0.00    -0.184 NA
ATOM      8  C   UNL     1       7.492  -1.845  23.884  0.00  0.00    +0.221 A 
ATOM      9  N   UNL     1       6.946  -3.109  24.007  0.00  0.00    -0.311 N 
ATOM     10  H   UNL     1       6.139  -3.179  23.399  0.00  0.00    +0.149 HD
ATOM     11  N   UNL     1       6.749  -0.951  23.237  0.00  0.00    -0.181 NA
ENDROOT
BRANCH   9  12
ATOM     12  C   UNL     1       7.837  -4.260  24.042  0.00  0.00    +0.067 C 
ATOM     13  C   UNL     1       7.489  -5.229  22.913  0.00  0.00    +0.027 C 
ATOM     14  C   UNL     1       7.673  -4.950  25.397  0.00  0.00    +0.027 C 
ENDBRANCH   9  12
BRANCH   1  16
ATOM     15  C   UNL     1       6.537   3.636  22.341  0.00  0.00    +0.024 C 
ATOM     16  C   UNL     1       7.123   2.313  21.875  0.00  0.00    +0.101 C 
ENDBRANCH   1  16
TORSDOF 2
ENDMDL
MODEL 8
REMARK VINA RESULT:      -4.5      2.803      3.525
REMARK  Name = 
REMARK  5 active torsions:
REMARK  status: ('A' for Active; 'I' for Inactive)
REMARK    1  A    between atoms: C_1  and  C_2
REMARK    2  A    between atoms: C_2  and  N_3
REMARK    3  A    between atoms: N_7  and  C_8
REMARK    4  A    between atoms: C_8  and  C_9
REMARK    5  A    between atoms: C_8  and  C_10
REMARK                            x       y       z     vdW  Elec       q    Type
REMARK                         _______ _______ _______ _____ _____    ______ ____
ROOT
ATOM      1  N   UNL     1       8.908  -2.595  23.286  0.00  0.00    -0.314 N 
ATOM      2  H   UNL     1       8.882  -2.096  24.168  0.00  0.00    +0.149 HD
ATOM      3  C   UNL     1       7.966  -3.614  23.351  0.00  0.00    +0.221 A 
ATOM      4  N   UNL     1       7.522  -4.171  22.241  0.00  0.00    -0.184 NA
ATOM      5  C   UNL     1       6.646  -5.141  22.453  0.00  0.00    +0.229 A 
ATOM      6 CL   UNL     1       6.043  -5.917  21.054  0.00  0.00    -0.041 Cl
ATOM      7  N   UNL     1       6.175  -5.578  23.608  0.00  0.00    -0.184 NA
ATOM      8  C   UNL     1       6.691  -4.961  24.654  0.00  0.00    +0.221 A 
ATOM      9  N   UNL     1       6.352  -5.363  25.932  0.00  0.00    -0.311 N 
ATOM     10  H   UNL     1       6.704  -4.682  26.595  0.00  0.00    +0.149 HD
ATOM     11  N   UNL     1       7.573  -3.969  24.571  0.00  0.00    -0.181 NA
ENDROOT
BRANCH   9  12
ATOM     12  C   UNL     1       5.012  -5.879  26.176  0.00  0.00    +0.067 C 
ATOM     13  C   UNL     1       4.035  -4.723  26.391  0.00  0.00    +0.027 C 
ATOM     14  C   UNL     1       5.061  -6.765  27.421  0.00  0.00    +0.027 C 
ENDBRANCH   9  12
BRANCH   1  16
ATOM     15  C   UNL     1       9.997  -0.760  22.121  0.00  0.00    +0.024 C 
ATOM     16  C   UNL     1       8.871  -1.781  22.085  0.00  0.00    +0.101 C 
ENDBRANCH   1  16
TORSDOF 2
ENDMDL
MODEL 9
REMARK VINA RESULT:      -4.5      1.898      2.271
REMARK  Name = 
REMARK  5 active torsions:
REMARK  status: ('A' for Active; 'I' for Inactive)
REMARK    1  A    between atoms: C_1  and  C_2
REMARK    2  A    between atoms: C_2  and  N_3
REMARK    3  A    between atoms: N_7  and  C_8
REMARK    4  A    between atoms: C_8  and  C_9
REMARK    5  A    between atoms: C_8  and  C_10
REMARK                            x       y       z     vdW  Elec       q    Type
REMARK                         _______ _______ _______ _____ _____    ______ ____
ROOT
ATOM      1  N   UNL     1       7.939  -1.825  22.692  0.00  0.00    -0.314 N 
ATOM      2  H   UNL     1       7.072  -1.794  22.167  0.00  0.00    +0.149 HD
ATOM      3  C   UNL     1       7.882  -2.929  23.533  0.00  0.00    +0.221 A 
ATOM      4  N   UNL     1       8.992  -3.425  24.044  0.00  0.00    -0.184 NA
ATOM      5  C   UNL     1       8.788  -4.461  24.843  0.00  0.00    +0.229 A 
ATOM      6 CL   UNL     1      10.187  -5.141  25.551  0.00  0.00    -0.041 Cl
ATOM      7  N   UNL     1       7.641  -5.038  25.154  0.00  0.00    -0.184 NA
ATOM      8  C   UNL     1       6.593  -4.459  24.598  0.00  0.00    +0.221 A 
ATOM      9  N   UNL     1       5.318  -4.904  24.893  0.00  0.00    -0.311 N 
ATOM     10  H   UNL     1       4.661  -4.463  24.261  0.00  0.00    +0.149 HD
ATOM     11  N   UNL     1       6.669  -3.417  23.774  0.00  0.00    -0.181 NA
ENDROOT
BRANCH   9  12
ATOM     12  C   UNL     1       5.112  -6.320  25.165  0.00  0.00    +0.067 C 
ATOM     13  C   UNL     1       4.060  -6.890  24.214  0.00  0.00    +0.027 C 
ATOM     14  C   UNL     1       4.645  -6.465  26.614  0.00  0.00    +0.027 C 
ENDBRANCH   9  12
BRANCH   1  16
ATOM     15  C   UNL     1       9.360  -0.225  21.538  0.00  0.00    +0.024 C 
ATOM     16  C   UNL     1       9.163  -1.682  21.924  0.00  0.00    +0.101 C 
ENDBRANCH   1  16
TORSDOF 2
ENDMDL
