MODEL 1
REMARK VINA RESULT:      -6.0      0.000      0.000
REMARK  Name = 
REMARK  3 active torsions:
REMARK  status: ('A' for Active; 'I' for Inactive)
REMARK    1  A    between atoms: C_2  and  C_3
REMARK    2  A    between atoms: C_3  and  P_4
REMARK    3  A    between atoms: C_12  and  C_13
REMARK                            x       y       z     vdW  Elec       q    Type
REMARK                         _______ _______ _______ _____ _____    ______ ____
ROOT
ATOM      1  C   UNL     1       8.992  -2.597  23.984  0.00  0.00    +0.180 C 
ATOM      2  O   UNL     1       8.857  -1.710  22.856  0.00  0.00    -0.488 OA
ATOM      3  C   UNL     1       9.352  -0.447  23.057  0.00  0.00    +0.124 A 
ATOM      4  C   UNL     1       9.568   0.098  24.326  0.00  0.00    -0.005 A 
ATOM      5  C   UNL     1      10.074   1.403  24.436  0.00  0.00    +0.010 A 
ATOM      6  C   UNL     1      10.336   2.171  23.294  0.00  0.00    -0.050 A 
ATOM      7  C   UNL     1      10.092   1.617  22.032  0.00  0.00    +0.007 A 
ATOM      8  C   UNL     1      10.870   3.569  23.412  0.00  0.00    +0.044 C 
ATOM      9  C   UNL     1       9.293  -0.713  25.560  0.00  0.00    +0.042 C 
ATOM     10  C   UNL     1       9.598   0.314  21.917  0.00  0.00    +0.046 A 
ATOM     11  C   UNL     1       8.429  -1.925  25.234  0.00  0.00    +0.050 C 
ENDROOT
BRANCH   1  12
ATOM     12  C   UNL     1       8.257  -3.907  23.679  0.00  0.00    +0.096 C 
BRANCH  12  13
ATOM     13  P   UNL     1       8.101  -4.857  25.235  0.00  0.00    +0.007 P 
ATOM     14  O   UNL     1       7.969  -5.660  26.552  0.00  0.00    -0.340 OA
ATOM     15  O   UNL     1       9.385  -5.558  24.720  0.00  0.00    -0.804 OA
ATOM     16  H   UNL     1       6.884  -5.315  24.685  0.00  0.00    +0.083 HD
ENDBRANCH  12  13
ENDBRANCH   1  12
TORSDOF 2
ENDMDL
MODEL 2
REMARK VINA RESULT:      -5.8      1.926      2.148
REMARK  Name = 
REMARK  3 active torsions:
REMARK  status: ('A' for Active; 'I' for Inactive)
REMARK    1  A    between atoms: C_2  and  C_3
REMARK    2  A    between atoms: C_3  and  P_4
REMARK    3  A    between atoms: C_12  and  C_13
REMARK                            x       y       z     vdW  Elec       q    Type
REMARK                         _______ _______ _______ _____ _____    ______ ____
ROOT
ATOM      1  C   UNL     1       8.687  -3.081  23.833  0.00  0.00    +0.180 C 
ATOM      2  O   UNL     1       8.599  -2.185  22.707  0.00  0.00    -0.488 OA
ATOM      3  C   UNL     1       9.123  -0.936  22.925  0.00  0.00    +0.124 A 
ATOM      4  C   UNL     1       9.326  -0.404  24.202  0.00  0.00    -0.005 A 
ATOM      5  C   UNL     1       9.864   0.887  24.330  0.00  0.00    +0.010 A 
ATOM      6  C   UNL     1      10.171   1.654  23.199  0.00  0.00    -0.050 A 
ATOM      7  C   UNL     1       9.939   1.112  21.928  0.00  0.00    +0.007 A 
ATOM      8  C   UNL     1      10.738   3.036  23.336  0.00  0.00    +0.044 C 
ATOM      9  C   UNL     1       9.003  -1.213  25.425  0.00  0.00    +0.042 C 
ATOM     10  C   UNL     1       9.413  -0.176  21.796  0.00  0.00    +0.046 A 
ATOM     11  C   UNL     1       8.115  -2.400  25.074  0.00  0.00    +0.050 C 
ENDROOT
BRANCH   1  12
ATOM     12  C   UNL     1       7.924  -4.370  23.504  0.00  0.00    +0.096 C 
BRANCH  12  13
ATOM     13  P   UNL     1       6.680  -3.991  22.217  0.00  0.00    +0.007 P 
ATOM     14  O   UNL     1       5.627  -3.671  21.129  0.00  0.00    -0.340 OA
ATOM     15  O   UNL     1       7.184  -5.320  21.599  0.00  0.00    -0.804 OA
ATOM     16  H   UNL     1       7.473  -2.851  21.965  0.00  0.00    +0.083 HD
ENDBRANCH  12  13
ENDBRANCH   1  12
TORSDOF 2
ENDMDL
MODEL 3
REMARK VINA RESULT:      -5.5      2.320      2.931
REMARK  Name = 
REMARK  3 active torsions:
REMARK  status: ('A' for Active; 'I' for Inactive)
REMARK    1  A    between atoms: C_2  and  C_3
REMARK    2  A    between atoms: C_3  and  P_4
REMARK    3  A    between atoms: C_12  and  C_13
REMARK                            x       y       z     vdW  Elec       q    Type
REMARK                         _______ _______ _______ _____ _____    ______ ____
ROOT
ATOM      1  C   UNL     1       7.195  -1.625  22.860  0.00  0.00    +0.180 C 
ATOM      2  O   UNL     1       7.504  -0.810  24.008  0.00  0.00    -0.488 OA
ATOM      3  C   UNL     1       8.394   0.206  23.769  0.00  0.00    +0.124 A 
ATOM      4  C   UNL     1       9.263   0.220  22.673  0.00  0.00    -0.005 A 
ATOM      5  C   UNL     1      10.144   1.301  22.510  0.00  0.00    +0.010 A 
ATOM      6  C   UNL     1      10.182   2.345  23.444  0.00  0.00    -0.050 A 
ATOM      7  C   UNL     1       9.320   2.302  24.546  0.00  0.00    +0.007 A 
ATOM      8  C   UNL     1      11.130   3.496  23.274  0.00  0.00    +0.044 C 
ATOM      9  C   UNL     1       9.234  -0.892  21.664  0.00  0.00    +0.042 C 
ATOM     10  C   UNL     1       8.434   1.233  24.707  0.00  0.00    +0.046 A 
ATOM     11  C   UNL     1       8.491  -2.104  22.210  0.00  0.00    +0.050 C 
ENDROOT
BRANCH   1  12
ATOM     12  C   UNL     1       6.327  -2.807  23.306  0.00  0.00    +0.096 C 
BRANCH  12  13
ATOM     13  P   UNL     1       6.808  -4.277  22.329  0.00  0.00    +0.007 P 
ATOM     14  O   UNL     1       7.215  -5.521  21.502  0.00  0.00    -0.340 OA
ATOM     15  O   UNL     1       5.463  -4.009  21.606  0.00  0.00    -0.804 OA
ATOM     16  H   UNL     1       6.722  -4.966  23.559  0.00  0.00    +0.083 HD
ENDBRANCH  12  13
ENDBRANCH   1  12
TORSDOF 2
ENDMDL
MODEL 4
REMARK VINA RESULT:      -5.4      1.750      2.303
REMARK  Name = 
REMARK  3 active torsions:
REMARK  status: ('A' for Active; 'I' for Inactive)
REMARK    1  A    between atoms: C_2  and  C_3
REMARK    2  A    between atoms: C_3  and  P_4
REMARK    3  A    between atoms: C_12  and  C_13
REMARK                            x       y       z     vdW  Elec       q    Type
REMARK                         _______ _______ _______ _____ _____    ______ ____
ROOT
ATOM      1  C   UNL     1       7.703  -3.991  23.850  0.00  0.00    +0.180 C 
ATOM      2  O   UNL     1       7.021  -2.725  23.756  0.00  0.00    -0.488 OA
ATOM      3  C   UNL     1       7.812  -1.675  23.365  0.00  0.00    +0.124 A 
ATOM      4  C   UNL     1       9.207  -1.689  23.462  0.00  0.00    -0.005 A 
ATOM      5  C   UNL     1       9.936  -0.565  23.040  0.00  0.00    +0.010 A 
ATOM      6  C   UNL     1       9.282   0.574  22.553  0.00  0.00    -0.050 A 
ATOM      7  C   UNL     1       7.884   0.578  22.485  0.00  0.00    +0.007 A 
ATOM      8  C   UNL     1      10.061   1.778  22.110  0.00  0.00    +0.044 C 
ATOM      9  C   UNL     1       9.922  -2.903  23.981  0.00  0.00    +0.042 C 
ATOM     10  C   UNL     1       7.154  -0.541  22.894  0.00  0.00    +0.046 A 
ATOM     11  C   UNL     1       8.958  -3.835  24.705  0.00  0.00    +0.050 C 
ENDROOT
BRANCH   1  12
ATOM     12  C   UNL     1       6.747  -5.029  24.450  0.00  0.00    +0.096 C 
BRANCH  12  13
ATOM     13  P   UNL     1       7.225  -5.313  26.193  0.00  0.00    +0.007 P 
ATOM     14  O   UNL     1       7.629  -5.553  27.668  0.00  0.00    -0.340 OA
ATOM     15  O   UNL     1       6.018  -6.286  26.174  0.00  0.00    -0.804 OA
ATOM     16  H   UNL     1       6.915  -3.947  26.368  0.00  0.00    +0.083 HD
ENDBRANCH  12  13
ENDBRANCH   1  12
TORSDOF 2
ENDMDL
MODEL 5
REMARK VINA RESULT:      -5.3      1.957      2.721
REMARK  Name = 
REMARK  3 active torsions:
REMARK  status: ('A' for Active; 'I' for Inactive)
REMARK    1  A    between atoms: C_2  and  C_3
REMARK    2  A    between atoms: C_3  and  P_4
REMARK    3  A    between atoms: C_12  and  C_13
REMARK                            x       y       z     vdW  Elec       q    Type
REMARK                         _______ _______ _______ _____ _____    ______ ____
ROOT
ATOM      1  C   UNL     1       9.185  -1.587  23.278  0.00  0.00    +0.180 C 
ATOM      2  O   UNL     1       8.971  -0.528  24.232  0.00  0.00    -0.488 OA
ATOM      3  C   UNL     1       8.561   0.662  23.686  0.00  0.00    +0.124 A 
ATOM      4  C   UNL     1       8.739   0.988  22.338  0.00  0.00    -0.005 A 
ATOM      5  C   UNL     1       8.290   2.232  21.868  0.00  0.00    +0.010 A 
ATOM      6  C   UNL     1       7.694   3.156  22.735  0.00  0.00    -0.050 A 
ATOM      7  C   UNL     1       7.543   2.821  24.086  0.00  0.00    +0.007 A 
ATOM      8  C   UNL     1       7.221   4.489  22.234  0.00  0.00    +0.044 C 
ATOM      9  C   UNL     1       9.377   0.008  21.395  0.00  0.00    +0.042 C 
ATOM     10  C   UNL     1       7.980   1.579  24.557  0.00  0.00    +0.046 A 
ATOM     11  C   UNL     1      10.101  -1.092  22.161  0.00  0.00    +0.050 C 
ENDROOT
BRANCH   1  12
ATOM     12  C   UNL     1       9.794  -2.794  24.002  0.00  0.00    +0.096 C 
BRANCH  12  13
ATOM     13  P   UNL     1       8.449  -3.973  24.388  0.00  0.00    +0.007 P 
ATOM     14  O   UNL     1       7.310  -4.970  24.715  0.00  0.00    -0.340 OA
ATOM     15  O   UNL     1       9.626  -4.944  24.661  0.00  0.00    -0.804 OA
ATOM     16  H   UNL     1       8.085  -3.806  23.034  0.00  0.00    +0.083 HD
ENDBRANCH  12  13
ENDBRANCH   1  12
TORSDOF 2
ENDMDL
MODEL 6
REMARK VINA RESULT:      -5.3      3.207      6.333
REMARK  Name = 
REMARK  3 active torsions:
REMARK  status: ('A' for Active; 'I' for Inactive)
REMARK    1  A    between atoms: C_2  and  C_3
REMARK    2  A    between atoms: C_3  and  P_4
REMARK    3  A    between atoms: C_12  and  C_13
REMARK                            x       y       z     vdW  Elec       q    Type
REMARK                         _______ _______ _______ _____ _____    ______ ____
ROOT
ATOM      1  C   UNL     1       8.863  -1.796  22.992  0.00  0.00    +0.180 C 
ATOM      2  O   UNL     1       8.139  -2.626  22.062  0.00  0.00    -0.488 OA
ATOM      3  C   UNL     1       7.362  -3.595  22.643  0.00  0.00    +0.124 A 
ATOM      4  C   UNL     1       7.556  -4.050  23.951  0.00  0.00    -0.005 A 
ATOM      5  C   UNL     1       6.713  -5.050  24.462  0.00  0.00    +0.010 A 
ATOM      6  C   UNL     1       5.703  -5.613  23.671  0.00  0.00    -0.050 A 
ATOM      7  C   UNL     1       5.538  -5.159  22.357  0.00  0.00    +0.007 A 
ATOM      8  C   UNL     1       4.807  -6.687  24.215  0.00  0.00    +0.044 C 
ATOM      9  C   UNL     1       8.634  -3.457  24.812  0.00  0.00    +0.042 C 
ATOM     10  C   UNL     1       6.368  -4.157  21.846  0.00  0.00    +0.046 A 
ATOM     11  C   UNL     1       9.636  -2.678  23.970  0.00  0.00    +0.050 C 
ENDROOT
BRANCH   1  12
ATOM     12  C   UNL     1       9.807  -0.876  22.208  0.00  0.00    +0.096 C 
BRANCH  12  13
ATOM     13  P   UNL     1      10.207   0.569  23.257  0.00  0.00    +0.007 P 
ATOM     14  O   UNL     1      10.545   1.791  24.145  0.00  0.00    -0.340 OA
ATOM     15  O   UNL     1      10.139   1.334  21.910  0.00  0.00    -0.804 OA
ATOM     16  H   UNL     1      11.413  -0.116  23.520  0.00  0.00    +0.083 HD
ENDBRANCH  12  13
ENDBRANCH   1  12
TORSDOF 2
ENDMDL
MODEL 7
REMARK VINA RESULT:      -5.3      2.303      2.840
REMARK  Name = 
REMARK  3 active torsions:
REMARK  status: ('A' for Active; 'I' for Inactive)
REMARK    1  A    between atoms: C_2  and  C_3
REMARK    2  A    between atoms: C_3  and  P_4
REMARK    3  A    between atoms: C_12  and  C_13
REMARK                            x       y       z     vdW  Elec       q    Type
REMARK                         _______ _______ _______ _____ _____    ______ ____
ROOT
ATOM      1  C   UNL     1       7.850  -4.452  23.270  0.00  0.00    +0.180 C 
ATOM      2  O   UNL     1       7.987  -3.334  22.371  0.00  0.00    -0.488 OA
ATOM      3  C   UNL     1       8.700  -2.276  22.876  0.00  0.00    +0.124 A 
ATOM      4  C   UNL     1       8.911  -2.078  24.244  0.00  0.00    -0.005 A 
ATOM      5  C   UNL     1       9.652  -0.963  24.669  0.00  0.00    +0.010 A 
ATOM      6  C   UNL     1      10.154  -0.038  23.745  0.00  0.00    -0.050 A 
ATOM      7  C   UNL     1       9.913  -0.242  22.381  0.00  0.00    +0.007 A 
ATOM      8  C   UNL     1      10.938   1.157  24.201  0.00  0.00    +0.044 C 
ATOM      9  C   UNL     1       8.379  -3.060  25.247  0.00  0.00    +0.042 C 
ATOM     10  C   UNL     1       9.186  -1.355  21.951  0.00  0.00    +0.046 A 
ATOM     11  C   UNL     1       7.326  -3.964  24.618  0.00  0.00    +0.050 C 
ENDROOT
BRANCH   1  12
ATOM     12  C   UNL     1       6.902  -5.482  22.644  0.00  0.00    +0.096 C 
BRANCH  12  13
ATOM     13  P   UNL     1       5.283  -5.361  23.488  0.00  0.00    +0.007 P 
ATOM     14  O   UNL     1       3.913  -5.259  24.203  0.00  0.00    -0.340 OA
ATOM     15  O   UNL     1       4.815  -4.812  22.116  0.00  0.00    -0.804 OA
ATOM     16  H   UNL     1       5.935  -4.438  24.334  0.00  0.00    +0.083 HD
ENDBRANCH  12  13
ENDBRANCH   1  12
TORSDOF 2
ENDMDL
MODEL 8
REMARK VINA RESULT:      -5.3      3.401      7.101
REMARK  Name = 
REMARK  3 active torsions:
REMARK  status: ('A' for Active; 'I' for Inactive)
REMARK    1  A    between atoms: C_2  and  C_3
REMARK    2  A    between atoms: C_3  and  P_4
REMARK    3  A    between atoms: C_12  and  C_13
REMARK                            x       y       z     vdW  Elec       q    Type
REMARK                         _______ _______ _______ _____ _____    ______ ____
ROOT
ATOM      1  C   UNL     1       8.622  -3.734  23.752  0.00  0.00    +0.180 C 
ATOM      2  O   UNL     1       7.903  -3.944  24.983  0.00  0.00    -0.488 OA
ATOM      3  C   UNL     1       6.855  -4.824  24.893  0.00  0.00    +0.124 A 
ATOM      4  C   UNL     1       6.241  -5.162  23.682  0.00  0.00    -0.005 A 
ATOM      5  C   UNL     1       5.170  -6.069  23.686  0.00  0.00    +0.010 A 
ATOM      6  C   UNL     1       4.693  -6.615  24.885  0.00  0.00    -0.050 A 
ATOM      7  C   UNL     1       5.306  -6.247  26.089  0.00  0.00    +0.007 A 
ATOM      8  C   UNL     1       3.543  -7.579  24.889  0.00  0.00    +0.044 C 
ATOM      9  C   UNL     1       6.740  -4.586  22.388  0.00  0.00    +0.042 C 
ATOM     10  C   UNL     1       6.379  -5.352  26.090  0.00  0.00    +0.046 A 
ATOM     11  C   UNL     1       7.638  -3.380  22.639  0.00  0.00    +0.050 C 
ENDROOT
BRANCH   1  12
ATOM     12  C   UNL     1       9.650  -2.616  23.960  0.00  0.00    +0.096 C 
BRANCH  12  13
ATOM     13  P   UNL     1       9.442  -1.385  22.622  0.00  0.00    +0.007 P 
ATOM     14  O   UNL     1       9.266  -0.344  21.489  0.00  0.00    -0.340 OA
ATOM     15  O   UNL     1      10.876  -1.833  22.236  0.00  0.00    -0.804 OA
ATOM     16  H   UNL     1       9.349  -0.446  23.672  0.00  0.00    +0.083 HD
ENDBRANCH  12  13
ENDBRANCH   1  12
TORSDOF 2
ENDMDL
MODEL 9
REMARK VINA RESULT:      -5.2      3.198      6.005
REMARK  Name = 
REMARK  3 active torsions:
REMARK  status: ('A' for Active; 'I' for Inactive)
REMARK    1  A    between atoms: C_2  and  C_3
REMARK    2  A    between atoms: C_3  and  P_4
REMARK    3  A    between atoms: C_12  and  C_13
REMARK                            x       y       z     vdW  Elec       q    Type
REMARK                         _______ _______ _______ _____ _____    ______ ____
ROOT
ATOM      1  C   UNL     1       8.594  -0.753  24.609  0.00  0.00    +0.180 C 
ATOM      2  O   UNL     1       7.558  -0.907  23.619  0.00  0.00    -0.488 OA
ATOM      3  C   UNL     1       7.277  -2.205  23.279  0.00  0.00    +0.124 A 
ATOM      4  C   UNL     1       8.162  -3.264  23.507  0.00  0.00    -0.005 A 
ATOM      5  C   UNL     1       7.791  -4.563  23.121  0.00  0.00    +0.010 A 
ATOM      6  C   UNL     1       6.565  -4.803  22.489  0.00  0.00    -0.050 A 
ATOM      7  C   UNL     1       5.702  -3.726  22.250  0.00  0.00    +0.007 A 
ATOM      8  C   UNL     1       6.172  -6.189  22.069  0.00  0.00    +0.044 C 
ATOM      9  C   UNL     1       9.481  -3.024  24.183  0.00  0.00    +0.042 C 
ATOM     10  C   UNL     1       6.061  -2.434  22.641  0.00  0.00    +0.046 A 
ATOM     11  C   UNL     1       9.830  -1.541  24.183  0.00  0.00    +0.050 C 
ENDROOT
BRANCH   1  12
ATOM     12  C   UNL     1       8.913   0.739  24.769  0.00  0.00    +0.096 C 
BRANCH  12  13
ATOM     13  P   UNL     1       9.630   1.346  23.199  0.00  0.00    +0.007 P 
ATOM     14  O   UNL     1      10.237   1.860  21.871  0.00  0.00    -0.340 OA
ATOM     15  O   UNL     1      10.784   1.817  24.122  0.00  0.00    -0.804 OA
ATOM     16  H   UNL     1       8.495   2.184  23.151  0.00  0.00    +0.083 HD
ENDBRANCH  12  13
ENDBRANCH   1  12
TORSDOF 2
ENDMDL
