MODEL 1
REMARK VINA RESULT:      -5.8      0.000      0.000
REMARK  Name = 
REMARK  3 active torsions:
REMARK  status: ('A' for Active; 'I' for Inactive)
REMARK    1  A    between atoms: C_1  and  N_2
REMARK    2  A    between atoms: C_5  and  O_6
REMARK    3  A    between atoms: C_7  and  O_8
REMARK                            x       y       z     vdW  Elec       q    Type
REMARK                         _______ _______ _______ _____ _____    ______ ____
ROOT
ATOM      1  C   UNL     1       4.941  -6.512  26.441  0.00  0.00    +0.152 C 
ATOM      2  N   UNL     1       6.144  -5.900  25.902  0.00  0.00    -0.308 N 
ATOM      3  C   UNL     1       6.233  -5.607  24.502  0.00  0.00    +0.055 A 
ATOM      4  C   UNL     1       7.412  -5.030  23.989  0.00  0.00    +0.044 A 
ATOM      5  C   UNL     1       7.517  -4.767  22.614  0.00  0.00    +0.014 A 
ATOM      6  C   UNL     1       6.466  -5.068  21.749  0.00  0.00    +0.001 A 
ATOM      7  C   UNL     1       5.296  -5.625  22.252  0.00  0.00    +0.002 A 
ATOM      8  C   UNL     1       8.513  -4.721  24.903  0.00  0.00    +0.173 A 
ATOM      9  C   UNL     1       8.420  -5.005  26.205  0.00  0.00    +0.225 A 
ATOM     10  C   UNL     1       5.177  -5.890  23.619  0.00  0.00    +0.026 A 
ATOM     11  C   UNL     1       7.192  -5.634  26.769  0.00  0.00    +0.297 A 
ATOM     12  O   UNL     1       7.197  -5.872  27.979  0.00  0.00    -0.264 OA
ENDROOT
BRANCH   8  13
ATOM     13  O   UNL     1       9.644  -4.131  24.372  0.00  0.00    -0.503 OA
ATOM     14  H   UNL     1       9.489  -4.096  23.407  0.00  0.00    +0.292 HD
ENDBRANCH   8  13
BRANCH   9  15
ATOM     15  O   UNL     1       9.471  -4.725  27.070  0.00  0.00    -0.500 OA
ATOM     16  H   UNL     1       9.035  -4.301  27.842  0.00  0.00    +0.292 HD
ENDBRANCH   9  15
TORSDOF 2
ENDMDL
MODEL 2
REMARK VINA RESULT:      -5.7      1.100      3.230
REMARK  Name = 
REMARK  3 active torsions:
REMARK  status: ('A' for Active; 'I' for Inactive)
REMARK    1  A    between atoms: C_1  and  N_2
REMARK    2  A    between atoms: C_5  and  O_6
REMARK    3  A    between atoms: C_7  and  O_8
REMARK                            x       y       z     vdW  Elec       q    Type
REMARK                         _______ _______ _______ _____ _____    ______ ____
ROOT
ATOM      1  C   UNL     1       7.549  -3.966  22.566  0.00  0.00    +0.152 C 
ATOM      2  N   UNL     1       7.549  -4.508  23.915  0.00  0.00    -0.308 N 
ATOM      3  C   UNL     1       6.370  -5.132  24.437  0.00  0.00    +0.055 A 
ATOM      4  C   UNL     1       6.378  -5.637  25.752  0.00  0.00    +0.044 A 
ATOM      5  C   UNL     1       5.216  -6.224  26.280  0.00  0.00    +0.014 A 
ATOM      6  C   UNL     1       4.055  -6.316  25.516  0.00  0.00    +0.001 A 
ATOM      7  C   UNL     1       4.046  -5.831  24.213  0.00  0.00    +0.002 A 
ATOM      8  C   UNL     1       7.600  -5.532  26.551  0.00  0.00    +0.173 A 
ATOM      9  C   UNL     1       8.692  -4.943  26.055  0.00  0.00    +0.225 A 
ATOM     10  C   UNL     1       5.195  -5.247  23.674  0.00  0.00    +0.026 A 
ATOM     11  C   UNL     1       8.703  -4.382  24.673  0.00  0.00    +0.297 A 
ATOM     12  O   UNL     1       9.748  -3.845  24.301  0.00  0.00    -0.264 OA
ENDROOT
BRANCH   8  13
ATOM     13  O   UNL     1       7.584  -6.062  27.827  0.00  0.00    -0.503 OA
ATOM     14  H   UNL     1       8.438  -6.529  27.924  0.00  0.00    +0.292 HD
ENDBRANCH   8  13
BRANCH   9  15
ATOM     15  O   UNL     1       9.848  -4.831  26.818  0.00  0.00    -0.500 OA
ATOM     16  H   UNL     1      10.572  -4.995  26.174  0.00  0.00    +0.292 HD
ENDBRANCH   9  15
TORSDOF 2
ENDMDL
MODEL 3
REMARK VINA RESULT:      -5.4      5.120      6.084
REMARK  Name = 
REMARK  3 active torsions:
REMARK  status: ('A' for Active; 'I' for Inactive)
REMARK    1  A    between atoms: C_1  and  N_2
REMARK    2  A    between atoms: C_5  and  O_6
REMARK    3  A    between atoms: C_7  and  O_8
REMARK                            x       y       z     vdW  Elec       q    Type
REMARK                         _______ _______ _______ _____ _____    ______ ____
ROOT
ATOM      1  C   UNL     1       7.901   0.140  26.599  0.00  0.00    +0.152 C 
ATOM      2  N   UNL     1       8.607  -0.359  25.430  0.00  0.00    -0.308 N 
ATOM      3  C   UNL     1       8.991   0.543  24.386  0.00  0.00    +0.055 A 
ATOM      4  C   UNL     1       9.659   0.043  23.250  0.00  0.00    +0.044 A 
ATOM      5  C   UNL     1      10.012   0.916  22.209  0.00  0.00    +0.014 A 
ATOM      6  C   UNL     1       9.712   2.275  22.287  0.00  0.00    +0.001 A 
ATOM      7  C   UNL     1       9.065   2.775  23.411  0.00  0.00    +0.002 A 
ATOM      8  C   UNL     1       9.966  -1.387  23.173  0.00  0.00    +0.173 A 
ATOM      9  C   UNL     1       9.598  -2.219  24.151  0.00  0.00    +0.225 A 
ATOM     10  C   UNL     1       8.710   1.917  24.455  0.00  0.00    +0.026 A 
ATOM     11  C   UNL     1       8.872  -1.718  25.354  0.00  0.00    +0.297 A 
ATOM     12  O   UNL     1       8.560  -2.556  26.202  0.00  0.00    -0.264 OA
ENDROOT
BRANCH   8  13
ATOM     13  O   UNL     1      10.646  -1.841  22.059  0.00  0.00    -0.503 OA
ATOM     14  H   UNL     1      10.006  -1.778  21.322  0.00  0.00    +0.292 HD
ENDBRANCH   8  13
BRANCH   9  15
ATOM     15  O   UNL     1       9.877  -3.577  24.072  0.00  0.00    -0.500 OA
ATOM     16  H   UNL     1      10.857  -3.620  24.113  0.00  0.00    +0.292 HD
ENDBRANCH   9  15
TORSDOF 2
ENDMDL
MODEL 4
REMARK VINA RESULT:      -5.4      1.717      2.921
REMARK  Name = 
REMARK  3 active torsions:
REMARK  status: ('A' for Active; 'I' for Inactive)
REMARK    1  A    between atoms: C_1  and  N_2
REMARK    2  A    between atoms: C_5  and  O_6
REMARK    3  A    between atoms: C_7  and  O_8
REMARK                            x       y       z     vdW  Elec       q    Type
REMARK                         _______ _______ _______ _____ _____    ______ ____
ROOT
ATOM      1  C   UNL     1       5.171  -4.704  23.462  0.00  0.00    +0.152 C 
ATOM      2  N   UNL     1       6.318  -4.670  24.355  0.00  0.00    -0.308 N 
ATOM      3  C   UNL     1       7.454  -3.858  24.033  0.00  0.00    +0.055 A 
ATOM      4  C   UNL     1       8.567  -3.849  24.897  0.00  0.00    +0.044 A 
ATOM      5  C   UNL     1       9.694  -3.078  24.573  0.00  0.00    +0.014 A 
ATOM      6  C   UNL     1       9.725  -2.318  23.405  0.00  0.00    +0.001 A 
ATOM      7  C   UNL     1       8.625  -2.313  22.556  0.00  0.00    +0.002 A 
ATOM      8  C   UNL     1       8.528  -4.654  26.120  0.00  0.00    +0.173 A 
ATOM      9  C   UNL     1       7.466  -5.412  26.406  0.00  0.00    +0.225 A 
ATOM     10  C   UNL     1       7.495  -3.074  22.868  0.00  0.00    +0.026 A 
ATOM     11  C   UNL     1       6.285  -5.455  25.497  0.00  0.00    +0.297 A 
ATOM     12  O   UNL     1       5.354  -6.190  25.833  0.00  0.00    -0.264 OA
ENDROOT
BRANCH   8  13
ATOM     13  O   UNL     1       9.624  -4.602  26.960  0.00  0.00    -0.503 OA
ATOM     14  H   UNL     1       9.321  -4.111  27.750  0.00  0.00    +0.292 HD
ENDBRANCH   8  13
BRANCH   9  15
ATOM     15  O   UNL     1       7.436  -6.187  27.558  0.00  0.00    -0.500 OA
ATOM     16  H   UNL     1       6.489  -6.432  27.653  0.00  0.00    +0.292 HD
ENDBRANCH   9  15
TORSDOF 2
ENDMDL
MODEL 5
REMARK VINA RESULT:      -5.3      3.001      3.765
REMARK  Name = 
REMARK  3 active torsions:
REMARK  status: ('A' for Active; 'I' for Inactive)
REMARK    1  A    between atoms: C_1  and  N_2
REMARK    2  A    between atoms: C_5  and  O_6
REMARK    3  A    between atoms: C_7  and  O_8
REMARK                            x       y       z     vdW  Elec       q    Type
REMARK                         _______ _______ _______ _____ _____    ______ ____
ROOT
ATOM      1  C   UNL     1       6.277  -1.539  26.670  0.00  0.00    +0.152 C 
ATOM      2  N   UNL     1       7.287  -2.471  26.196  0.00  0.00    -0.308 N 
ATOM      3  C   UNL     1       8.222  -2.064  25.190  0.00  0.00    +0.055 A 
ATOM      4  C   UNL     1       9.185  -2.984  24.726  0.00  0.00    +0.044 A 
ATOM      5  C   UNL     1      10.085  -2.601  23.720  0.00  0.00    +0.014 A 
ATOM      6  C   UNL     1      10.041  -1.320  23.174  0.00  0.00    +0.001 A 
ATOM      7  C   UNL     1       9.103  -0.405  23.638  0.00  0.00    +0.002 A 
ATOM      8  C   UNL     1       9.221  -4.330  25.300  0.00  0.00    +0.173 A 
ATOM      9  C   UNL     1       8.340  -4.700  26.234  0.00  0.00    +0.225 A 
ATOM     10  C   UNL     1       8.201  -0.772  24.641  0.00  0.00    +0.026 A 
ATOM     11  C   UNL     1       7.299  -3.752  26.726  0.00  0.00    +0.297 A 
ATOM     12  O   UNL     1       6.519  -4.180  27.580  0.00  0.00    -0.264 OA
ENDROOT
BRANCH   8  13
ATOM     13  O   UNL     1      10.194  -5.199  24.843  0.00  0.00    -0.503 OA
ATOM     14  H   UNL     1      10.048  -6.032  25.336  0.00  0.00    +0.292 HD
ENDBRANCH   8  13
BRANCH   9  15
ATOM     15  O   UNL     1       8.365  -5.981  26.768  0.00  0.00    -0.500 OA
ATOM     16  H   UNL     1       8.215  -5.840  27.729  0.00  0.00    +0.292 HD
ENDBRANCH   9  15
TORSDOF 2
ENDMDL
MODEL 6
REMARK VINA RESULT:      -5.3      6.306      7.314
REMARK  Name = 
REMARK  3 active torsions:
REMARK  status: ('A' for Active; 'I' for Inactive)
REMARK    1  A    between atoms: C_1  and  N_2
REMARK    2  A    between atoms: C_5  and  O_6
REMARK    3  A    between atoms: C_7  and  O_8
REMARK                            x       y       z     vdW  Elec       q    Type
REMARK                         _______ _______ _______ _____ _____    ______ ____
ROOT
ATOM      1  C   UNL     1       7.789   0.740  26.378  0.00  0.00    +0.152 C 
ATOM      2  N   UNL     1       8.434   1.149  25.140  0.00  0.00    -0.308 N 
ATOM      3  C   UNL     1       9.017   0.165  24.278  0.00  0.00    +0.055 A 
ATOM      4  C   UNL     1       9.655   0.576  23.090  0.00  0.00    +0.044 A 
ATOM      5  C   UNL     1      10.254  -0.380  22.255  0.00  0.00    +0.014 A 
ATOM      6  C   UNL     1      10.223  -1.733  22.584  0.00  0.00    +0.001 A 
ATOM      7  C   UNL     1       9.584  -2.145  23.748  0.00  0.00    +0.002 A 
ATOM      8  C   UNL     1       9.687   2.001  22.753  0.00  0.00    +0.173 A 
ATOM      9  C   UNL     1       9.145   2.909  23.568  0.00  0.00    +0.225 A 
ATOM     10  C   UNL     1       8.981  -1.204  24.588  0.00  0.00    +0.026 A 
ATOM     11  C   UNL     1       8.482   2.501  24.841  0.00  0.00    +0.297 A 
ATOM     12  O   UNL     1       8.019   3.406  25.539  0.00  0.00    -0.264 OA
ENDROOT
BRANCH   8  13
ATOM     13  O   UNL     1      10.296   2.369  21.568  0.00  0.00    -0.503 OA
ATOM     14  H   UNL     1      10.810   1.585  21.288  0.00  0.00    +0.292 HD
ENDBRANCH   8  13
BRANCH   9  15
ATOM     15  O   UNL     1       9.188   4.262  23.256  0.00  0.00    -0.500 OA
ATOM     16  H   UNL     1      10.018   4.358  22.739  0.00  0.00    +0.292 HD
ENDBRANCH   9  15
TORSDOF 2
ENDMDL
MODEL 7
REMARK VINA RESULT:      -5.2      2.491      3.516
REMARK  Name = 
REMARK  3 active torsions:
REMARK  status: ('A' for Active; 'I' for Inactive)
REMARK    1  A    between atoms: C_1  and  N_2
REMARK    2  A    between atoms: C_5  and  O_6
REMARK    3  A    between atoms: C_7  and  O_8
REMARK                            x       y       z     vdW  Elec       q    Type
REMARK                         _______ _______ _______ _____ _____    ______ ____
ROOT
ATOM      1  C   UNL     1       7.126  -4.753  26.963  0.00  0.00    +0.152 C 
ATOM      2  N   UNL     1       6.565  -5.085  25.664  0.00  0.00    -0.308 N 
ATOM      3  C   UNL     1       6.921  -4.312  24.511  0.00  0.00    +0.055 A 
ATOM      4  C   UNL     1       6.356  -4.633  23.261  0.00  0.00    +0.044 A 
ATOM      5  C   UNL     1       6.677  -3.861  22.133  0.00  0.00    +0.014 A 
ATOM      6  C   UNL     1       7.552  -2.781  22.235  0.00  0.00    +0.001 A 
ATOM      7  C   UNL     1       8.122  -2.469  23.463  0.00  0.00    +0.002 A 
ATOM      8  C   UNL     1       5.434  -5.766  23.163  0.00  0.00    +0.173 A 
ATOM      9  C   UNL     1       5.106  -6.476  24.246  0.00  0.00    +0.225 A 
ATOM     10  C   UNL     1       7.813  -3.230  24.594  0.00  0.00    +0.026 A 
ATOM     11  C   UNL     1       5.674  -6.143  25.584  0.00  0.00    +0.297 A 
ATOM     12  O   UNL     1       5.307  -6.843  26.531  0.00  0.00    -0.264 OA
ENDROOT
BRANCH   8  13
ATOM     13  O   UNL     1       4.918  -6.071  21.917  0.00  0.00    -0.503 OA
ATOM     14  H   UNL     1       4.369  -6.869  22.054  0.00  0.00    +0.292 HD
ENDBRANCH   8  13
BRANCH   9  15
ATOM     15  O   UNL     1       4.220  -7.542  24.156  0.00  0.00    -0.500 OA
ATOM     16  H   UNL     1       4.191  -7.744  23.194  0.00  0.00    +0.292 HD
ENDBRANCH   9  15
TORSDOF 2
ENDMDL
MODEL 8
REMARK VINA RESULT:      -5.1      1.137      3.671
REMARK  Name = 
REMARK  3 active torsions:
REMARK  status: ('A' for Active; 'I' for Inactive)
REMARK    1  A    between atoms: C_1  and  N_2
REMARK    2  A    between atoms: C_5  and  O_6
REMARK    3  A    between atoms: C_7  and  O_8
REMARK                            x       y       z     vdW  Elec       q    Type
REMARK                         _______ _______ _______ _____ _____    ______ ____
ROOT
ATOM      1  C   UNL     1       5.255  -5.475  23.187  0.00  0.00    +0.152 C 
ATOM      2  N   UNL     1       6.295  -5.297  24.187  0.00  0.00    -0.308 N 
ATOM      3  C   UNL     1       6.051  -5.672  25.548  0.00  0.00    +0.055 A 
ATOM      4  C   UNL     1       7.061  -5.478  26.512  0.00  0.00    +0.044 A 
ATOM      5  C   UNL     1       6.818  -5.815  27.853  0.00  0.00    +0.014 A 
ATOM      6  C   UNL     1       5.590  -6.344  28.243  0.00  0.00    +0.001 A 
ATOM      7  C   UNL     1       4.595  -6.550  27.294  0.00  0.00    +0.002 A 
ATOM      8  C   UNL     1       8.348  -4.917  26.095  0.00  0.00    +0.173 A 
ATOM      9  C   UNL     1       8.561  -4.566  24.824  0.00  0.00    +0.225 A 
ATOM     10  C   UNL     1       4.824  -6.221  25.955  0.00  0.00    +0.026 A 
ATOM     11  C   UNL     1       7.501  -4.743  23.790  0.00  0.00    +0.297 A 
ATOM     12  O   UNL     1       7.779  -4.381  22.644  0.00  0.00    -0.264 OA
ENDROOT
BRANCH   8  13
ATOM     13  O   UNL     1       9.327  -4.764  27.059  0.00  0.00    -0.503 OA
ATOM     14  H   UNL     1      10.136  -5.149  26.667  0.00  0.00    +0.292 HD
ENDBRANCH   8  13
BRANCH   9  15
ATOM     15  O   UNL     1       9.777  -4.021  24.431  0.00  0.00    -0.500 OA
ATOM     16  H   UNL     1       9.858  -4.281  23.487  0.00  0.00    +0.292 HD
ENDBRANCH   9  15
TORSDOF 2
ENDMDL
MODEL 9
REMARK VINA RESULT:      -5.0      2.245      2.600
REMARK  Name = 
REMARK  3 active torsions:
REMARK  status: ('A' for Active; 'I' for Inactive)
REMARK    1  A    between atoms: C_1  and  N_2
REMARK    2  A    between atoms: C_5  and  O_6
REMARK    3  A    between atoms: C_7  and  O_8
REMARK                            x       y       z     vdW  Elec       q    Type
REMARK                         _______ _______ _______ _____ _____    ______ ____
ROOT
ATOM      1  C   UNL     1       6.629  -1.456  24.787  0.00  0.00    +0.152 C 
ATOM      2  N   UNL     1       7.354  -2.715  24.721  0.00  0.00    -0.308 N 
ATOM      3  C   UNL     1       7.141  -3.608  23.620  0.00  0.00    +0.055 A 
ATOM      4  C   UNL     1       7.837  -4.833  23.578  0.00  0.00    +0.044 A 
ATOM      5  C   UNL     1       7.611  -5.725  22.518  0.00  0.00    +0.014 A 
ATOM      6  C   UNL     1       6.709  -5.412  21.503  0.00  0.00    +0.001 A 
ATOM      7  C   UNL     1       6.031  -4.199  21.534  0.00  0.00    +0.002 A 
ATOM      8  C   UNL     1       8.779  -5.157  24.651  0.00  0.00    +0.173 A 
ATOM      9  C   UNL     1       8.965  -4.319  25.674  0.00  0.00    +0.225 A 
ATOM     10  C   UNL     1       6.247  -3.300  22.582  0.00  0.00    +0.026 A 
ATOM     11  C   UNL     1       8.226  -3.026  25.753  0.00  0.00    +0.297 A 
ATOM     12  O   UNL     1       8.449  -2.320  26.738  0.00  0.00    -0.264 OA
ENDROOT
BRANCH   8  13
ATOM     13  O   UNL     1       9.465  -6.354  24.565  0.00  0.00    -0.503 OA
ATOM     14  H   UNL     1      10.378  -6.111  24.308  0.00  0.00    +0.292 HD
ENDBRANCH   8  13
BRANCH   9  15
ATOM     15  O   UNL     1       9.848  -4.633  26.699  0.00  0.00    -0.500 OA
ATOM     16  H   UNL     1      10.153  -3.757  27.024  0.00  0.00    +0.292 HD
ENDBRANCH   9  15
TORSDOF 2
ENDMDL
