MODEL 1
REMARK VINA RESULT:      -5.3      0.000      0.000
REMARK  Name = 
REMARK  4 active torsions:
REMARK  status: ('A' for Active; 'I' for Inactive)
REMARK    1  A    between atoms: C_2  and  C_5
REMARK    2  A    between atoms: C_5  and  C_7
REMARK    3  A    between atoms: C_7  and  C_8
REMARK    4  A    between atoms: C_8  and  C_10
REMARK                            x       y       z     vdW  Elec       q    Type
REMARK                         _______ _______ _______ _____ _____    ______ ____
ROOT
ATOM      1  C   UNL     1       9.183  -2.136  24.298  0.00  0.00    +0.164 C 
ENDROOT
BRANCH   1   2
ATOM      2  C   UNL     1       9.098  -3.636  24.254  0.00  0.00    +0.243 C 
ATOM      3  O   UNL     1       9.965  -4.354  24.756  0.00  0.00    -0.288 OA
BRANCH   2   5
ATOM      4  F   UNL     1       7.633  -3.557  22.362  0.00  0.00    -0.163 F 
ATOM      5  C   UNL     1       7.871  -4.186  23.547  0.00  0.00    +0.451 C 
ATOM      6  F   UNL     1       7.991  -5.507  23.254  0.00  0.00    -0.163 F 
ATOM      7  F   UNL     1       6.736  -4.045  24.282  0.00  0.00    -0.163 F 
ENDBRANCH   2   5
ENDBRANCH   1   2
BRANCH   1   8
ATOM      8  C   UNL     1      10.040  -1.520  23.223  0.00  0.00    +0.177 C 
ATOM      9  O   UNL     1      10.696  -2.264  22.490  0.00  0.00    -0.291 OA
BRANCH   8  10
ATOM     10  C   UNL     1      10.144  -0.064  23.135  0.00  0.00    +0.055 A 
ATOM     11  S   UNL     1      10.691   0.906  24.436  0.00  0.00    -0.094 S 
ATOM     12  C   UNL     1      10.493   2.348  23.541  0.00  0.00    +0.046 A 
ATOM     13  C   UNL     1      10.040   2.104  22.266  0.00  0.00    +0.008 A 
ATOM     14  C   UNL     1       9.826   0.714  22.036  0.00  0.00    +0.019 A 
ENDBRANCH   8  10
ENDBRANCH   1   8
TORSDOF 4
ENDMDL
MODEL 2
REMARK VINA RESULT:      -5.2      2.563      3.318
REMARK  Name = 
REMARK  4 active torsions:
REMARK  status: ('A' for Active; 'I' for Inactive)
REMARK    1  A    between atoms: C_2  and  C_5
REMARK    2  A    between atoms: C_5  and  C_7
REMARK    3  A    between atoms: C_7  and  C_8
REMARK    4  A    between atoms: C_8  and  C_10
REMARK                            x       y       z     vdW  Elec       q    Type
REMARK                         _______ _______ _______ _____ _____    ______ ____
ROOT
ATOM      1  C   UNL     1       6.679  -3.760  23.284  0.00  0.00    +0.164 C 
ENDROOT
BRANCH   1   2
ATOM      2  C   UNL     1       6.164  -4.157  21.929  0.00  0.00    +0.243 C 
ATOM      3  O   UNL     1       5.559  -3.365  21.203  0.00  0.00    -0.288 OA
BRANCH   2   5
ATOM      4  F   UNL     1       7.779  -5.877  21.520  0.00  0.00    -0.163 F 
ATOM      5  C   UNL     1       6.445  -5.597  21.535  0.00  0.00    +0.451 C 
ATOM      6  F   UNL     1       5.884  -6.487  22.395  0.00  0.00    -0.163 F 
ATOM      7  F   UNL     1       5.982  -5.899  20.294  0.00  0.00    -0.163 F 
ENDBRANCH   2   5
ENDBRANCH   1   2
BRANCH   1   8
ATOM      8  C   UNL     1       8.099  -3.256  23.298  0.00  0.00    +0.177 C 
ATOM      9  O   UNL     1       8.969  -3.954  23.823  0.00  0.00    -0.291 OA
BRANCH   8  10
ATOM     10  C   UNL     1       8.392  -1.924  22.773  0.00  0.00    +0.055 A 
ATOM     11  S   UNL     1       7.446  -0.548  23.155  0.00  0.00    -0.094 S 
ATOM     12  C   UNL     1       8.409   0.476  22.185  0.00  0.00    +0.046 A 
ATOM     13  C   UNL     1       9.449  -0.202  21.595  0.00  0.00    +0.008 A 
ATOM     14  C   UNL     1       9.432  -1.589  21.923  0.00  0.00    +0.019 A 
ENDBRANCH   8  10
ENDBRANCH   1   8
TORSDOF 4
ENDMDL
MODEL 3
REMARK VINA RESULT:      -5.2      1.916      2.954
REMARK  Name = 
REMARK  4 active torsions:
REMARK  status: ('A' for Active; 'I' for Inactive)
REMARK    1  A    between atoms: C_2  and  C_5
REMARK    2  A    between atoms: C_5  and  C_7
REMARK    3  A    between atoms: C_7  and  C_8
REMARK    4  A    between atoms: C_8  and  C_10
REMARK                            x       y       z     vdW  Elec       q    Type
REMARK                         _______ _______ _______ _____ _____    ______ ____
ROOT
ATOM      1  C   UNL     1       7.641  -3.978  24.096  0.00  0.00    +0.164 C 
ENDROOT
BRANCH   1   2
ATOM      2  C   UNL     1       7.210  -4.187  22.672  0.00  0.00    +0.243 C 
ATOM      3  O   UNL     1       6.955  -3.243  21.921  0.00  0.00    -0.288 OA
BRANCH   2   5
ATOM      4  F   UNL     1       8.217  -6.358  22.591  0.00  0.00    -0.163 F 
ATOM      5  C   UNL     1       7.113  -5.640  22.240  0.00  0.00    +0.451 C 
ATOM      6  F   UNL     1       6.055  -6.279  22.806  0.00  0.00    -0.163 F 
ATOM      7  F   UNL     1       6.986  -5.779  20.894  0.00  0.00    -0.163 F 
ENDBRANCH   2   5
ENDBRANCH   1   2
BRANCH   1   8
ATOM      8  C   UNL     1       9.085  -3.587  24.268  0.00  0.00    +0.177 C 
ATOM      9  O   UNL     1       9.898  -4.455  24.594  0.00  0.00    -0.291 OA
BRANCH   8  10
ATOM     10  C   UNL     1       9.469  -2.182  24.135  0.00  0.00    +0.055 A 
ATOM     11  S   UNL     1      10.200  -1.552  22.721  0.00  0.00    -0.094 S 
ATOM     12  C   UNL     1      10.310   0.018  23.388  0.00  0.00    +0.046 A 
ATOM     13  C   UNL     1       9.781   0.076  24.656  0.00  0.00    +0.008 A 
ATOM     14  C   UNL     1       9.308  -1.195  25.092  0.00  0.00    +0.019 A 
ENDBRANCH   8  10
ENDBRANCH   1   8
TORSDOF 4
ENDMDL
MODEL 4
REMARK VINA RESULT:      -5.2      1.422      1.831
REMARK  Name = 
REMARK  4 active torsions:
REMARK  status: ('A' for Active; 'I' for Inactive)
REMARK    1  A    between atoms: C_2  and  C_5
REMARK    2  A    between atoms: C_5  and  C_7
REMARK    3  A    between atoms: C_7  and  C_8
REMARK    4  A    between atoms: C_8  and  C_10
REMARK                            x       y       z     vdW  Elec       q    Type
REMARK                         _______ _______ _______ _____ _____    ______ ____
ROOT
ATOM      1  C   UNL     1       8.175  -2.737  23.940  0.00  0.00    +0.164 C 
ENDROOT
BRANCH   1   2
ATOM      2  C   UNL     1       7.568  -3.671  22.931  0.00  0.00    +0.243 C 
ATOM      3  O   UNL     1       7.108  -3.266  21.861  0.00  0.00    -0.288 OA
BRANCH   2   5
ATOM      4  F   UNL     1       6.455  -5.473  24.049  0.00  0.00    -0.163 F 
ATOM      5  C   UNL     1       7.566  -5.135  23.335  0.00  0.00    +0.451 C 
ATOM      6  F   UNL     1       7.590  -5.969  22.261  0.00  0.00    -0.163 F 
ATOM      7  F   UNL     1       8.629  -5.464  24.116  0.00  0.00    -0.163 F 
ENDBRANCH   2   5
ENDBRANCH   1   2
BRANCH   1   8
ATOM      8  C   UNL     1       9.557  -2.247  23.596  0.00  0.00    +0.177 C 
ATOM      9  O   UNL     1      10.510  -3.017  23.735  0.00  0.00    -0.291 OA
BRANCH   8  10
ATOM     10  C   UNL     1       9.745  -0.853  23.197  0.00  0.00    +0.055 A 
ATOM     11  S   UNL     1      10.251   0.364  24.290  0.00  0.00    -0.094 S 
ATOM     12  C   UNL     1      10.193   1.574  23.085  0.00  0.00    +0.046 A 
ATOM     13  C   UNL     1       9.819   1.066  21.863  0.00  0.00    +0.008 A 
ATOM     14  C   UNL     1       9.547  -0.331  21.930  0.00  0.00    +0.019 A 
ENDBRANCH   8  10
ENDBRANCH   1   8
TORSDOF 4
ENDMDL
MODEL 5
REMARK VINA RESULT:      -5.1      3.293      5.329
REMARK  Name = 
REMARK  4 active torsions:
REMARK  status: ('A' for Active; 'I' for Inactive)
REMARK    1  A    between atoms: C_2  and  C_5
REMARK    2  A    between atoms: C_5  and  C_7
REMARK    3  A    between atoms: C_7  and  C_8
REMARK    4  A    between atoms: C_8  and  C_10
REMARK                            x       y       z     vdW  Elec       q    Type
REMARK                         _______ _______ _______ _____ _____    ______ ____
ROOT
ATOM      1  C   UNL     1       9.407  -0.456  23.712  0.00  0.00    +0.164 C 
ENDROOT
BRANCH   1   2
ATOM      2  C   UNL     1       8.409   0.227  22.819  0.00  0.00    +0.243 C 
ATOM      3  O   UNL     1       7.205   0.249  23.084  0.00  0.00    -0.288 OA
BRANCH   2   5
ATOM      4  F   UNL     1       9.177  -0.013  20.564  0.00  0.00    -0.163 F 
ATOM      5  C   UNL     1       8.999   0.878  21.581  0.00  0.00    +0.451 C 
ATOM      6  F   UNL     1       8.204   1.861  21.083  0.00  0.00    -0.163 F 
ATOM      7  F   UNL     1      10.218   1.433  21.811  0.00  0.00    -0.163 F 
ENDBRANCH   2   5
ENDBRANCH   1   2
BRANCH   1   8
ATOM      8  C   UNL     1       9.825  -1.830  23.257  0.00  0.00    +0.177 C 
ATOM      9  O   UNL     1      10.766  -1.932  22.468  0.00  0.00    -0.291 OA
BRANCH   8  10
ATOM     10  C   UNL     1       9.051  -2.993  23.688  0.00  0.00    +0.055 A 
ATOM     11  S   UNL     1       7.622  -3.502  22.893  0.00  0.00    -0.094 S 
ATOM     12  C   UNL     1       7.393  -4.803  23.976  0.00  0.00    +0.046 A 
ATOM     13  C   UNL     1       8.395  -4.872  24.916  0.00  0.00    +0.008 A 
ATOM     14  C   UNL     1       9.343  -3.821  24.758  0.00  0.00    +0.019 A 
ENDBRANCH   8  10
ENDBRANCH   1   8
TORSDOF 4
ENDMDL
MODEL 6
REMARK VINA RESULT:      -5.1      3.157      5.099
REMARK  Name = 
REMARK  4 active torsions:
REMARK  status: ('A' for Active; 'I' for Inactive)
REMARK    1  A    between atoms: C_2  and  C_5
REMARK    2  A    between atoms: C_5  and  C_7
REMARK    3  A    between atoms: C_7  and  C_8
REMARK    4  A    between atoms: C_8  and  C_10
REMARK                            x       y       z     vdW  Elec       q    Type
REMARK                         _______ _______ _______ _____ _____    ______ ____
ROOT
ATOM      1  C   UNL     1       9.047  -0.952  24.174  0.00  0.00    +0.164 C 
ENDROOT
BRANCH   1   2
ATOM      2  C   UNL     1       9.989  -0.018  23.467  0.00  0.00    +0.243 C 
ATOM      3  O   UNL     1      11.045   0.356  23.980  0.00  0.00    -0.288 OA
BRANCH   2   5
ATOM      4  F   UNL     1       9.757  -0.534  21.140  0.00  0.00    -0.163 F 
ATOM      5  C   UNL     1       9.535   0.422  22.086  0.00  0.00    +0.451 C 
ATOM      6  F   UNL     1       8.203   0.693  22.040  0.00  0.00    -0.163 F 
ATOM      7  F   UNL     1      10.181   1.537  21.653  0.00  0.00    -0.163 F 
ENDBRANCH   2   5
ENDBRANCH   1   2
BRANCH   1   8
ATOM      8  C   UNL     1       9.145  -2.393  23.746  0.00  0.00    +0.177 C 
ATOM      9  O   UNL     1      10.239  -2.957  23.815  0.00  0.00    -0.291 OA
BRANCH   8  10
ATOM     10  C   UNL     1       7.971  -3.054  23.179  0.00  0.00    +0.055 A 
ATOM     11  S   UNL     1       7.618  -4.708  23.449  0.00  0.00    -0.094 S 
ATOM     12  C   UNL     1       6.208  -4.640  22.487  0.00  0.00    +0.046 A 
ATOM     13  C   UNL     1       5.988  -3.380  21.983  0.00  0.00    +0.008 A 
ATOM     14  C   UNL     1       7.012  -2.468  22.371  0.00  0.00    +0.019 A 
ENDBRANCH   8  10
ENDBRANCH   1   8
TORSDOF 4
ENDMDL
MODEL 7
REMARK VINA RESULT:      -5.1      3.273      4.964
REMARK  Name = 
REMARK  4 active torsions:
REMARK  status: ('A' for Active; 'I' for Inactive)
REMARK    1  A    between atoms: C_2  and  C_5
REMARK    2  A    between atoms: C_5  and  C_7
REMARK    3  A    between atoms: C_7  and  C_8
REMARK    4  A    between atoms: C_8  and  C_10
REMARK                            x       y       z     vdW  Elec       q    Type
REMARK                         _______ _______ _______ _____ _____    ______ ____
ROOT
ATOM      1  C   UNL     1       9.138   1.297  24.123  0.00  0.00    +0.164 C 
ENDROOT
BRANCH   1   2
ATOM      2  C   UNL     1       8.387   0.944  22.870  0.00  0.00    +0.243 C 
ATOM      3  O   UNL     1       7.190   0.651  22.889  0.00  0.00    -0.288 OA
BRANCH   2   5
ATOM      4  F   UNL     1      10.252   1.856  21.678  0.00  0.00    -0.163 F 
ATOM      5  C   UNL     1       9.215   0.974  21.598  0.00  0.00    +0.451 C 
ATOM      6  F   UNL     1       9.771  -0.233  21.312  0.00  0.00    -0.163 F 
ATOM      7  F   UNL     1       8.490   1.344  20.510  0.00  0.00    -0.163 F 
ENDBRANCH   2   5
ENDBRANCH   1   2
BRANCH   1   8
ATOM      8  C   UNL     1      10.061   0.220  24.632  0.00  0.00    +0.177 C 
ATOM      9  O   UNL     1      11.241   0.504  24.845  0.00  0.00    -0.291 OA
BRANCH   8  10
ATOM     10  C   UNL     1       9.560  -1.146  24.772  0.00  0.00    +0.055 A 
ATOM     11  S   UNL     1       8.463  -1.609  26.003  0.00  0.00    -0.094 S 
ATOM     12  C   UNL     1       8.435  -3.232  25.471  0.00  0.00    +0.046 A 
ATOM     13  C   UNL     1       9.226  -3.424  24.362  0.00  0.00    +0.008 A 
ATOM     14  C   UNL     1       9.885  -2.224  23.967  0.00  0.00    +0.019 A 
ENDBRANCH   8  10
ENDBRANCH   1   8
TORSDOF 4
ENDMDL
MODEL 8
REMARK VINA RESULT:      -5.0      3.277      5.173
REMARK  Name = 
REMARK  4 active torsions:
REMARK  status: ('A' for Active; 'I' for Inactive)
REMARK    1  A    between atoms: C_2  and  C_5
REMARK    2  A    between atoms: C_5  and  C_7
REMARK    3  A    between atoms: C_7  and  C_8
REMARK    4  A    between atoms: C_8  and  C_10
REMARK                            x       y       z     vdW  Elec       q    Type
REMARK                         _______ _______ _______ _____ _____    ______ ____
ROOT
ATOM      1  C   UNL     1      10.031  -0.128  23.678  0.00  0.00    +0.164 C 
ENDROOT
BRANCH   1   2
ATOM      2  C   UNL     1       8.967   0.820  23.198  0.00  0.00    +0.243 C 
ATOM      3  O   UNL     1       7.963   1.067  23.869  0.00  0.00    -0.288 OA
BRANCH   2   5
ATOM      4  F   UNL     1       8.401   2.488  21.577  0.00  0.00    -0.163 F 
ATOM      5  C   UNL     1       9.229   1.437  21.835  0.00  0.00    +0.451 C 
ATOM      6  F   UNL     1      10.495   1.919  21.720  0.00  0.00    -0.163 F 
ATOM      7  F   UNL     1       9.047   0.555  20.818  0.00  0.00    -0.163 F 
ENDBRANCH   2   5
ENDBRANCH   1   2
BRANCH   1   8
ATOM      8  C   UNL     1       9.982  -1.500  23.057  0.00  0.00    +0.177 C 
ATOM      9  O   UNL     1      10.864  -1.818  22.256  0.00  0.00    -0.291 OA
BRANCH   8  10
ATOM     10  C   UNL     1       8.849  -2.378  23.345  0.00  0.00    +0.055 A 
ATOM     11  S   UNL     1       8.657  -3.178  24.847  0.00  0.00    -0.094 S 
ATOM     12  C   UNL     1       7.208  -3.932  24.344  0.00  0.00    +0.046 A 
ATOM     13  C   UNL     1       6.857  -3.569  23.065  0.00  0.00    +0.008 A 
ATOM     14  C   UNL     1       7.810  -2.684  22.484  0.00  0.00    +0.019 A 
ENDBRANCH   8  10
ENDBRANCH   1   8
TORSDOF 4
ENDMDL
MODEL 9
REMARK VINA RESULT:      -4.9      3.444      5.439
REMARK  Name = 
REMARK  4 active torsions:
REMARK  status: ('A' for Active; 'I' for Inactive)
REMARK    1  A    between atoms: C_2  and  C_5
REMARK    2  A    between atoms: C_5  and  C_7
REMARK    3  A    between atoms: C_7  and  C_8
REMARK    4  A    between atoms: C_8  and  C_10
REMARK                            x       y       z     vdW  Elec       q    Type
REMARK                         _______ _______ _______ _____ _____    ______ ____
ROOT
ATOM      1  C   UNL     1       8.941  -0.253  22.406  0.00  0.00    +0.164 C 
ENDROOT
BRANCH   1   2
ATOM      2  C   UNL     1       9.750   0.970  22.740  0.00  0.00    +0.243 C 
ATOM      3  O   UNL     1      10.209   1.707  21.865  0.00  0.00    -0.288 OA
BRANCH   2   5
ATOM      4  F   UNL     1      11.193   0.829  24.646  0.00  0.00    -0.163 F 
ATOM      5  C   UNL     1       9.955   1.215  24.225  0.00  0.00    +0.451 C 
ATOM      6  F   UNL     1       9.840   2.528  24.554  0.00  0.00    -0.163 F 
ATOM      7  F   UNL     1       9.067   0.533  24.995  0.00  0.00    -0.163 F 
ENDBRANCH   2   5
ENDBRANCH   1   2
BRANCH   1   8
ATOM      8  C   UNL     1       9.660  -1.561  22.610  0.00  0.00    +0.177 C 
ATOM      9  O   UNL     1      10.807  -1.680  22.174  0.00  0.00    -0.291 OA
BRANCH   8  10
ATOM     10  C   UNL     1       8.952  -2.678  23.234  0.00  0.00    +0.055 A 
ATOM     11  S   UNL     1       7.482  -3.304  22.617  0.00  0.00    -0.094 S 
ATOM     12  C   UNL     1       7.370  -4.469  23.862  0.00  0.00    +0.046 A 
ATOM     13  C   UNL     1       8.440  -4.406  24.724  0.00  0.00    +0.008 A 
ATOM     14  C   UNL     1       9.345  -3.365  24.370  0.00  0.00    +0.019 A 
ENDBRANCH   8  10
ENDBRANCH   1   8
TORSDOF 4
ENDMDL
