MODEL 1
REMARK VINA RESULT:      -6.9      0.000      0.000
REMARK  Name = 
REMARK  4 active torsions:
REMARK  status: ('A' for Active; 'I' for Inactive)
REMARK    1  A    between atoms: C_2  and  C_4
REMARK    2  A    between atoms: N_10  and  S_13
REMARK    3  A    between atoms: S_13  and  C_16
REMARK    4  A    between atoms: C_21  and  N_22
REMARK                            x       y       z     vdW  Elec       q    Type
REMARK                         _______ _______ _______ _____ _____    ______ ____
ROOT
ATOM      1  C   UNL     1       6.283   1.401  24.038  0.00  0.00    +0.057 A 
ATOM      2  C   UNL     1       7.188   0.370  24.290  0.00  0.00    +0.044 A 
ATOM      3  C   UNL     1       8.183   0.159  23.326  0.00  0.00    +0.091 A 
ATOM      4  C   UNL     1       8.317   1.032  22.245  0.00  0.00    +0.090 A 
ATOM      5  C   UNL     1       9.442   0.626  21.485  0.00  0.00    +0.049 A 
ATOM      6  C   UNL     1       9.953  -0.512  22.079  0.00  0.00    +0.114 A 
ATOM      7  N   UNL     1       7.482   2.072  22.021  0.00  0.00    -0.253 NA
ATOM      8  N   UNL     1       9.123  -0.826  23.126  0.00  0.00    -0.216 N 
ATOM      9  C   UNL     1       6.472   2.200  22.916  0.00  0.00    +0.124 A 
ENDROOT
BRANCH   1  13
ATOM     10  N   UNL     1       5.159   1.197  26.193  0.00  0.00    -0.325 N 
ATOM     11  H   UNL     1       5.843   0.534  26.530  0.00  0.00    +0.145 HD
ATOM     12  H   UNL     1       4.302   1.273  26.729  0.00  0.00    +0.145 HD
ATOM     13  C   UNL     1       5.109   1.656  24.908  0.00  0.00    +0.243 C 
ATOM     14  O   UNL     1       4.117   2.233  24.483  0.00  0.00    -0.270 OA
ENDBRANCH   1  13
BRANCH   8  15
ATOM     15  S   UNL     1       9.209  -2.302  23.991  0.00  0.00    +0.091 S 
ATOM     16  O   UNL     1       8.871  -1.924  25.347  0.00  0.00    -0.147 OA
ATOM     17  O   UNL     1      10.473  -2.913  23.632  0.00  0.00    -0.147 OA
BRANCH  15  18
ATOM     18  C   UNL     1       7.916  -3.329  23.371  0.00  0.00    +0.188 A 
ATOM     19  C   UNL     1       7.590  -4.520  24.028  0.00  0.00    +0.300 A 
ATOM     20  C   UNL     1       6.464  -5.267  23.655  0.00  0.00    +0.086 A 
ATOM     21  C   UNL     1       5.691  -4.839  22.578  0.00  0.00    +0.007 A 
ATOM     22  C   UNL     1       6.061  -3.700  21.860  0.00  0.00    +0.002 A 
ATOM     23  C   UNL     1       7.168  -2.940  22.254  0.00  0.00    +0.036 A 
BRANCH  19  24
ATOM     24  N   UNL     1       8.464  -5.100  25.031  0.00  0.00    +0.082 N 
ATOM     25  O   UNL     1       8.119  -4.985  26.214  0.00  0.00    +0.042 OA
ATOM     26  O   UNL     1       9.443  -5.732  24.612  0.00  0.00    -0.576 OA
ENDBRANCH  19  24
ENDBRANCH  15  18
ENDBRANCH   8  15
TORSDOF 4
ENDMDL
MODEL 2
REMARK VINA RESULT:      -6.8      2.706      3.749
REMARK  Name = 
REMARK  4 active torsions:
REMARK  status: ('A' for Active; 'I' for Inactive)
REMARK    1  A    between atoms: C_2  and  C_4
REMARK    2  A    between atoms: N_10  and  S_13
REMARK    3  A    between atoms: S_13  and  C_16
REMARK    4  A    between atoms: C_21  and  N_22
REMARK                            x       y       z     vdW  Elec       q    Type
REMARK                         _______ _______ _______ _____ _____    ______ ____
ROOT
ATOM      1  C   UNL     1       8.578   0.913  23.183  0.00  0.00    +0.057 A 
ATOM      2  C   UNL     1       8.072  -0.385  23.122  0.00  0.00    +0.044 A 
ATOM      3  C   UNL     1       8.213  -1.168  24.276  0.00  0.00    +0.091 A 
ATOM      4  C   UNL     1       8.720  -0.611  25.452  0.00  0.00    +0.090 A 
ATOM      5  C   UNL     1       8.675  -1.599  26.466  0.00  0.00    +0.049 A 
ATOM      6  C   UNL     1       8.188  -2.757  25.892  0.00  0.00    +0.114 A 
ATOM      7  N   UNL     1       9.160   0.666  25.540  0.00  0.00    -0.253 NA
ATOM      8  N   UNL     1       8.008  -2.499  24.556  0.00  0.00    -0.216 N 
ATOM      9  C   UNL     1       9.099   1.375  24.387  0.00  0.00    +0.124 A 
ENDROOT
BRANCH   1  13
ATOM     10  N   UNL     1       9.831   2.191  21.525  0.00  0.00    -0.325 N 
ATOM     11  H   UNL     1      10.696   2.073  22.033  0.00  0.00    +0.145 HD
ATOM     12  H   UNL     1       9.827   2.897  20.798  0.00  0.00    +0.145 HD
ATOM     13  C   UNL     1       8.609   1.808  22.001  0.00  0.00    +0.243 C 
ATOM     14  O   UNL     1       7.576   2.212  21.483  0.00  0.00    -0.270 OA
ENDBRANCH   1  13
BRANCH   8  15
ATOM     15  S   UNL     1       7.668  -3.713  23.396  0.00  0.00    +0.091 S 
ATOM     16  O   UNL     1       8.403  -4.863  23.881  0.00  0.00    -0.147 OA
ATOM     17  O   UNL     1       7.901  -3.115  22.098  0.00  0.00    -0.147 OA
BRANCH  15  18
ATOM     18  C   UNL     1       5.946  -4.071  23.526  0.00  0.00    +0.188 A 
ATOM     19  C   UNL     1       5.389  -5.122  22.790  0.00  0.00    +0.300 A 
ATOM     20  C   UNL     1       4.065  -5.531  22.999  0.00  0.00    +0.086 A 
ATOM     21  C   UNL     1       3.278  -4.840  23.918  0.00  0.00    +0.007 A 
ATOM     22  C   UNL     1       3.798  -3.732  24.591  0.00  0.00    +0.002 A 
ATOM     23  C   UNL     1       5.130  -3.347  24.403  0.00  0.00    +0.036 A 
BRANCH  19  24
ATOM     24  N   UNL     1       6.109  -5.750  21.698  0.00  0.00    +0.082 N 
ATOM     25  O   UNL     1       6.753  -6.775  21.961  0.00  0.00    +0.042 OA
ATOM     26  O   UNL     1       5.953  -5.252  20.575  0.00  0.00    -0.576 OA
ENDBRANCH  19  24
ENDBRANCH  15  18
ENDBRANCH   8  15
TORSDOF 4
ENDMDL
MODEL 3
REMARK VINA RESULT:      -6.7      1.893      2.255
REMARK  Name = 
REMARK  4 active torsions:
REMARK  status: ('A' for Active; 'I' for Inactive)
REMARK    1  A    between atoms: C_2  and  C_4
REMARK    2  A    between atoms: N_10  and  S_13
REMARK    3  A    between atoms: S_13  and  C_16
REMARK    4  A    between atoms: C_21  and  N_22
REMARK                            x       y       z     vdW  Elec       q    Type
REMARK                         _______ _______ _______ _____ _____    ______ ____
ROOT
ATOM      1  C   UNL     1       7.460   1.285  22.594  0.00  0.00    +0.057 A 
ATOM      2  C   UNL     1       7.486   0.228  23.503  0.00  0.00    +0.044 A 
ATOM      3  C   UNL     1       8.534  -0.693  23.363  0.00  0.00    +0.091 A 
ATOM      4  C   UNL     1       9.555  -0.468  22.438  0.00  0.00    +0.090 A 
ATOM      5  C   UNL     1      10.509  -1.508  22.570  0.00  0.00    +0.049 A 
ATOM      6  C   UNL     1      10.040  -2.377  23.536  0.00  0.00    +0.114 A 
ATOM      7  N   UNL     1       9.571   0.586  21.590  0.00  0.00    -0.253 NA
ATOM      8  N   UNL     1       8.809  -1.917  23.929  0.00  0.00    -0.216 N 
ATOM      9  C   UNL     1       8.501   1.412  21.681  0.00  0.00    +0.124 A 
ENDROOT
BRANCH   1  13
ATOM     10  N   UNL     1       5.226   1.986  23.281  0.00  0.00    -0.325 N 
ATOM     11  H   UNL     1       5.029   1.084  23.691  0.00  0.00    +0.145 HD
ATOM     12  H   UNL     1       4.433   2.600  23.138  0.00  0.00    +0.145 HD
ATOM     13  C   UNL     1       6.344   2.261  22.545  0.00  0.00    +0.243 C 
ATOM     14  O   UNL     1       6.409   3.266  21.851  0.00  0.00    -0.270 OA
ENDBRANCH   1  13
BRANCH   8  15
ATOM     15  S   UNL     1       7.735  -2.814  24.917  0.00  0.00    +0.091 S 
ATOM     16  O   UNL     1       6.681  -1.869  25.223  0.00  0.00    -0.147 OA
ATOM     17  O   UNL     1       8.548  -3.449  25.934  0.00  0.00    -0.147 OA
BRANCH  15  18
ATOM     18  C   UNL     1       7.052  -4.084  23.900  0.00  0.00    +0.188 A 
ATOM     19  C   UNL     1       6.144  -5.002  24.438  0.00  0.00    +0.300 A 
ATOM     20  C   UNL     1       5.464  -5.912  23.618  0.00  0.00    +0.086 A 
ATOM     21  C   UNL     1       5.739  -5.934  22.253  0.00  0.00    +0.007 A 
ATOM     22  C   UNL     1       6.710  -5.083  21.721  0.00  0.00    +0.002 A 
ATOM     23  C   UNL     1       7.365  -4.154  22.538  0.00  0.00    +0.036 A 
BRANCH  19  24
ATOM     24  N   UNL     1       5.960  -5.139  25.871  0.00  0.00    +0.082 N 
ATOM     25  O   UNL     1       5.058  -4.470  26.391  0.00  0.00    +0.042 OA
ATOM     26  O   UNL     1       6.671  -5.978  26.441  0.00  0.00    -0.576 OA
ENDBRANCH  19  24
ENDBRANCH  15  18
ENDBRANCH   8  15
TORSDOF 4
ENDMDL
MODEL 4
REMARK VINA RESULT:      -6.5      2.614      6.157
REMARK  Name = 
REMARK  4 active torsions:
REMARK  status: ('A' for Active; 'I' for Inactive)
REMARK    1  A    between atoms: C_2  and  C_4
REMARK    2  A    between atoms: N_10  and  S_13
REMARK    3  A    between atoms: S_13  and  C_16
REMARK    4  A    between atoms: C_21  and  N_22
REMARK                            x       y       z     vdW  Elec       q    Type
REMARK                         _______ _______ _______ _____ _____    ______ ____
ROOT
ATOM      1  C   UNL     1       4.924  -5.817  24.305  0.00  0.00    +0.057 A 
ATOM      2  C   UNL     1       6.049  -5.109  23.883  0.00  0.00    +0.044 A 
ATOM      3  C   UNL     1       7.050  -4.895  24.841  0.00  0.00    +0.091 A 
ATOM      4  C   UNL     1       6.959  -5.482  26.104  0.00  0.00    +0.090 A 
ATOM      5  C   UNL     1       8.135  -5.164  26.827  0.00  0.00    +0.049 A 
ATOM      6  C   UNL     1       8.908  -4.352  26.020  0.00  0.00    +0.114 A 
ATOM      7  N   UNL     1       5.898  -6.220  26.506  0.00  0.00    -0.253 NA
ATOM      8  N   UNL     1       8.192  -4.128  24.870  0.00  0.00    -0.216 N 
ATOM      9  C   UNL     1       4.902  -6.336  25.595  0.00  0.00    +0.124 A 
ENDROOT
BRANCH   1  13
ATOM     10  N   UNL     1       3.214  -7.267  23.343  0.00  0.00    -0.325 N 
ATOM     11  H   UNL     1       3.689  -8.100  23.661  0.00  0.00    +0.145 HD
ATOM     12  H   UNL     1       2.484  -7.398  22.653  0.00  0.00    +0.145 HD
ATOM     13  C   UNL     1       3.737  -6.008  23.437  0.00  0.00    +0.243 C 
ATOM     14  O   UNL     1       3.257  -5.078  22.803  0.00  0.00    -0.270 OA
ENDBRANCH   1  13
BRANCH   8  15
ATOM     15  S   UNL     1       8.637  -2.969  23.690  0.00  0.00    +0.091 S 
ATOM     16  O   UNL     1       8.125  -3.525  22.455  0.00  0.00    -0.147 OA
ATOM     17  O   UNL     1      10.040  -2.682  23.907  0.00  0.00    -0.147 OA
BRANCH  15  18
ATOM     18  C   UNL     1       7.723  -1.503  24.050  0.00  0.00    +0.188 A 
ATOM     19  C   UNL     1       7.978  -0.325  23.340  0.00  0.00    +0.300 A 
ATOM     20  C   UNL     1       7.158   0.801  23.490  0.00  0.00    +0.086 A 
ATOM     21  C   UNL     1       6.105   0.759  24.401  0.00  0.00    +0.007 A 
ATOM     22  C   UNL     1       5.899  -0.382  25.179  0.00  0.00    +0.002 A 
ATOM     23  C   UNL     1       6.700  -1.516  25.005  0.00  0.00    +0.036 A 
BRANCH  19  24
ATOM     24  N   UNL     1       9.166  -0.173  22.521  0.00  0.00    +0.082 N 
ATOM     25  O   UNL     1      10.174   0.292  23.069  0.00  0.00    +0.042 OA
ATOM     26  O   UNL     1       9.094  -0.597  21.359  0.00  0.00    -0.576 OA
ENDBRANCH  19  24
ENDBRANCH  15  18
ENDBRANCH   8  15
TORSDOF 4
ENDMDL
MODEL 5
REMARK VINA RESULT:      -6.4      2.378      3.485
REMARK  Name = 
REMARK  4 active torsions:
REMARK  status: ('A' for Active; 'I' for Inactive)
REMARK    1  A    between atoms: C_2  and  C_4
REMARK    2  A    between atoms: N_10  and  S_13
REMARK    3  A    between atoms: S_13  and  C_16
REMARK    4  A    between atoms: C_21  and  N_22
REMARK                            x       y       z     vdW  Elec       q    Type
REMARK                         _______ _______ _______ _____ _____    ______ ____
ROOT
ATOM      1  C   UNL     1       8.912   0.368  23.073  0.00  0.00    +0.057 A 
ATOM      2  C   UNL     1       8.734  -0.958  23.467  0.00  0.00    +0.044 A 
ATOM      3  C   UNL     1       8.450  -1.176  24.822  0.00  0.00    +0.091 A 
ATOM      4  C   UNL     1       8.234  -0.098  25.683  0.00  0.00    +0.090 A 
ATOM      5  C   UNL     1       7.891  -0.611  26.958  0.00  0.00    +0.049 A 
ATOM      6  C   UNL     1       7.947  -1.989  26.878  0.00  0.00    +0.114 A 
ATOM      7  N   UNL     1       8.346   1.194  25.298  0.00  0.00    -0.253 NA
ATOM      8  N   UNL     1       8.377  -2.300  25.612  0.00  0.00    -0.216 N 
ATOM      9  C   UNL     1       8.712   1.379  24.006  0.00  0.00    +0.124 A 
ENDROOT
BRANCH   1  13
ATOM     10  N   UNL     1       9.791   2.009  21.495  0.00  0.00    -0.325 N 
ATOM     11  H   UNL     1       9.671   2.764  22.156  0.00  0.00    +0.145 HD
ATOM     12  H   UNL     1       9.959   2.274  20.532  0.00  0.00    +0.145 HD
ATOM     13  C   UNL     1       9.338   0.736  21.701  0.00  0.00    +0.243 C 
ATOM     14  O   UNL     1       9.263  -0.063  20.777  0.00  0.00    -0.270 OA
ENDBRANCH   1  13
BRANCH   8  15
ATOM     15  S   UNL     1       8.847  -3.877  25.135  0.00  0.00    +0.091 S 
ATOM     16  O   UNL     1       8.852  -4.622  26.376  0.00  0.00    -0.147 OA
ATOM     17  O   UNL     1      10.021  -3.720  24.301  0.00  0.00    -0.147 OA
BRANCH  15  18
ATOM     18  C   UNL     1       7.546  -4.510  24.124  0.00  0.00    +0.188 A 
ATOM     19  C   UNL     1       6.332  -4.894  24.701  0.00  0.00    +0.300 A 
ATOM     20  C   UNL     1       5.231  -5.241  23.907  0.00  0.00    +0.086 A 
ATOM     21  C   UNL     1       5.370  -5.254  22.521  0.00  0.00    +0.007 A 
ATOM     22  C   UNL     1       6.605  -4.960  21.939  0.00  0.00    +0.002 A 
ATOM     23  C   UNL     1       7.693  -4.583  22.734  0.00  0.00    +0.036 A 
BRANCH  19  24
ATOM     24  N   UNL     1       6.194  -5.071  26.135  0.00  0.00    +0.082 N 
ATOM     25  O   UNL     1       5.678  -4.143  26.772  0.00  0.00    +0.042 OA
ATOM     26  O   UNL     1       6.531  -6.172  26.590  0.00  0.00    -0.576 OA
ENDBRANCH  19  24
ENDBRANCH  15  18
ENDBRANCH   8  15
TORSDOF 4
ENDMDL
MODEL 6
REMARK VINA RESULT:      -6.3      2.851      6.466
REMARK  Name = 
REMARK  4 active torsions:
REMARK  status: ('A' for Active; 'I' for Inactive)
REMARK    1  A    between atoms: C_2  and  C_4
REMARK    2  A    between atoms: N_10  and  S_13
REMARK    3  A    between atoms: S_13  and  C_16
REMARK    4  A    between atoms: C_21  and  N_22
REMARK                            x       y       z     vdW  Elec       q    Type
REMARK                         _______ _______ _______ _____ _____    ______ ____
ROOT
ATOM      1  C   UNL     1       4.675  -6.426  24.821  0.00  0.00    +0.057 A 
ATOM      2  C   UNL     1       5.400  -5.365  24.279  0.00  0.00    +0.044 A 
ATOM      3  C   UNL     1       6.323  -4.739  25.127  0.00  0.00    +0.091 A 
ATOM      4  C   UNL     1       6.578  -5.253  26.400  0.00  0.00    +0.090 A 
ATOM      5  C   UNL     1       7.602  -4.476  26.996  0.00  0.00    +0.049 A 
ATOM      6  C   UNL     1       7.928  -3.471  26.106  0.00  0.00    +0.114 A 
ATOM      7  N   UNL     1       5.923  -6.319  26.915  0.00  0.00    -0.253 NA
ATOM      8  N   UNL     1       7.081  -3.594  25.032  0.00  0.00    -0.216 N 
ATOM      9  C   UNL     1       4.970  -6.851  26.112  0.00  0.00    +0.124 A 
ENDROOT
BRANCH   1  13
ATOM     10  N   UNL     1       3.127  -6.503  22.936  0.00  0.00    -0.325 N 
ATOM     11  H   UNL     1       3.344  -5.552  22.671  0.00  0.00    +0.145 HD
ATOM     12  H   UNL     1       2.301  -6.912  22.516  0.00  0.00    +0.145 HD
ATOM     13  C   UNL     1       3.580  -7.098  24.080  0.00  0.00    +0.243 C 
ATOM     14  O   UNL     1       3.079  -8.136  24.490  0.00  0.00    -0.270 OA
ENDBRANCH   1  13
BRANCH   8  15
ATOM     15  S   UNL     1       6.938  -2.412  23.800  0.00  0.00    +0.091 S 
ATOM     16  O   UNL     1       5.558  -1.985  23.896  0.00  0.00    -0.147 OA
ATOM     17  O   UNL     1       7.504  -2.999  22.603  0.00  0.00    -0.147 OA
BRANCH  15  18
ATOM     18  C   UNL     1       7.964  -1.058  24.276  0.00  0.00    +0.188 A 
ATOM     19  C   UNL     1       9.275  -0.968  23.798  0.00  0.00    +0.300 A 
ATOM     20  C   UNL     1      10.052   0.175  24.025  0.00  0.00    +0.086 A 
ATOM     21  C   UNL     1       9.523   1.216  24.787  0.00  0.00    +0.007 A 
ATOM     22  C   UNL     1       8.248   1.096  25.344  0.00  0.00    +0.002 A 
ATOM     23  C   UNL     1       7.464  -0.034  25.089  0.00  0.00    +0.036 A 
BRANCH  19  24
ATOM     24  N   UNL     1       9.931  -2.095  23.160  0.00  0.00    +0.082 N 
ATOM     25  O   UNL     1      10.271  -3.037  23.888  0.00  0.00    +0.042 OA
ATOM     26  O   UNL     1      10.023  -2.054  21.925  0.00  0.00    -0.576 OA
ENDBRANCH  19  24
ENDBRANCH  15  18
ENDBRANCH   8  15
TORSDOF 4
ENDMDL
MODEL 7
REMARK VINA RESULT:      -6.3      2.011      3.399
REMARK  Name = 
REMARK  4 active torsions:
REMARK  status: ('A' for Active; 'I' for Inactive)
REMARK    1  A    between atoms: C_2  and  C_4
REMARK    2  A    between atoms: N_10  and  S_13
REMARK    3  A    between atoms: S_13  and  C_16
REMARK    4  A    between atoms: C_21  and  N_22
REMARK                            x       y       z     vdW  Elec       q    Type
REMARK                         _______ _______ _______ _____ _____    ______ ____
ROOT
ATOM      1  C   UNL     1       8.140   0.966  22.785  0.00  0.00    +0.057 A 
ATOM      2  C   UNL     1       7.775  -0.211  23.440  0.00  0.00    +0.044 A 
ATOM      3  C   UNL     1       6.843  -0.087  24.479  0.00  0.00    +0.091 A 
ATOM      4  C   UNL     1       6.230   1.141  24.738  0.00  0.00    +0.090 A 
ATOM      5  C   UNL     1       5.285   0.954  25.776  0.00  0.00    +0.049 A 
ATOM      6  C   UNL     1       5.362  -0.368  26.172  0.00  0.00    +0.114 A 
ATOM      7  N   UNL     1       6.533   2.278  24.070  0.00  0.00    -0.253 NA
ATOM      8  N   UNL     1       6.371  -0.947  25.443  0.00  0.00    -0.216 N 
ATOM      9  C   UNL     1       7.503   2.152  23.133  0.00  0.00    +0.124 A 
ENDROOT
BRANCH   1  13
ATOM     10  N   UNL     1       9.878   2.177  21.575  0.00  0.00    -0.325 N 
ATOM     11  H   UNL     1       9.573   3.064  21.950  0.00  0.00    +0.145 HD
ATOM     12  H   UNL     1      10.513   2.214  20.786  0.00  0.00    +0.145 HD
ATOM     13  C   UNL     1       9.205   1.002  21.754  0.00  0.00    +0.243 C 
ATOM     14  O   UNL     1       9.456   0.021  21.066  0.00  0.00    -0.270 OA
ENDBRANCH   1  13
BRANCH   8  15
ATOM     15  S   UNL     1       7.004  -2.504  25.776  0.00  0.00    +0.091 S 
ATOM     16  O   UNL     1       6.326  -2.894  26.995  0.00  0.00    -0.147 OA
ATOM     17  O   UNL     1       8.444  -2.390  25.674  0.00  0.00    -0.147 OA
BRANCH  15  18
ATOM     18  C   UNL     1       6.451  -3.565  24.480  0.00  0.00    +0.188 A 
ATOM     19  C   UNL     1       6.934  -4.874  24.390  0.00  0.00    +0.300 A 
ATOM     20  C   UNL     1       6.390  -5.785  23.474  0.00  0.00    +0.086 A 
ATOM     21  C   UNL     1       5.389  -5.358  22.605  0.00  0.00    +0.007 A 
ATOM     22  C   UNL     1       4.964  -4.028  22.626  0.00  0.00    +0.002 A 
ATOM     23  C   UNL     1       5.488  -3.130  23.562  0.00  0.00    +0.036 A 
BRANCH  19  24
ATOM     24  N   UNL     1       8.094  -5.310  25.145  0.00  0.00    +0.082 N 
ATOM     25  O   UNL     1       9.201  -5.172  24.607  0.00  0.00    +0.042 OA
ATOM     26  O   UNL     1       7.885  -5.711  26.298  0.00  0.00    -0.576 OA
ENDBRANCH  19  24
ENDBRANCH  15  18
ENDBRANCH   8  15
TORSDOF 4
ENDMDL
MODEL 8
REMARK VINA RESULT:      -6.3      2.674      4.220
REMARK  Name = 
REMARK  4 active torsions:
REMARK  status: ('A' for Active; 'I' for Inactive)
REMARK    1  A    between atoms: C_2  and  C_4
REMARK    2  A    between atoms: N_10  and  S_13
REMARK    3  A    between atoms: S_13  and  C_16
REMARK    4  A    between atoms: C_21  and  N_22
REMARK                            x       y       z     vdW  Elec       q    Type
REMARK                         _______ _______ _______ _____ _____    ______ ____
ROOT
ATOM      1  C   UNL     1       8.488   0.929  23.049  0.00  0.00    +0.057 A 
ATOM      2  C   UNL     1       7.563  -0.114  23.115  0.00  0.00    +0.044 A 
ATOM      3  C   UNL     1       6.705  -0.121  24.224  0.00  0.00    +0.091 A 
ATOM      4  C   UNL     1       6.710   0.942  25.130  0.00  0.00    +0.090 A 
ATOM      5  C   UNL     1       5.698   0.708  26.093  0.00  0.00    +0.049 A 
ATOM      6  C   UNL     1       5.119  -0.511  25.795  0.00  0.00    +0.114 A 
ATOM      7  N   UNL     1       7.563   1.988  25.043  0.00  0.00    -0.253 NA
ATOM      8  N   UNL     1       5.804  -1.032  24.726  0.00  0.00    -0.216 N 
ATOM      9  C   UNL     1       8.444   1.927  24.016  0.00  0.00    +0.124 A 
ENDROOT
BRANCH   1  13
ATOM     10  N   UNL     1      10.044   2.221  21.685  0.00  0.00    -0.325 N 
ATOM     11  H   UNL     1       9.624   3.095  21.967  0.00  0.00    +0.145 HD
ATOM     12  H   UNL     1      10.665   2.256  20.885  0.00  0.00    +0.145 HD
ATOM     13  C   UNL     1       9.535   0.993  22.001  0.00  0.00    +0.243 C 
ATOM     14  O   UNL     1       9.913  -0.015  21.418  0.00  0.00    -0.270 OA
ENDBRANCH   1  13
BRANCH   8  15
ATOM     15  S   UNL     1       5.612  -2.642  24.174  0.00  0.00    +0.091 S 
ATOM     16  O   UNL     1       5.782  -2.533  22.740  0.00  0.00    -0.147 OA
ATOM     17  O   UNL     1       4.402  -3.145  24.791  0.00  0.00    -0.147 OA
BRANCH  15  18
ATOM     18  C   UNL     1       6.972  -3.564  24.816  0.00  0.00    +0.188 A 
ATOM     19  C   UNL     1       7.430  -4.701  24.143  0.00  0.00    +0.300 A 
ATOM     20  C   UNL     1       8.605  -5.352  24.539  0.00  0.00    +0.086 A 
ATOM     21  C   UNL     1       9.296  -4.887  25.656  0.00  0.00    +0.007 A 
ATOM     22  C   UNL     1       8.797  -3.808  26.388  0.00  0.00    +0.002 A 
ATOM     23  C   UNL     1       7.640  -3.141  25.971  0.00  0.00    +0.036 A 
BRANCH  19  24
ATOM     24  N   UNL     1       6.650  -5.328  23.092  0.00  0.00    +0.082 N 
ATOM     25  O   UNL     1       7.088  -5.243  21.937  0.00  0.00    +0.042 OA
ATOM     26  O   UNL     1       5.652  -5.967  23.451  0.00  0.00    -0.576 OA
ENDBRANCH  19  24
ENDBRANCH  15  18
ENDBRANCH   8  15
TORSDOF 4
ENDMDL
MODEL 9
REMARK VINA RESULT:      -6.2      2.562      3.123
REMARK  Name = 
REMARK  4 active torsions:
REMARK  status: ('A' for Active; 'I' for Inactive)
REMARK    1  A    between atoms: C_2  and  C_4
REMARK    2  A    between atoms: N_10  and  S_13
REMARK    3  A    between atoms: S_13  and  C_16
REMARK    4  A    between atoms: C_21  and  N_22
REMARK                            x       y       z     vdW  Elec       q    Type
REMARK                         _______ _______ _______ _____ _____    ______ ____
ROOT
ATOM      1  C   UNL     1       7.385   1.817  22.459  0.00  0.00    +0.057 A 
ATOM      2  C   UNL     1       7.176   0.495  22.853  0.00  0.00    +0.044 A 
ATOM      3  C   UNL     1       8.244  -0.393  22.661  0.00  0.00    +0.091 A 
ATOM      4  C   UNL     1       9.483   0.075  22.219  0.00  0.00    +0.090 A 
ATOM      5  C   UNL     1      10.386  -1.016  22.194  0.00  0.00    +0.049 A 
ATOM      6  C   UNL     1       9.682  -2.143  22.574  0.00  0.00    +0.114 A 
ATOM      7  N   UNL     1       9.715   1.367  21.890  0.00  0.00    -0.253 NA
ATOM      8  N   UNL     1       8.377  -1.759  22.757  0.00  0.00    -0.216 N 
ATOM      9  C   UNL     1       8.643   2.188  21.995  0.00  0.00    +0.124 A 
ENDROOT
BRANCH   1  13
ATOM     10  N   UNL     1       6.538   4.026  21.867  0.00  0.00    -0.325 N 
ATOM     11  H   UNL     1       7.451   4.337  21.566  0.00  0.00    +0.145 HD
ATOM     12  H   UNL     1       5.838   4.746  22.004  0.00  0.00    +0.145 HD
ATOM     13  C   UNL     1       6.305   2.832  22.488  0.00  0.00    +0.243 C 
ATOM     14  O   UNL     1       5.250   2.621  23.072  0.00  0.00    -0.270 OA
ENDBRANCH   1  13
BRANCH   8  15
ATOM     15  S   UNL     1       7.088  -2.866  22.978  0.00  0.00    +0.091 S 
ATOM     16  O   UNL     1       7.305  -3.853  21.941  0.00  0.00    -0.147 OA
ATOM     17  O   UNL     1       5.880  -2.072  23.074  0.00  0.00    -0.147 OA
BRANCH  15  18
ATOM     18  C   UNL     1       7.350  -3.644  24.539  0.00  0.00    +0.188 A 
ATOM     19  C   UNL     1       6.575  -4.748  24.912  0.00  0.00    +0.300 A 
ATOM     20  C   UNL     1       6.871  -5.483  26.067  0.00  0.00    +0.086 A 
ATOM     21  C   UNL     1       7.924  -5.072  26.882  0.00  0.00    +0.007 A 
ATOM     22  C   UNL     1       8.646  -3.919  26.565  0.00  0.00    +0.002 A 
ATOM     23  C   UNL     1       8.367  -3.206  25.395  0.00  0.00    +0.036 A 
BRANCH  19  24
ATOM     24  N   UNL     1       5.363  -5.102  24.197  0.00  0.00    +0.082 N 
ATOM     25  O   UNL     1       4.344  -4.446  24.453  0.00  0.00    +0.042 OA
ATOM     26  O   UNL     1       5.469  -5.980  23.330  0.00  0.00    -0.576 OA
ENDBRANCH  19  24
ENDBRANCH  15  18
ENDBRANCH   8  15
TORSDOF 4
ENDMDL
