MODEL 1
REMARK VINA RESULT:      -5.8      0.000      0.000
REMARK  Name = 
REMARK  11 active torsions:
REMARK  status: ('A' for Active; 'I' for Inactive)
REMARK    1  A    between atoms: C_1  and  C_2
REMARK    2  A    between atoms: C_2  and  C_3
REMARK    3  A    between atoms: C_2  and  O_4
REMARK    4  A    between atoms: O_4  and  C_5
REMARK    5  A    between atoms: C_5  and  N_7
REMARK    6  A    between atoms: N_7  and  C_8
REMARK    7  A    between atoms: C_10  and  C_11
REMARK    8  A    between atoms: C_11  and  O_13
REMARK    9  A    between atoms: O_13  and  C_14
REMARK   10  A    between atoms: C_14  and  C_15
REMARK   11  A    between atoms: C_14  and  C_16
REMARK                            x       y       z     vdW  Elec       q    Type
REMARK                         _______ _______ _______ _____ _____    ______ ____
ROOT
ATOM      1  C   UNL     1       9.749  -1.043  24.493  0.00  0.00    +0.035 A 
ATOM      2  C   UNL     1       9.206  -0.602  25.701  0.00  0.00    +0.025 A 
ATOM      3  C   UNL     1       8.388  -1.457  26.450  0.00  0.00    +0.022 A 
ATOM      4  C   UNL     1       8.123  -2.762  26.011  0.00  0.00    +0.055 A 
ATOM      5 CL   UNL     1       7.019  -3.695  26.955  0.00  0.00    -0.083 Cl
ATOM      6  C   UNL     1       8.715  -3.227  24.832  0.00  0.00    +0.079 A 
ATOM      7  C   UNL     1       9.553  -2.367  24.107  0.00  0.00    +0.039 A 
ENDROOT
BRANCH   1   8
ATOM      8  N   UNL     1      10.472  -0.123  23.710  0.00  0.00    -0.279 N 
ATOM      9  H   UNL     1      11.483  -0.126  23.785  0.00  0.00    +0.156 HD
BRANCH   8  10
ATOM     10  C   UNL     1       9.976   0.960  23.020  0.00  0.00    +0.233 C 
ATOM     11  S   UNL     1       9.207   0.764  21.559  0.00  0.00    +0.006 S 
BRANCH  10  12
ATOM     12  O   UNL     1      10.199   2.166  23.594  0.00  0.00    -0.471 OA
BRANCH  12  14
ATOM     13  C   UNL     1       8.437   2.959  24.994  0.00  0.00    +0.051 C 
ATOM     14  C   UNL     1       9.228   3.235  23.722  0.00  0.00    +0.169 C 
ATOM     15  C   UNL     1       9.984   4.552  23.845  0.00  0.00    +0.051 C 
ENDBRANCH  12  14
ENDBRANCH  10  12
ENDBRANCH   8  10
ENDBRANCH   1   8
BRANCH   6  16
ATOM     16  C   UNL     1       8.511  -4.605  24.313  0.00  0.00    +0.341 C 
ATOM     17  O   UNL     1       9.315  -5.513  24.408  0.00  0.00    -0.245 OA
BRANCH  16  18
ATOM     18  O   UNL     1       7.289  -4.674  23.717  0.00  0.00    -0.458 OA
BRANCH  18  19
ATOM     19  C   UNL     1       7.221  -4.426  22.300  0.00  0.00    +0.171 C 
ATOM     20  C   UNL     1       6.102  -3.427  22.031  0.00  0.00    +0.052 C 
ATOM     21  C   UNL     1       6.942  -5.756  21.613  0.00  0.00    +0.052 C 
ENDBRANCH  18  19
ENDBRANCH  16  18
ENDBRANCH   6  16
TORSDOF 7
ENDMDL
MODEL 2
REMARK VINA RESULT:      -5.6      1.424      1.747
REMARK  Name = 
REMARK  11 active torsions:
REMARK  status: ('A' for Active; 'I' for Inactive)
REMARK    1  A    between atoms: C_1  and  C_2
REMARK    2  A    between atoms: C_2  and  C_3
REMARK    3  A    between atoms: C_2  and  O_4
REMARK    4  A    between atoms: O_4  and  C_5
REMARK    5  A    between atoms: C_5  and  N_7
REMARK    6  A    between atoms: N_7  and  C_8
REMARK    7  A    between atoms: C_10  and  C_11
REMARK    8  A    between atoms: C_11  and  O_13
REMARK    9  A    between atoms: O_13  and  C_14
REMARK   10  A    between atoms: C_14  and  C_15
REMARK   11  A    between atoms: C_14  and  C_16
REMARK                            x       y       z     vdW  Elec       q    Type
REMARK                         _______ _______ _______ _____ _____    ______ ____
ROOT
ATOM      1  C   UNL     1       9.746  -0.944  24.573  0.00  0.00    +0.035 A 
ATOM      2  C   UNL     1       9.217  -0.541  25.800  0.00  0.00    +0.025 A 
ATOM      3  C   UNL     1       8.400  -1.415  26.527  0.00  0.00    +0.022 A 
ATOM      4  C   UNL     1       8.123  -2.703  26.047  0.00  0.00    +0.055 A 
ATOM      5 CL   UNL     1       7.021  -3.660  26.969  0.00  0.00    -0.083 Cl
ATOM      6  C   UNL     1       8.702  -3.133  24.849  0.00  0.00    +0.079 A 
ATOM      7  C   UNL     1       9.539  -2.254  24.145  0.00  0.00    +0.039 A 
ENDROOT
BRANCH   1   8
ATOM      8  N   UNL     1      10.469  -0.004  23.814  0.00  0.00    -0.279 N 
ATOM      9  H   UNL     1      11.480  -0.081  23.799  0.00  0.00    +0.156 HD
BRANCH   8  10
ATOM     10  C   UNL     1       9.999   1.170  23.270  0.00  0.00    +0.233 C 
ATOM     11  S   UNL     1      10.808   2.603  23.504  0.00  0.00    +0.006 S 
BRANCH  10  12
ATOM     12  O   UNL     1       8.835   1.070  22.586  0.00  0.00    -0.471 OA
BRANCH  12  14
ATOM     13  C   UNL     1       7.013   2.459  21.920  0.00  0.00    +0.051 C 
ATOM     14  C   UNL     1       7.547   1.564  23.030  0.00  0.00    +0.169 C 
ATOM     15  C   UNL     1       6.624   0.368  23.235  0.00  0.00    +0.051 C 
ENDBRANCH  12  14
ENDBRANCH  10  12
ENDBRANCH   8  10
ENDBRANCH   1   8
BRANCH   6  16
ATOM     16  C   UNL     1       8.485  -4.492  24.287  0.00  0.00    +0.341 C 
ATOM     17  O   UNL     1       9.280  -5.410  24.354  0.00  0.00    -0.245 OA
BRANCH  16  18
ATOM     18  O   UNL     1       7.263  -4.530  23.689  0.00  0.00    -0.458 OA
BRANCH  18  19
ATOM     19  C   UNL     1       7.210  -4.336  22.262  0.00  0.00    +0.171 C 
ATOM     20  C   UNL     1       6.058  -3.393  21.939  0.00  0.00    +0.052 C 
ATOM     21  C   UNL     1       6.996  -5.700  21.620  0.00  0.00    +0.052 C 
ENDBRANCH  18  19
ENDBRANCH  16  18
ENDBRANCH   6  16
TORSDOF 7
ENDMDL
MODEL 3
REMARK VINA RESULT:      -5.5      2.885      6.854
REMARK  Name = 
REMARK  11 active torsions:
REMARK  status: ('A' for Active; 'I' for Inactive)
REMARK    1  A    between atoms: C_1  and  C_2
REMARK    2  A    between atoms: C_2  and  C_3
REMARK    3  A    between atoms: C_2  and  O_4
REMARK    4  A    between atoms: O_4  and  C_5
REMARK    5  A    between atoms: C_5  and  N_7
REMARK    6  A    between atoms: N_7  and  C_8
REMARK    7  A    between atoms: C_10  and  C_11
REMARK    8  A    between atoms: C_11  and  O_13
REMARK    9  A    between atoms: O_13  and  C_14
REMARK   10  A    between atoms: C_14  and  C_15
REMARK   11  A    between atoms: C_14  and  C_16
REMARK                            x       y       z     vdW  Elec       q    Type
REMARK                         _______ _______ _______ _____ _____    ______ ____
ROOT
ATOM      1  C   UNL     1       9.615  -2.003  23.877  0.00  0.00    +0.035 A 
ATOM      2  C   UNL     1      10.060  -1.851  22.564  0.00  0.00    +0.025 A 
ATOM      3  C   UNL     1       9.756  -0.681  21.857  0.00  0.00    +0.022 A 
ATOM      4  C   UNL     1       9.025   0.352  22.461  0.00  0.00    +0.055 A 
ATOM      5 CL   UNL     1       8.615   1.703  21.468  0.00  0.00    -0.083 Cl
ATOM      6  C   UNL     1       8.631   0.228  23.797  0.00  0.00    +0.079 A 
ATOM      7  C   UNL     1       8.966  -0.940  24.499  0.00  0.00    +0.039 A 
ENDROOT
BRANCH   1   8
ATOM      8  N   UNL     1       9.839  -3.236  24.521  0.00  0.00    -0.279 N 
ATOM      9  H   UNL     1      10.798  -3.504  24.714  0.00  0.00    +0.156 HD
BRANCH   8  10
ATOM     10  C   UNL     1       8.934  -4.255  24.714  0.00  0.00    +0.233 C 
ATOM     11  S   UNL     1       8.435  -4.676  26.243  0.00  0.00    +0.006 S 
BRANCH  10  12
ATOM     12  O   UNL     1       8.530  -4.895  23.592  0.00  0.00    -0.471 OA
BRANCH  12  14
ATOM     13  C   UNL     1       6.713  -3.659  22.661  0.00  0.00    +0.051 C 
ATOM     14  C   UNL     1       7.158  -5.033  23.144  0.00  0.00    +0.169 C 
ATOM     15  C   UNL     1       7.132  -6.032  21.993  0.00  0.00    +0.051 C 
ENDBRANCH  12  14
ENDBRANCH  10  12
ENDBRANCH   8  10
ENDBRANCH   1   8
BRANCH   6  16
ATOM     16  C   UNL     1       7.880   1.288  24.521  0.00  0.00    +0.341 C 
ATOM     17  O   UNL     1       6.678   1.288  24.708  0.00  0.00    -0.245 OA
BRANCH  16  18
ATOM     18  O   UNL     1       8.756   2.246  24.930  0.00  0.00    -0.458 OA
BRANCH  18  19
ATOM     19  C   UNL     1       8.530   3.595  24.479  0.00  0.00    +0.171 C 
ATOM     20  C   UNL     1       9.813   4.122  23.848  0.00  0.00    +0.052 C 
ATOM     21  C   UNL     1       8.137   4.426  25.693  0.00  0.00    +0.052 C 
ENDBRANCH  18  19
ENDBRANCH  16  18
ENDBRANCH   6  16
TORSDOF 7
ENDMDL
MODEL 4
REMARK VINA RESULT:      -5.4      1.994      2.451
REMARK  Name = 
REMARK  11 active torsions:
REMARK  status: ('A' for Active; 'I' for Inactive)
REMARK    1  A    between atoms: C_1  and  C_2
REMARK    2  A    between atoms: C_2  and  C_3
REMARK    3  A    between atoms: C_2  and  O_4
REMARK    4  A    between atoms: O_4  and  C_5
REMARK    5  A    between atoms: C_5  and  N_7
REMARK    6  A    between atoms: N_7  and  C_8
REMARK    7  A    between atoms: C_10  and  C_11
REMARK    8  A    between atoms: C_11  and  O_13
REMARK    9  A    between atoms: O_13  and  C_14
REMARK   10  A    between atoms: C_14  and  C_15
REMARK   11  A    between atoms: C_14  and  C_16
REMARK                            x       y       z     vdW  Elec       q    Type
REMARK                         _______ _______ _______ _____ _____    ______ ____
ROOT
ATOM      1  C   UNL     1       8.992  -1.042  22.286  0.00  0.00    +0.035 A 
ATOM      2  C   UNL     1      10.186  -1.587  22.757  0.00  0.00    +0.025 A 
ATOM      3  C   UNL     1      10.154  -2.638  23.683  0.00  0.00    +0.022 A 
ATOM      4  C   UNL     1       8.933  -3.165  24.127  0.00  0.00    +0.055 A 
ATOM      5 CL   UNL     1       9.006  -4.385  25.346  0.00  0.00    -0.083 Cl
ATOM      6  C   UNL     1       7.735  -2.662  23.610  0.00  0.00    +0.079 A 
ATOM      7  C   UNL     1       7.785  -1.626  22.664  0.00  0.00    +0.039 A 
ENDROOT
BRANCH   1   8
ATOM      8  N   UNL     1       9.057   0.086  21.446  0.00  0.00    -0.279 N 
ATOM      9  H   UNL     1       9.421  -0.040  20.507  0.00  0.00    +0.156 HD
BRANCH   8  10
ATOM     10  C   UNL     1       8.915   1.407  21.806  0.00  0.00    +0.233 C 
ATOM     11  S   UNL     1       7.432   2.156  21.743  0.00  0.00    +0.006 S 
BRANCH  10  12
ATOM     12  O   UNL     1      10.058   2.039  22.163  0.00  0.00    -0.471 OA
BRANCH  12  14
ATOM     13  C   UNL     1      10.857   1.453  24.334  0.00  0.00    +0.051 C 
ATOM     14  C   UNL     1      10.344   2.597  23.470  0.00  0.00    +0.169 C 
ATOM     15  C   UNL     1      11.422   3.662  23.308  0.00  0.00    +0.051 C 
ENDBRANCH  12  14
ENDBRANCH  10  12
ENDBRANCH   8  10
ENDBRANCH   1   8
BRANCH   6  16
ATOM     16  C   UNL     1       6.400  -3.184  24.004  0.00  0.00    +0.341 C 
ATOM     17  O   UNL     1       5.494  -2.511  24.458  0.00  0.00    -0.245 OA
BRANCH  16  18
ATOM     18  O   UNL     1       6.368  -4.525  23.776  0.00  0.00    -0.458 OA
BRANCH  18  19
ATOM     19  C   UNL     1       5.882  -4.975  22.497  0.00  0.00    +0.171 C 
ATOM     20  C   UNL     1       4.582  -5.740  22.708  0.00  0.00    +0.052 C 
ATOM     21  C   UNL     1       6.952  -5.872  21.889  0.00  0.00    +0.052 C 
ENDBRANCH  18  19
ENDBRANCH  16  18
ENDBRANCH   6  16
TORSDOF 7
ENDMDL
MODEL 5
REMARK VINA RESULT:      -5.3      2.609      3.825
REMARK  Name = 
REMARK  11 active torsions:
REMARK  status: ('A' for Active; 'I' for Inactive)
REMARK    1  A    between atoms: C_1  and  C_2
REMARK    2  A    between atoms: C_2  and  C_3
REMARK    3  A    between atoms: C_2  and  O_4
REMARK    4  A    between atoms: O_4  and  C_5
REMARK    5  A    between atoms: C_5  and  N_7
REMARK    6  A    between atoms: N_7  and  C_8
REMARK    7  A    between atoms: C_10  and  C_11
REMARK    8  A    between atoms: C_11  and  O_13
REMARK    9  A    between atoms: O_13  and  C_14
REMARK   10  A    between atoms: C_14  and  C_15
REMARK   11  A    between atoms: C_14  and  C_16
REMARK                            x       y       z     vdW  Elec       q    Type
REMARK                         _______ _______ _______ _____ _____    ______ ____
ROOT
ATOM      1  C   UNL     1       6.476  -2.008  22.956  0.00  0.00    +0.035 A 
ATOM      2  C   UNL     1       5.817  -2.687  21.930  0.00  0.00    +0.025 A 
ATOM      3  C   UNL     1       6.084  -4.044  21.709  0.00  0.00    +0.022 A 
ATOM      4  C   UNL     1       6.992  -4.737  22.522  0.00  0.00    +0.055 A 
ATOM      5 CL   UNL     1       7.326  -6.376  22.098  0.00  0.00    -0.083 Cl
ATOM      6  C   UNL     1       7.608  -4.076  23.589  0.00  0.00    +0.079 A 
ATOM      7  C   UNL     1       7.310  -2.723  23.813  0.00  0.00    +0.039 A 
ENDROOT
BRANCH   1   8
ATOM      8  N   UNL     1       6.272  -0.621  23.079  0.00  0.00    -0.279 N 
ATOM      9  H   UNL     1       5.458  -0.218  22.627  0.00  0.00    +0.156 HD
BRANCH   8  10
ATOM     10  C   UNL     1       7.167   0.319  23.537  0.00  0.00    +0.233 C 
ATOM     11  S   UNL     1       6.846   1.210  24.903  0.00  0.00    +0.006 S 
BRANCH  10  12
ATOM     12  O   UNL     1       8.277   0.483  22.779  0.00  0.00    -0.471 OA
BRANCH  12  14
ATOM     13  C   UNL     1      10.445  -0.170  23.532  0.00  0.00    +0.051 C 
ATOM     14  C   UNL     1       9.543   1.020  23.237  0.00  0.00    +0.169 C 
ATOM     15  C   UNL     1      10.134   1.867  22.116  0.00  0.00    +0.051 C 
ENDBRANCH  12  14
ENDBRANCH  10  12
ENDBRANCH   8  10
ENDBRANCH   1   8
BRANCH   6  16
ATOM     16  C   UNL     1       8.559  -4.744  24.516  0.00  0.00    +0.341 C 
ATOM     17  O   UNL     1       9.746  -4.492  24.598  0.00  0.00    -0.245 OA
BRANCH  16  18
ATOM     18  O   UNL     1       7.883  -5.675  25.244  0.00  0.00    -0.458 OA
BRANCH  18  19
ATOM     19  C   UNL     1       6.809  -5.214  26.086  0.00  0.00    +0.171 C 
ATOM     20  C   UNL     1       7.220  -5.389  27.543  0.00  0.00    +0.052 C 
ATOM     21  C   UNL     1       5.579  -6.052  25.761  0.00  0.00    +0.052 C 
ENDBRANCH  18  19
ENDBRANCH  16  18
ENDBRANCH   6  16
TORSDOF 7
ENDMDL
MODEL 6
REMARK VINA RESULT:      -5.2      2.384      3.062
REMARK  Name = 
REMARK  11 active torsions:
REMARK  status: ('A' for Active; 'I' for Inactive)
REMARK    1  A    between atoms: C_1  and  C_2
REMARK    2  A    between atoms: C_2  and  C_3
REMARK    3  A    between atoms: C_2  and  O_4
REMARK    4  A    between atoms: O_4  and  C_5
REMARK    5  A    between atoms: C_5  and  N_7
REMARK    6  A    between atoms: N_7  and  C_8
REMARK    7  A    between atoms: C_10  and  C_11
REMARK    8  A    between atoms: C_11  and  O_13
REMARK    9  A    between atoms: O_13  and  C_14
REMARK   10  A    between atoms: C_14  and  C_15
REMARK   11  A    between atoms: C_14  and  C_16
REMARK                            x       y       z     vdW  Elec       q    Type
REMARK                         _______ _______ _______ _____ _____    ______ ____
ROOT
ATOM      1  C   UNL     1       8.828  -2.127  22.643  0.00  0.00    +0.035 A 
ATOM      2  C   UNL     1       9.610  -2.218  23.796  0.00  0.00    +0.025 A 
ATOM      3  C   UNL     1       9.429  -3.291  24.677  0.00  0.00    +0.022 A 
ATOM      4  C   UNL     1       8.483  -4.290  24.406  0.00  0.00    +0.055 A 
ATOM      5 CL   UNL     1       8.267  -5.508  25.608  0.00  0.00    -0.083 Cl
ATOM      6  C   UNL     1       7.742  -4.235  23.221  0.00  0.00    +0.079 A 
ATOM      7  C   UNL     1       7.954  -3.167  22.336  0.00  0.00    +0.039 A 
ENDROOT
BRANCH   1   8
ATOM      8  N   UNL     1       8.954  -0.979  21.838  0.00  0.00    -0.279 N 
ATOM      9  H   UNL     1       9.516  -1.049  20.996  0.00  0.00    +0.156 HD
BRANCH   8  10
ATOM     10  C   UNL     1       8.610   0.313  22.163  0.00  0.00    +0.233 C 
ATOM     11  S   UNL     1       9.733   1.538  22.102  0.00  0.00    +0.006 S 
BRANCH  10  12
ATOM     12  O   UNL     1       7.330   0.490  22.565  0.00  0.00    -0.471 OA
BRANCH  12  14
ATOM     13  C   UNL     1       5.953   1.987  23.814  0.00  0.00    +0.051 C 
ATOM     14  C   UNL     1       6.902   0.801  23.915  0.00  0.00    +0.169 C 
ATOM     15  C   UNL     1       6.171  -0.415  24.474  0.00  0.00    +0.051 C 
ENDBRANCH  12  14
ENDBRANCH  10  12
ENDBRANCH   8  10
ENDBRANCH   1   8
BRANCH   6  16
ATOM     16  C   UNL     1       6.742  -5.268  22.843  0.00  0.00    +0.341 C 
ATOM     17  O   UNL     1       6.964  -6.223  22.123  0.00  0.00    -0.245 OA
BRANCH  16  18
ATOM     18  O   UNL     1       5.552  -4.964  23.428  0.00  0.00    -0.458 OA
BRANCH  18  19
ATOM     19  C   UNL     1       4.612  -6.036  23.628  0.00  0.00    +0.171 C 
ATOM     20  C   UNL     1       3.207  -5.512  23.356  0.00  0.00    +0.052 C 
ATOM     21  C   UNL     1       4.749  -6.506  25.070  0.00  0.00    +0.052 C 
ENDBRANCH  18  19
ENDBRANCH  16  18
ENDBRANCH   6  16
TORSDOF 7
ENDMDL
MODEL 7
REMARK VINA RESULT:      -5.1      2.404      2.962
REMARK  Name = 
REMARK  11 active torsions:
REMARK  status: ('A' for Active; 'I' for Inactive)
REMARK    1  A    between atoms: C_1  and  C_2
REMARK    2  A    between atoms: C_2  and  C_3
REMARK    3  A    between atoms: C_2  and  O_4
REMARK    4  A    between atoms: O_4  and  C_5
REMARK    5  A    between atoms: C_5  and  N_7
REMARK    6  A    between atoms: N_7  and  C_8
REMARK    7  A    between atoms: C_10  and  C_11
REMARK    8  A    between atoms: C_11  and  O_13
REMARK    9  A    between atoms: O_13  and  C_14
REMARK   10  A    between atoms: C_14  and  C_15
REMARK   11  A    between atoms: C_14  and  C_16
REMARK                            x       y       z     vdW  Elec       q    Type
REMARK                         _______ _______ _______ _____ _____    ______ ____
ROOT
ATOM      1  C   UNL     1       8.954  -0.822  25.315  0.00  0.00    +0.035 A 
ATOM      2  C   UNL     1       9.731  -1.362  24.290  0.00  0.00    +0.025 A 
ATOM      3  C   UNL     1       9.716  -2.743  24.058  0.00  0.00    +0.022 A 
ATOM      4  C   UNL     1       8.911  -3.591  24.832  0.00  0.00    +0.055 A 
ATOM      5 CL   UNL     1       9.047  -5.285  24.532  0.00  0.00    -0.083 Cl
ATOM      6  C   UNL     1       8.084  -3.046  25.819  0.00  0.00    +0.079 A 
ATOM      7  C   UNL     1       8.091  -1.657  26.022  0.00  0.00    +0.039 A 
ENDROOT
BRANCH   1   8
ATOM      8  N   UNL     1       9.078   0.552  25.596  0.00  0.00    -0.279 N 
ATOM      9  H   UNL     1       9.422   0.821  26.512  0.00  0.00    +0.156 HD
BRANCH   8  10
ATOM     10  C   UNL     1       8.565   1.604  24.872  0.00  0.00    +0.233 C 
ATOM     11  S   UNL     1       6.951   1.664  24.479  0.00  0.00    +0.006 S 
BRANCH  10  12
ATOM     12  O   UNL     1       9.466   2.537  24.483  0.00  0.00    -0.471 OA
BRANCH  12  14
ATOM     13  C   UNL     1       9.976   1.816  22.266  0.00  0.00    +0.051 C 
ATOM     14  C   UNL     1      10.573   2.316  23.575  0.00  0.00    +0.169 C 
ATOM     15  C   UNL     1      11.284   3.647  23.358  0.00  0.00    +0.051 C 
ENDBRANCH  12  14
ENDBRANCH  10  12
ENDBRANCH   8  10
ENDBRANCH   1   8
BRANCH   6  16
ATOM     16  C   UNL     1       7.178  -3.869  26.662  0.00  0.00    +0.341 C 
ATOM     17  O   UNL     1       7.543  -4.685  27.488  0.00  0.00    -0.245 OA
BRANCH  16  18
ATOM     18  O   UNL     1       5.889  -3.562  26.353  0.00  0.00    -0.458 OA
BRANCH  18  19
ATOM     19  C   UNL     1       4.994  -4.651  26.057  0.00  0.00    +0.171 C 
ATOM     20  C   UNL     1       5.376  -5.245  24.707  0.00  0.00    +0.052 C 
ATOM     21  C   UNL     1       3.579  -4.089  26.026  0.00  0.00    +0.052 C 
ENDBRANCH  18  19
ENDBRANCH  16  18
ENDBRANCH   6  16
TORSDOF 7
ENDMDL
MODEL 8
REMARK VINA RESULT:      -5.1      3.078      6.637
REMARK  Name = 
REMARK  11 active torsions:
REMARK  status: ('A' for Active; 'I' for Inactive)
REMARK    1  A    between atoms: C_1  and  C_2
REMARK    2  A    between atoms: C_2  and  C_3
REMARK    3  A    between atoms: C_2  and  O_4
REMARK    4  A    between atoms: O_4  and  C_5
REMARK    5  A    between atoms: C_5  and  N_7
REMARK    6  A    between atoms: N_7  and  C_8
REMARK    7  A    between atoms: C_10  and  C_11
REMARK    8  A    between atoms: C_11  and  O_13
REMARK    9  A    between atoms: O_13  and  C_14
REMARK   10  A    between atoms: C_14  and  C_15
REMARK   11  A    between atoms: C_14  and  C_16
REMARK                            x       y       z     vdW  Elec       q    Type
REMARK                         _______ _______ _______ _____ _____    ______ ____
ROOT
ATOM      1  C   UNL     1       8.807  -1.682  24.610  0.00  0.00    +0.035 A 
ATOM      2  C   UNL     1       9.845  -1.851  23.692  0.00  0.00    +0.025 A 
ATOM      3  C   UNL     1      10.263  -0.769  22.908  0.00  0.00    +0.022 A 
ATOM      4  C   UNL     1       9.665   0.492  23.048  0.00  0.00    +0.055 A 
ATOM      5 CL   UNL     1      10.183   1.727  21.960  0.00  0.00    -0.083 Cl
ATOM      6  C   UNL     1       8.668   0.679  24.010  0.00  0.00    +0.079 A 
ATOM      7  C   UNL     1       8.278  -0.409  24.806  0.00  0.00    +0.039 A 
ENDROOT
BRANCH   1   8
ATOM      8  N   UNL     1       8.334  -2.815  25.300  0.00  0.00    -0.279 N 
ATOM      9  H   UNL     1       8.217  -2.744  26.305  0.00  0.00    +0.156 HD
BRANCH   8  10
ATOM     10  C   UNL     1       8.231  -4.102  24.824  0.00  0.00    +0.233 C 
ATOM     11  S   UNL     1       9.320  -5.272  25.282  0.00  0.00    +0.006 S 
BRANCH  10  12
ATOM     12  O   UNL     1       7.225  -4.319  23.945  0.00  0.00    -0.471 OA
BRANCH  12  14
ATOM     13  C   UNL     1       7.031  -5.677  21.993  0.00  0.00    +0.051 C 
ATOM     14  C   UNL     1       7.339  -4.275  22.501  0.00  0.00    +0.169 C 
ATOM     15  C   UNL     1       6.310  -3.283  21.972  0.00  0.00    +0.051 C 
ENDBRANCH  12  14
ENDBRANCH  10  12
ENDBRANCH   8  10
ENDBRANCH   1   8
BRANCH   6  16
ATOM     16  C   UNL     1       8.004   1.989  24.244  0.00  0.00    +0.341 C 
ATOM     17  O   UNL     1       8.189   2.702  25.212  0.00  0.00    -0.245 OA
BRANCH  16  18
ATOM     18  O   UNL     1       7.163   2.247  23.206  0.00  0.00    -0.458 OA
BRANCH  18  19
ATOM     19  C   UNL     1       6.459   3.504  23.212  0.00  0.00    +0.171 C 
ATOM     20  C   UNL     1       5.016   3.259  22.790  0.00  0.00    +0.052 C 
ATOM     21  C   UNL     1       7.166   4.431  22.231  0.00  0.00    +0.052 C 
ENDBRANCH  18  19
ENDBRANCH  16  18
ENDBRANCH   6  16
TORSDOF 7
ENDMDL
MODEL 9
REMARK VINA RESULT:      -5.0      2.838      5.818
REMARK  Name = 
REMARK  11 active torsions:
REMARK  status: ('A' for Active; 'I' for Inactive)
REMARK    1  A    between atoms: C_1  and  C_2
REMARK    2  A    between atoms: C_2  and  C_3
REMARK    3  A    between atoms: C_2  and  O_4
REMARK    4  A    between atoms: O_4  and  C_5
REMARK    5  A    between atoms: C_5  and  N_7
REMARK    6  A    between atoms: N_7  and  C_8
REMARK    7  A    between atoms: C_10  and  C_11
REMARK    8  A    between atoms: C_11  and  O_13
REMARK    9  A    between atoms: O_13  and  C_14
REMARK   10  A    between atoms: C_14  and  C_15
REMARK   11  A    between atoms: C_14  and  C_16
REMARK                            x       y       z     vdW  Elec       q    Type
REMARK                         _______ _______ _______ _____ _____    ______ ____
ROOT
ATOM      1  C   UNL     1       7.973  -1.734  26.041  0.00  0.00    +0.035 A 
ATOM      2  C   UNL     1       6.928  -1.000  26.604  0.00  0.00    +0.025 A 
ATOM      3  C   UNL     1       6.907   0.394  26.476  0.00  0.00    +0.022 A 
ATOM      4  C   UNL     1       7.916   1.064  25.769  0.00  0.00    +0.055 A 
ATOM      5 CL   UNL     1       7.852   2.788  25.763  0.00  0.00    -0.083 Cl
ATOM      6  C   UNL     1       8.932   0.327  25.151  0.00  0.00    +0.079 A 
ATOM      7  C   UNL     1       8.923  -1.072  25.267  0.00  0.00    +0.039 A 
ENDROOT
BRANCH   1   8
ATOM      8  N   UNL     1       8.025  -3.119  26.284  0.00  0.00    -0.279 N 
ATOM      9  H   UNL     1       8.099  -3.431  27.246  0.00  0.00    +0.156 HD
BRANCH   8  10
ATOM     10  C   UNL     1       8.232  -4.123  25.364  0.00  0.00    +0.233 C 
ATOM     11  S   UNL     1       9.543  -5.137  25.487  0.00  0.00    +0.006 S 
BRANCH  10  12
ATOM     12  O   UNL     1       7.329  -4.185  24.358  0.00  0.00    -0.471 OA
BRANCH  12  14
ATOM     13  C   UNL     1       7.102  -5.091  22.162  0.00  0.00    +0.051 C 
ATOM     14  C   UNL     1       7.595  -3.893  22.963  0.00  0.00    +0.169 C 
ATOM     15  C   UNL     1       6.812  -2.642  22.581  0.00  0.00    +0.051 C 
ENDBRANCH  12  14
ENDBRANCH  10  12
ENDBRANCH   8  10
ENDBRANCH   1   8
BRANCH   6  16
ATOM     16  C   UNL     1      10.021   0.956  24.359  0.00  0.00    +0.341 C 
ATOM     17  O   UNL     1      11.207   0.872  24.614  0.00  0.00    -0.245 OA
BRANCH  16  18
ATOM     18  O   UNL     1       9.470   1.634  23.316  0.00  0.00    -0.458 OA
BRANCH  18  19
ATOM     19  C   UNL     1       8.644   0.893  22.397  0.00  0.00    +0.171 C 
ATOM     20  C   UNL     1       9.544   0.087  21.470  0.00  0.00    +0.052 C 
ATOM     21  C   UNL     1       7.812   1.900  21.613  0.00  0.00    +0.052 C 
ENDBRANCH  18  19
ENDBRANCH  16  18
ENDBRANCH   6  16
TORSDOF 7
ENDMDL
