MODEL 1
REMARK VINA RESULT:      -7.5      0.000      0.000
REMARK  Name = 
REMARK  10 active torsions:
REMARK  status: ('A' for Active; 'I' for Inactive)
REMARK    1  A    between atoms: C_2  and  C_3
REMARK    2  A    between atoms: C_2  and  N_4
REMARK    3  A    between atoms: C_2  and  C_30
REMARK    4  A    between atoms: N_11  and  C_22
REMARK    5  A    between atoms: N_14  and  C_15
REMARK    6  A    between atoms: C_25  and  O_26
REMARK    7  A    between atoms: O_26  and  C_27
REMARK    8  A    between atoms: C_30  and  C_31
REMARK    9  A    between atoms: C_30  and  C_32
REMARK   10  A    between atoms: C_30  and  O_33
REMARK                            x       y       z     vdW  Elec       q    Type
REMARK                         _______ _______ _______ _____ _____    ______ ____
ROOT
ATOM      1  N   UNL     1       3.666  -6.102  22.313  0.00  0.00    -0.308 N 
ATOM      2  H   UNL     1       3.759  -6.969  21.794  0.00  0.00    +0.149 HD
ATOM      3  C   UNL     1       4.966  -5.766  22.644  0.00  0.00    +0.217 A 
ATOM      4  N   UNL     1       5.250  -4.887  23.603  0.00  0.00    -0.199 NA
ATOM      5  C   UNL     1       6.532  -4.473  23.717  0.00  0.00    +0.138 A 
ATOM      6  N   UNL     1       6.849  -3.540  24.744  0.00  0.00    -0.208 N 
ATOM      7  C   UNL     1       7.563  -2.353  24.498  0.00  0.00    +0.316 C 
ATOM      8  N   UNL     1       7.314  -1.779  23.260  0.00  0.00    -0.267 N 
ATOM      9  H   UNL     1       6.830  -2.330  22.564  0.00  0.00    +0.156 HD
ATOM     10  O   UNL     1       8.312  -1.841  25.331  0.00  0.00    -0.252 OA
ATOM     11  C   UNL     1       7.540  -4.960  22.911  0.00  0.00    +0.064 A 
ATOM     12  C   UNL     1       7.165  -5.940  22.029  0.00  0.00    +0.118 A 
ATOM     13  N   UNL     1       5.894  -6.350  21.877  0.00  0.00    -0.223 NA
ENDROOT
BRANCH   8  14
ATOM     14  C   UNL     1       7.702  -0.481  22.834  0.00  0.00    +0.053 A 
ATOM     15  C   UNL     1       8.986  -0.304  22.290  0.00  0.00    +0.062 A 
ATOM     16 CL   UNL     1      10.078  -1.639  22.137  0.00  0.00    -0.082 Cl
ATOM     17  C   UNL     1       9.425   0.960  21.878  0.00  0.00    +0.022 A 
ATOM     18  C   UNL     1       8.577   2.059  21.977  0.00  0.00    +0.002 A 
ATOM     19  C   UNL     1       7.287   1.890  22.472  0.00  0.00    +0.002 A 
ATOM     20  C   UNL     1       6.851   0.631  22.894  0.00  0.00    +0.025 A 
ENDBRANCH   8  14
BRANCH   6  21
ATOM     21  C   UNL     1       6.538  -3.939  26.094  0.00  0.00    +0.044 A 
ATOM     22  C   UNL     1       5.564  -3.283  26.867  0.00  0.00    +0.027 A 
ATOM     23  C   UNL     1       5.244  -3.719  28.161  0.00  0.00    +0.047 A 
ATOM     24  C   UNL     1       5.899  -4.815  28.714  0.00  0.00    +0.120 A 
ATOM     25  C   UNL     1       6.865  -5.476  27.967  0.00  0.00    +0.047 A 
ATOM     26  C   UNL     1       7.189  -5.038  26.678  0.00  0.00    +0.027 A 
BRANCH  24  27
ATOM     27  O   UNL     1       5.633  -5.366  29.937  0.00  0.00    -0.495 OA
ATOM     28  C   UNL     1       4.599  -6.341  29.965  0.00  0.00    +0.277 C 
ENDBRANCH  24  27
ENDBRANCH   6  21
BRANCH   1  29
ATOM     29  C   UNL     1       2.615  -6.049  23.340  0.00  0.00    +0.101 C 
ATOM     30  C   UNL     1       1.245  -6.095  22.638  0.00  0.00    +0.031 C 
BRANCH  29  31
ATOM     31  C   UNL     1       2.803  -7.284  24.308  0.00  0.00    +0.078 C 
ATOM     32  C   UNL     1       1.836  -8.434  23.995  0.00  0.00    +0.043 C 
ATOM     33  C   UNL     1       2.620  -6.897  25.783  0.00  0.00    +0.043 C 
BRANCH  31  34
ATOM     34  O   UNL     1       4.136  -7.803  24.175  0.00  0.00    -0.387 OA
ATOM     35  H   UNL     1       4.443  -8.007  25.079  0.00  0.00    +0.210 HD
ENDBRANCH  31  34
ENDBRANCH  29  31
ENDBRANCH   1  29
TORSDOF 6
ENDMDL
MODEL 2
REMARK VINA RESULT:      -6.5      4.390      6.670
REMARK  Name = 
REMARK  10 active torsions:
REMARK  status: ('A' for Active; 'I' for Inactive)
REMARK    1  A    between atoms: C_2  and  C_3
REMARK    2  A    between atoms: C_2  and  N_4
REMARK    3  A    between atoms: C_2  and  C_30
REMARK    4  A    between atoms: N_11  and  C_22
REMARK    5  A    between atoms: N_14  and  C_15
REMARK    6  A    between atoms: C_25  and  O_26
REMARK    7  A    between atoms: O_26  and  C_27
REMARK    8  A    between atoms: C_30  and  C_31
REMARK    9  A    between atoms: C_30  and  C_32
REMARK   10  A    between atoms: C_30  and  O_33
REMARK                            x       y       z     vdW  Elec       q    Type
REMARK                         _______ _______ _______ _____ _____    ______ ____
ROOT
ATOM      1  N   UNL     1       4.473   1.325  26.761  0.00  0.00    -0.308 N 
ATOM      2  H   UNL     1       3.483   1.486  26.609  0.00  0.00    +0.149 HD
ATOM      3  C   UNL     1       5.036   1.477  25.507  0.00  0.00    +0.217 A 
ATOM      4  N   UNL     1       6.252   1.021  25.215  0.00  0.00    -0.199 NA
ATOM      5  C   UNL     1       6.795   1.392  24.033  0.00  0.00    +0.138 A 
ATOM      6  N   UNL     1       8.092   0.904  23.706  0.00  0.00    -0.208 N 
ATOM      7  C   UNL     1       9.136   1.747  23.283  0.00  0.00    +0.316 C 
ATOM      8  N   UNL     1       9.129   3.007  23.863  0.00  0.00    -0.267 N 
ATOM      9  H   UNL     1       8.297   3.302  24.359  0.00  0.00    +0.156 HD
ATOM     10  O   UNL     1      10.012   1.381  22.499  0.00  0.00    -0.252 OA
ATOM     11  C   UNL     1       6.119   2.177  23.123  0.00  0.00    +0.064 A 
ATOM     12  C   UNL     1       4.834   2.504  23.470  0.00  0.00    +0.118 A 
ATOM     13  N   UNL     1       4.280   2.171  24.649  0.00  0.00    -0.223 NA
ENDROOT
BRANCH   8  14
ATOM     14  C   UNL     1      10.169   3.972  23.809  0.00  0.00    +0.053 A 
ATOM     15  C   UNL     1       9.910   5.271  24.281  0.00  0.00    +0.062 A 
ATOM     16 CL   UNL     1       8.356   5.691  24.921  0.00  0.00    -0.082 Cl
ATOM     17  C   UNL     1      10.894   6.265  24.228  0.00  0.00    +0.022 A 
ATOM     18  C   UNL     1      12.158   5.968  23.727  0.00  0.00    +0.002 A 
ATOM     19  C   UNL     1      12.442   4.675  23.298  0.00  0.00    +0.002 A 
ATOM     20  C   UNL     1      11.457   3.684  23.340  0.00  0.00    +0.025 A 
ENDBRANCH   8  14
BRANCH   6  21
ATOM     21  C   UNL     1       8.252  -0.528  23.678  0.00  0.00    +0.044 A 
ATOM     22  C   UNL     1       9.065  -1.213  24.598  0.00  0.00    +0.027 A 
ATOM     23  C   UNL     1       9.167  -2.612  24.582  0.00  0.00    +0.047 A 
ATOM     24  C   UNL     1       8.468  -3.355  23.637  0.00  0.00    +0.120 A 
ATOM     25  C   UNL     1       7.660  -2.698  22.718  0.00  0.00    +0.047 A 
ATOM     26  C   UNL     1       7.562  -1.301  22.730  0.00  0.00    +0.027 A 
BRANCH  24  27
ATOM     27  O   UNL     1       8.442  -4.720  23.559  0.00  0.00    -0.495 OA
ATOM     28  C   UNL     1       7.344  -5.280  22.852  0.00  0.00    +0.277 C 
ENDBRANCH  24  27
ENDBRANCH   6  21
BRANCH   1  29
ATOM     29  C   UNL     1       4.842   0.169  27.591  0.00  0.00    +0.101 C 
ATOM     30  C   UNL     1       4.816   0.601  29.068  0.00  0.00    +0.031 C 
BRANCH  29  31
ATOM     31  C   UNL     1       3.805  -0.991  27.317  0.00  0.00    +0.078 C 
ATOM     32  C   UNL     1       3.429  -1.763  28.589  0.00  0.00    +0.043 C 
ATOM     33  C   UNL     1       4.325  -2.002  26.284  0.00  0.00    +0.043 C 
BRANCH  31  34
ATOM     34  O   UNL     1       2.591  -0.437  26.783  0.00  0.00    -0.387 OA
ATOM     35  H   UNL     1       1.873  -0.719  27.382  0.00  0.00    +0.210 HD
ENDBRANCH  31  34
ENDBRANCH  29  31
ENDBRANCH   1  29
TORSDOF 6
ENDMDL
MODEL 3
REMARK VINA RESULT:      -6.5      3.739      8.768
REMARK  Name = 
REMARK  10 active torsions:
REMARK  status: ('A' for Active; 'I' for Inactive)
REMARK    1  A    between atoms: C_2  and  C_3
REMARK    2  A    between atoms: C_2  and  N_4
REMARK    3  A    between atoms: C_2  and  C_30
REMARK    4  A    between atoms: N_11  and  C_22
REMARK    5  A    between atoms: N_14  and  C_15
REMARK    6  A    between atoms: C_25  and  O_26
REMARK    7  A    between atoms: O_26  and  C_27
REMARK    8  A    between atoms: C_30  and  C_31
REMARK    9  A    between atoms: C_30  and  C_32
REMARK   10  A    between atoms: C_30  and  O_33
REMARK                            x       y       z     vdW  Elec       q    Type
REMARK                         _______ _______ _______ _____ _____    ______ ____
ROOT
ATOM      1  N   UNL     1       3.713   3.097  23.825  0.00  0.00    -0.308 N 
ATOM      2  H   UNL     1       3.179   3.539  24.567  0.00  0.00    +0.149 HD
ATOM      3  C   UNL     1       4.521   2.190  24.486  0.00  0.00    +0.217 A 
ATOM      4  N   UNL     1       5.600   1.655  23.917  0.00  0.00    -0.199 NA
ATOM      5  C   UNL     1       6.208   0.633  24.562  0.00  0.00    +0.138 A 
ATOM      6  N   UNL     1       7.367   0.059  23.968  0.00  0.00    -0.208 N 
ATOM      7  C   UNL     1       7.513  -1.327  23.773  0.00  0.00    +0.316 C 
ATOM      8  N   UNL     1       6.332  -1.995  23.485  0.00  0.00    -0.267 N 
ATOM      9  H   UNL     1       5.457  -1.510  23.639  0.00  0.00    +0.156 HD
ATOM     10  O   UNL     1       8.606  -1.894  23.808  0.00  0.00    -0.252 OA
ATOM     11  C   UNL     1       5.777   0.170  25.787  0.00  0.00    +0.064 A 
ATOM     12  C   UNL     1       4.726   0.858  26.338  0.00  0.00    +0.118 A 
ATOM     13  N   UNL     1       4.088   1.859  25.707  0.00  0.00    -0.223 NA
ENDROOT
BRANCH   8  14
ATOM     14  C   UNL     1       6.203  -3.330  23.019  0.00  0.00    +0.053 A 
ATOM     15  C   UNL     1       6.051  -4.363  23.961  0.00  0.00    +0.062 A 
ATOM     16 CL   UNL     1       6.015  -4.019  25.658  0.00  0.00    -0.082 Cl
ATOM     17  C   UNL     1       5.945  -5.697  23.554  0.00  0.00    +0.022 A 
ATOM     18  C   UNL     1       5.963  -6.017  22.199  0.00  0.00    +0.002 A 
ATOM     19  C   UNL     1       6.068  -5.001  21.254  0.00  0.00    +0.002 A 
ATOM     20  C   UNL     1       6.185  -3.668  21.659  0.00  0.00    +0.025 A 
ENDBRANCH   8  14
BRANCH   6  21
ATOM     21  C   UNL     1       8.468   0.953  23.708  0.00  0.00    +0.044 A 
ATOM     22  C   UNL     1       9.155   0.965  22.481  0.00  0.00    +0.027 A 
ATOM     23  C   UNL     1      10.191   1.877  22.235  0.00  0.00    +0.047 A 
ATOM     24  C   UNL     1      10.571   2.790  23.213  0.00  0.00    +0.120 A 
ATOM     25  C   UNL     1       9.905   2.793  24.433  0.00  0.00    +0.047 A 
ATOM     26  C   UNL     1       8.874   1.879  24.682  0.00  0.00    +0.027 A 
BRANCH  24  27
ATOM     27  O   UNL     1      11.522   3.761  23.069  0.00  0.00    -0.495 OA
ATOM     28  C   UNL     1      11.250   4.995  23.719  0.00  0.00    +0.277 C 
ENDBRANCH  24  27
ENDBRANCH   6  21
BRANCH   1  29
ATOM     29  C   UNL     1       4.292   3.980  22.802  0.00  0.00    +0.101 C 
ATOM     30  C   UNL     1       3.159   4.462  21.878  0.00  0.00    +0.031 C 
BRANCH  29  31
ATOM     31  C   UNL     1       4.989   5.195  23.532  0.00  0.00    +0.078 C 
ATOM     32  C   UNL     1       4.222   5.658  24.778  0.00  0.00    +0.043 C 
ATOM     33  C   UNL     1       5.162   6.407  22.604  0.00  0.00    +0.043 C 
BRANCH  31  34
ATOM     34  O   UNL     1       6.304   4.809  23.963  0.00  0.00    -0.387 OA
ATOM     35  H   UNL     1       6.377   5.077  24.899  0.00  0.00    +0.210 HD
ENDBRANCH  31  34
ENDBRANCH  29  31
ENDBRANCH   1  29
TORSDOF 6
ENDMDL
MODEL 4
REMARK VINA RESULT:      -6.3      4.188      8.830
REMARK  Name = 
REMARK  10 active torsions:
REMARK  status: ('A' for Active; 'I' for Inactive)
REMARK    1  A    between atoms: C_2  and  C_3
REMARK    2  A    between atoms: C_2  and  N_4
REMARK    3  A    between atoms: C_2  and  C_30
REMARK    4  A    between atoms: N_11  and  C_22
REMARK    5  A    between atoms: N_14  and  C_15
REMARK    6  A    between atoms: C_25  and  O_26
REMARK    7  A    between atoms: O_26  and  C_27
REMARK    8  A    between atoms: C_30  and  C_31
REMARK    9  A    between atoms: C_30  and  C_32
REMARK   10  A    between atoms: C_30  and  O_33
REMARK                            x       y       z     vdW  Elec       q    Type
REMARK                         _______ _______ _______ _____ _____    ______ ____
ROOT
ATOM      1  N   UNL     1       9.056   3.912  22.793  0.00  0.00    -0.308 N 
ATOM      2  H   UNL     1       8.778   4.735  22.268  0.00  0.00    +0.149 HD
ATOM      3  C   UNL     1       7.869   3.238  23.016  0.00  0.00    +0.217 A 
ATOM      4  N   UNL     1       7.755   2.294  23.948  0.00  0.00    -0.199 NA
ATOM      5  C   UNL     1       6.622   1.554  23.957  0.00  0.00    +0.138 A 
ATOM      6  N   UNL     1       6.484   0.547  24.954  0.00  0.00    -0.208 N 
ATOM      7  C   UNL     1       6.132  -0.780  24.649  0.00  0.00    +0.316 C 
ATOM      8  N   UNL     1       6.620  -1.240  23.435  0.00  0.00    -0.267 N 
ATOM      9  H   UNL     1       6.993  -0.565  22.781  0.00  0.00    +0.156 HD
ATOM     10  O   UNL     1       5.483  -1.491  25.417  0.00  0.00    -0.252 OA
ATOM     11  C   UNL     1       5.588   1.776  23.072  0.00  0.00    +0.064 A 
ATOM     12  C   UNL     1       5.758   2.840  22.225  0.00  0.00    +0.118 A 
ATOM     13  N   UNL     1       6.883   3.573  22.178  0.00  0.00    -0.223 NA
ENDROOT
BRANCH   8  14
ATOM     14  C   UNL     1       6.624  -2.584  22.976  0.00  0.00    +0.053 A 
ATOM     15  C   UNL     1       7.608  -3.461  23.465  0.00  0.00    +0.062 A 
ATOM     16 CL   UNL     1       8.793  -2.921  24.607  0.00  0.00    -0.082 Cl
ATOM     17  C   UNL     1       7.671  -4.789  23.025  0.00  0.00    +0.022 A 
ATOM     18  C   UNL     1       6.735  -5.266  22.113  0.00  0.00    +0.002 A 
ATOM     19  C   UNL     1       5.727  -4.421  21.655  0.00  0.00    +0.002 A 
ATOM     20  C   UNL     1       5.671  -3.092  22.084  0.00  0.00    +0.025 A 
ENDBRANCH   8  14
BRANCH   6  21
ATOM     21  C   UNL     1       6.573   0.983  26.325  0.00  0.00    +0.044 A 
ATOM     22  C   UNL     1       7.481   0.419  27.237  0.00  0.00    +0.027 A 
ATOM     23  C   UNL     1       7.582   0.893  28.554  0.00  0.00    +0.047 A 
ATOM     24  C   UNL     1       6.770   1.934  28.989  0.00  0.00    +0.120 A 
ATOM     25  C   UNL     1       5.864   2.505  28.103  0.00  0.00    +0.047 A 
ATOM     26  C   UNL     1       5.759   2.029  26.791  0.00  0.00    +0.027 A 
BRANCH  24  27
ATOM     27  O   UNL     1       6.818   2.517  30.225  0.00  0.00    -0.495 OA
ATOM     28  C   UNL     1       7.102   3.909  30.242  0.00  0.00    +0.277 C 
ENDBRANCH  24  27
ENDBRANCH   6  21
BRANCH   1  29
ATOM     29  C   UNL     1      10.000   4.115  23.902  0.00  0.00    +0.101 C 
ATOM     30  C   UNL     1      11.305   3.368  23.573  0.00  0.00    +0.031 C 
BRANCH  29  31
ATOM     31  C   UNL     1      10.255   5.666  24.060  0.00  0.00    +0.078 C 
ATOM     32  C   UNL     1      11.748   6.022  24.089  0.00  0.00    +0.043 C 
ATOM     33  C   UNL     1       9.607   6.233  25.333  0.00  0.00    +0.043 C 
BRANCH  31  34
ATOM     34  O   UNL     1       9.674   6.367  22.949  0.00  0.00    -0.387 OA
ATOM     35  H   UNL     1       8.825   6.733  23.266  0.00  0.00    +0.210 HD
ENDBRANCH  31  34
ENDBRANCH  29  31
ENDBRANCH   1  29
TORSDOF 6
ENDMDL
MODEL 5
REMARK VINA RESULT:      -6.3      4.296      8.497
REMARK  Name = 
REMARK  10 active torsions:
REMARK  status: ('A' for Active; 'I' for Inactive)
REMARK    1  A    between atoms: C_2  and  C_3
REMARK    2  A    between atoms: C_2  and  N_4
REMARK    3  A    between atoms: C_2  and  C_30
REMARK    4  A    between atoms: N_11  and  C_22
REMARK    5  A    between atoms: N_14  and  C_15
REMARK    6  A    between atoms: C_25  and  O_26
REMARK    7  A    between atoms: O_26  and  C_27
REMARK    8  A    between atoms: C_30  and  C_31
REMARK    9  A    between atoms: C_30  and  C_32
REMARK   10  A    between atoms: C_30  and  O_33
REMARK                            x       y       z     vdW  Elec       q    Type
REMARK                         _______ _______ _______ _____ _____    ______ ____
ROOT
ATOM      1  N   UNL     1       5.687   0.875  28.223  0.00  0.00    -0.308 N 
ATOM      2  H   UNL     1       6.109   0.991  29.138  0.00  0.00    +0.149 HD
ATOM      3  C   UNL     1       6.745   0.519  27.407  0.00  0.00    +0.217 A 
ATOM      4  N   UNL     1       6.676   0.604  26.080  0.00  0.00    -0.199 NA
ATOM      5  C   UNL     1       7.678   0.046  25.362  0.00  0.00    +0.138 A 
ATOM      6  N   UNL     1       7.621   0.138  23.943  0.00  0.00    -0.208 N 
ATOM      7  C   UNL     1       7.773  -0.980  23.103  0.00  0.00    +0.316 C 
ATOM      8  N   UNL     1       7.264  -2.162  23.620  0.00  0.00    -0.267 N 
ATOM      9  H   UNL     1       7.025  -2.191  24.603  0.00  0.00    +0.156 HD
ATOM     10  O   UNL     1       8.275  -0.907  21.980  0.00  0.00    -0.252 OA
ATOM     11  C   UNL     1       8.767  -0.557  25.957  0.00  0.00    +0.064 A 
ATOM     12  C   UNL     1       8.796  -0.496  27.326  0.00  0.00    +0.118 A 
ATOM     13  N   UNL     1       7.801   0.028  28.063  0.00  0.00    -0.223 NA
ENDROOT
BRANCH   8  14
ATOM     14  C   UNL     1       7.067  -3.380  22.918  0.00  0.00    +0.053 A 
ATOM     15  C   UNL     1       7.798  -4.514  23.315  0.00  0.00    +0.062 A 
ATOM     16 CL   UNL     1       8.914  -4.434  24.636  0.00  0.00    -0.082 Cl
ATOM     17  C   UNL     1       7.658  -5.732  22.640  0.00  0.00    +0.022 A 
ATOM     18  C   UNL     1       6.766  -5.842  21.577  0.00  0.00    +0.002 A 
ATOM     19  C   UNL     1       6.004  -4.740  21.202  0.00  0.00    +0.002 A 
ATOM     20  C   UNL     1       6.151  -3.519  21.868  0.00  0.00    +0.025 A 
ENDBRANCH   8  14
BRANCH   6  21
ATOM     21  C   UNL     1       7.551   1.466  23.386  0.00  0.00    +0.044 A 
ATOM     22  C   UNL     1       6.484   1.887  22.574  0.00  0.00    +0.027 A 
ATOM     23  C   UNL     1       6.414   3.200  22.083  0.00  0.00    +0.047 A 
ATOM     24  C   UNL     1       7.416   4.116  22.386  0.00  0.00    +0.120 A 
ATOM     25  C   UNL     1       8.479   3.719  23.186  0.00  0.00    +0.047 A 
ATOM     26  C   UNL     1       8.553   2.409  23.672  0.00  0.00    +0.027 A 
BRANCH  24  27
ATOM     27  O   UNL     1       7.427   5.432  22.016  0.00  0.00    -0.495 OA
ATOM     28  C   UNL     1       8.234   6.291  22.810  0.00  0.00    +0.277 C 
ENDBRANCH  24  27
ENDBRANCH   6  21
BRANCH   1  29
ATOM     29  C   UNL     1       4.746   1.917  27.786  0.00  0.00    +0.101 C 
ATOM     30  C   UNL     1       3.405   1.698  28.510  0.00  0.00    +0.031 C 
BRANCH  29  31
ATOM     31  C   UNL     1       5.364   3.326  28.142  0.00  0.00    +0.078 C 
ATOM     32  C   UNL     1       6.099   3.327  29.489  0.00  0.00    +0.043 C 
ATOM     33  C   UNL     1       4.300   4.433  28.181  0.00  0.00    +0.043 C 
BRANCH  31  34
ATOM     34  O   UNL     1       6.320   3.702  27.137  0.00  0.00    -0.387 OA
ATOM     35  H   UNL     1       6.879   4.397  27.535  0.00  0.00    +0.210 HD
ENDBRANCH  31  34
ENDBRANCH  29  31
ENDBRANCH   1  29
TORSDOF 6
ENDMDL
MODEL 6
REMARK VINA RESULT:      -6.2      3.510      5.222
REMARK  Name = 
REMARK  10 active torsions:
REMARK  status: ('A' for Active; 'I' for Inactive)
REMARK    1  A    between atoms: C_2  and  C_3
REMARK    2  A    between atoms: C_2  and  N_4
REMARK    3  A    between atoms: C_2  and  C_30
REMARK    4  A    between atoms: N_11  and  C_22
REMARK    5  A    between atoms: N_14  and  C_15
REMARK    6  A    between atoms: C_25  and  O_26
REMARK    7  A    between atoms: O_26  and  C_27
REMARK    8  A    between atoms: C_30  and  C_31
REMARK    9  A    between atoms: C_30  and  C_32
REMARK   10  A    between atoms: C_30  and  O_33
REMARK                            x       y       z     vdW  Elec       q    Type
REMARK                         _______ _______ _______ _____ _____    ______ ____
ROOT
ATOM      1  N   UNL     1       8.119  -2.665  22.885  0.00  0.00    -0.308 N 
ATOM      2  H   UNL     1       8.937  -3.264  22.867  0.00  0.00    +0.149 HD
ATOM      3  C   UNL     1       8.487  -1.617  23.710  0.00  0.00    +0.217 A 
ATOM      4  N   UNL     1       7.592  -0.797  24.258  0.00  0.00    -0.199 NA
ATOM      5  C   UNL     1       8.054   0.311  24.880  0.00  0.00    +0.138 A 
ATOM      6  N   UNL     1       7.107   1.190  25.478  0.00  0.00    -0.208 N 
ATOM      7  C   UNL     1       7.098   2.576  25.233  0.00  0.00    +0.316 C 
ATOM      8  N   UNL     1       7.483   2.936  23.950  0.00  0.00    -0.267 N 
ATOM      9  H   UNL     1       7.930   2.237  23.369  0.00  0.00    +0.156 HD
ATOM     10  O   UNL     1       6.733   3.399  26.073  0.00  0.00    -0.252 OA
ATOM     11  C   UNL     1       9.400   0.586  24.997  0.00  0.00    +0.064 A 
ATOM     12  C   UNL     1      10.241  -0.373  24.495  0.00  0.00    +0.118 A 
ATOM     13  N   UNL     1       9.809  -1.469  23.849  0.00  0.00    -0.223 NA
ENDROOT
BRANCH   8  14
ATOM     14  C   UNL     1       7.349   4.216  23.351  0.00  0.00    +0.053 A 
ATOM     15  C   UNL     1       8.462   5.076  23.339  0.00  0.00    +0.062 A 
ATOM     16 CL   UNL     1       9.970   4.586  24.034  0.00  0.00    -0.082 Cl
ATOM     17  C   UNL     1       8.374   6.357  22.784  0.00  0.00    +0.022 A 
ATOM     18  C   UNL     1       7.183   6.789  22.208  0.00  0.00    +0.002 A 
ATOM     19  C   UNL     1       6.086   5.932  22.173  0.00  0.00    +0.002 A 
ATOM     20  C   UNL     1       6.168   4.656  22.738  0.00  0.00    +0.025 A 
ENDBRANCH   8  14
BRANCH   6  21
ATOM     21  C   UNL     1       6.241   0.619  26.478  0.00  0.00    +0.044 A 
ATOM     22  C   UNL     1       6.615   0.517  27.829  0.00  0.00    +0.027 A 
ATOM     23  C   UNL     1       5.736   0.001  28.793  0.00  0.00    +0.047 A 
ATOM     24  C   UNL     1       4.467  -0.433  28.424  0.00  0.00    +0.120 A 
ATOM     25  C   UNL     1       4.078  -0.341  27.094  0.00  0.00    +0.047 A 
ATOM     26  C   UNL     1       4.957   0.168  26.130  0.00  0.00    +0.027 A 
BRANCH  24  27
ATOM     27  O   UNL     1       3.506  -0.897  29.279  0.00  0.00    -0.495 OA
ATOM     28  C   UNL     1       3.726  -2.197  29.810  0.00  0.00    +0.277 C 
ENDBRANCH  24  27
ENDBRANCH   6  21
BRANCH   1  29
ATOM     29  C   UNL     1       6.816  -3.319  23.074  0.00  0.00    +0.101 C 
ATOM     30  C   UNL     1       5.935  -3.013  21.849  0.00  0.00    +0.031 C 
BRANCH  29  31
ATOM     31  C   UNL     1       7.057  -4.872  23.229  0.00  0.00    +0.078 C 
ATOM     32  C   UNL     1       6.957  -5.624  21.895  0.00  0.00    +0.043 C 
ATOM     33  C   UNL     1       6.070  -5.517  24.213  0.00  0.00    +0.043 C 
BRANCH  31  34
ATOM     34  O   UNL     1       8.376  -5.106  23.749  0.00  0.00    -0.387 OA
ATOM     35  H   UNL     1       8.277  -5.760  24.468  0.00  0.00    +0.210 HD
ENDBRANCH  31  34
ENDBRANCH  29  31
ENDBRANCH   1  29
TORSDOF 6
ENDMDL
MODEL 7
REMARK VINA RESULT:      -5.9      4.340      9.088
REMARK  Name = 
REMARK  10 active torsions:
REMARK  status: ('A' for Active; 'I' for Inactive)
REMARK    1  A    between atoms: C_2  and  C_3
REMARK    2  A    between atoms: C_2  and  N_4
REMARK    3  A    between atoms: C_2  and  C_30
REMARK    4  A    between atoms: N_11  and  C_22
REMARK    5  A    between atoms: N_14  and  C_15
REMARK    6  A    between atoms: C_25  and  O_26
REMARK    7  A    between atoms: O_26  and  C_27
REMARK    8  A    between atoms: C_30  and  C_31
REMARK    9  A    between atoms: C_30  and  C_32
REMARK   10  A    between atoms: C_30  and  O_33
REMARK                            x       y       z     vdW  Elec       q    Type
REMARK                         _______ _______ _______ _____ _____    ______ ____
ROOT
ATOM      1  N   UNL     1       9.783   3.818  22.944  0.00  0.00    -0.308 N 
ATOM      2  H   UNL     1       9.651   4.288  22.055  0.00  0.00    +0.149 HD
ATOM      3  C   UNL     1       8.680   2.991  23.055  0.00  0.00    +0.217 A 
ATOM      4  N   UNL     1       8.305   2.461  24.218  0.00  0.00    -0.199 NA
ATOM      5  C   UNL     1       7.343   1.510  24.194  0.00  0.00    +0.138 A 
ATOM      6  N   UNL     1       6.927   0.943  25.431  0.00  0.00    -0.208 N 
ATOM      7  C   UNL     1       6.862  -0.446  25.646  0.00  0.00    +0.316 C 
ATOM      8  N   UNL     1       7.833  -1.178  24.979  0.00  0.00    -0.267 N 
ATOM      9  H   UNL     1       8.363  -0.719  24.249  0.00  0.00    +0.156 HD
ATOM     10  O   UNL     1       6.039  -0.966  26.400  0.00  0.00    -0.252 OA
ATOM     11  C   UNL     1       6.724   1.114  23.027  0.00  0.00    +0.064 A 
ATOM     12  C   UNL     1       7.105   1.796  21.900  0.00  0.00    +0.118 A 
ATOM     13  N   UNL     1       8.076   2.726  21.892  0.00  0.00    -0.223 NA
ENDROOT
BRANCH   8  14
ATOM     14  C   UNL     1       8.156  -2.545  25.183  0.00  0.00    +0.053 A 
ATOM     15  C   UNL     1       8.026  -3.439  24.105  0.00  0.00    +0.062 A 
ATOM     16 CL   UNL     1       7.488  -2.888  22.554  0.00  0.00    -0.082 Cl
ATOM     17  C   UNL     1       8.307  -4.801  24.262  0.00  0.00    +0.022 A 
ATOM     18  C   UNL     1       8.749  -5.285  25.490  0.00  0.00    +0.002 A 
ATOM     19  C   UNL     1       8.925  -4.404  26.554  0.00  0.00    +0.002 A 
ATOM     20  C   UNL     1       8.633  -3.046  26.402  0.00  0.00    +0.025 A 
ENDBRANCH   8  14
BRANCH   6  21
ATOM     21  C   UNL     1       6.423   1.860  26.422  0.00  0.00    +0.044 A 
ATOM     22  C   UNL     1       5.230   2.581  26.242  0.00  0.00    +0.027 A 
ATOM     23  C   UNL     1       4.733   3.432  27.241  0.00  0.00    +0.047 A 
ATOM     24  C   UNL     1       5.426   3.587  28.438  0.00  0.00    +0.120 A 
ATOM     25  C   UNL     1       6.608   2.884  28.634  0.00  0.00    +0.047 A 
ATOM     26  C   UNL     1       7.106   2.040  27.636  0.00  0.00    +0.027 A 
BRANCH  24  27
ATOM     27  O   UNL     1       5.013   4.339  29.503  0.00  0.00    -0.495 OA
ATOM     28  C   UNL     1       5.654   5.598  29.657  0.00  0.00    +0.277 C 
ENDBRANCH  24  27
ENDBRANCH   6  21
BRANCH   1  29
ATOM     29  C   UNL     1      10.187   4.652  24.086  0.00  0.00    +0.101 C 
ATOM     30  C   UNL     1      11.586   5.226  23.798  0.00  0.00    +0.031 C 
BRANCH  29  31
ATOM     31  C   UNL     1       9.121   5.805  24.261  0.00  0.00    +0.078 C 
ATOM     32  C   UNL     1       8.594   6.333  22.920  0.00  0.00    +0.043 C 
ATOM     33  C   UNL     1       9.681   6.997  25.052  0.00  0.00    +0.043 C 
BRANCH  31  34
ATOM     34  O   UNL     1       7.991   5.310  24.996  0.00  0.00    -0.387 OA
ATOM     35  H   UNL     1       7.437   6.087  25.206  0.00  0.00    +0.210 HD
ENDBRANCH  31  34
ENDBRANCH  29  31
ENDBRANCH   1  29
TORSDOF 6
ENDMDL
MODEL 8
REMARK VINA RESULT:      -5.8      2.696      3.625
REMARK  Name = 
REMARK  10 active torsions:
REMARK  status: ('A' for Active; 'I' for Inactive)
REMARK    1  A    between atoms: C_2  and  C_3
REMARK    2  A    between atoms: C_2  and  N_4
REMARK    3  A    between atoms: C_2  and  C_30
REMARK    4  A    between atoms: N_11  and  C_22
REMARK    5  A    between atoms: N_14  and  C_15
REMARK    6  A    between atoms: C_25  and  O_26
REMARK    7  A    between atoms: O_26  and  C_27
REMARK    8  A    between atoms: C_30  and  C_31
REMARK    9  A    between atoms: C_30  and  C_32
REMARK   10  A    between atoms: C_30  and  O_33
REMARK                            x       y       z     vdW  Elec       q    Type
REMARK                         _______ _______ _______ _____ _____    ______ ____
ROOT
ATOM      1  N   UNL     1       5.040  -6.185  24.767  0.00  0.00    -0.308 N 
ATOM      2  H   UNL     1       5.264  -7.134  25.049  0.00  0.00    +0.149 HD
ATOM      3  C   UNL     1       5.786  -5.394  25.622  0.00  0.00    +0.217 A 
ATOM      4  N   UNL     1       5.522  -4.102  25.804  0.00  0.00    -0.199 NA
ATOM      5  C   UNL     1       6.423  -3.368  26.497  0.00  0.00    +0.138 A 
ATOM      6  N   UNL     1       6.148  -1.987  26.705  0.00  0.00    -0.208 N 
ATOM      7  C   UNL     1       7.080  -0.975  26.412  0.00  0.00    +0.316 C 
ATOM      8  N   UNL     1       7.889  -1.237  25.317  0.00  0.00    -0.267 N 
ATOM      9  H   UNL     1       7.908  -2.180  24.950  0.00  0.00    +0.156 HD
ATOM     10  O   UNL     1       7.140   0.079  27.046  0.00  0.00    -0.252 OA
ATOM     11  C   UNL     1       7.561  -3.921  27.045  0.00  0.00    +0.064 A 
ATOM     12  C   UNL     1       7.686  -5.278  26.895  0.00  0.00    +0.118 A 
ATOM     13  N   UNL     1       6.820  -6.025  26.189  0.00  0.00    -0.223 NA
ENDROOT
BRANCH   8  14
ATOM     14  C   UNL     1       8.745  -0.319  24.655  0.00  0.00    +0.053 A 
ATOM     15  C   UNL     1       8.262   0.357  23.520  0.00  0.00    +0.062 A 
ATOM     16 CL   UNL     1       6.653   0.082  22.940  0.00  0.00    -0.082 Cl
ATOM     17  C   UNL     1       9.074   1.254  22.817  0.00  0.00    +0.022 A 
ATOM     18  C   UNL     1      10.371   1.509  23.252  0.00  0.00    +0.002 A 
ATOM     19  C   UNL     1      10.848   0.881  24.400  0.00  0.00    +0.002 A 
ATOM     20  C   UNL     1      10.042  -0.024  25.097  0.00  0.00    +0.025 A 
ENDBRANCH   8  14
BRANCH   6  21
ATOM     21  C   UNL     1       4.914  -1.672  27.382  0.00  0.00    +0.044 A 
ATOM     22  C   UNL     1       4.584  -2.214  28.636  0.00  0.00    +0.027 A 
ATOM     23  C   UNL     1       3.399  -1.855  29.297  0.00  0.00    +0.047 A 
ATOM     24  C   UNL     1       2.515  -0.955  28.712  0.00  0.00    +0.120 A 
ATOM     25  C   UNL     1       2.823  -0.409  27.472  0.00  0.00    +0.047 A 
ATOM     26  C   UNL     1       4.001  -0.771  26.810  0.00  0.00    +0.027 A 
BRANCH  24  27
ATOM     27  O   UNL     1       1.364  -0.486  29.283  0.00  0.00    -0.495 OA
ATOM     28  C   UNL     1       1.302   0.919  29.486  0.00  0.00    +0.277 C 
ENDBRANCH  24  27
ENDBRANCH   6  21
BRANCH   1  29
ATOM     29  C   UNL     1       3.621  -5.875  24.537  0.00  0.00    +0.101 C 
ATOM     30  C   UNL     1       3.356  -5.904  23.021  0.00  0.00    +0.031 C 
BRANCH  29  31
ATOM     31  C   UNL     1       2.748  -6.954  25.291  0.00  0.00    +0.078 C 
ATOM     32  C   UNL     1       1.360  -7.139  24.661  0.00  0.00    +0.043 C 
ATOM     33  C   UNL     1       2.554  -6.609  26.775  0.00  0.00    +0.043 C 
BRANCH  31  34
ATOM     34  O   UNL     1       3.408  -8.229  25.242  0.00  0.00    -0.387 OA
ATOM     35  H   UNL     1       2.731  -8.899  25.457  0.00  0.00    +0.210 HD
ENDBRANCH  31  34
ENDBRANCH  29  31
ENDBRANCH   1  29
TORSDOF 6
ENDMDL
MODEL 9
REMARK VINA RESULT:      -5.8      3.634      8.459
REMARK  Name = 
REMARK  10 active torsions:
REMARK  status: ('A' for Active; 'I' for Inactive)
REMARK    1  A    between atoms: C_2  and  C_3
REMARK    2  A    between atoms: C_2  and  N_4
REMARK    3  A    between atoms: C_2  and  C_30
REMARK    4  A    between atoms: N_11  and  C_22
REMARK    5  A    between atoms: N_14  and  C_15
REMARK    6  A    between atoms: C_25  and  O_26
REMARK    7  A    between atoms: O_26  and  C_27
REMARK    8  A    between atoms: C_30  and  C_31
REMARK    9  A    between atoms: C_30  and  C_32
REMARK   10  A    between atoms: C_30  and  O_33
REMARK                            x       y       z     vdW  Elec       q    Type
REMARK                         _______ _______ _______ _____ _____    ______ ____
ROOT
ATOM      1  N   UNL     1       3.486   2.382  25.810  0.00  0.00    -0.308 N 
ATOM      2  H   UNL     1       3.249   2.916  26.639  0.00  0.00    +0.149 HD
ATOM      3  C   UNL     1       4.438   1.481  26.250  0.00  0.00    +0.217 A 
ATOM      4  N   UNL     1       5.243   0.832  25.411  0.00  0.00    -0.199 NA
ATOM      5  C   UNL     1       5.998  -0.172  25.914  0.00  0.00    +0.138 A 
ATOM      6  N   UNL     1       6.869  -0.867  25.028  0.00  0.00    -0.208 N 
ATOM      7  C   UNL     1       6.893  -2.271  24.933  0.00  0.00    +0.316 C 
ATOM      8  N   UNL     1       5.661  -2.881  25.121  0.00  0.00    -0.267 N 
ATOM      9  H   UNL     1       4.906  -2.329  25.508  0.00  0.00    +0.156 HD
ATOM     10  O   UNL     1       7.913  -2.903  24.660  0.00  0.00    -0.252 OA
ATOM     11  C   UNL     1       5.988  -0.505  27.252  0.00  0.00    +0.064 A 
ATOM     12  C   UNL     1       5.208   0.292  28.050  0.00  0.00    +0.118 A 
ATOM     13  N   UNL     1       4.430   1.278  27.572  0.00  0.00    -0.223 NA
ENDROOT
BRANCH   8  14
ATOM     14  C   UNL     1       5.338  -4.238  24.857  0.00  0.00    +0.053 A 
ATOM     15  C   UNL     1       5.137  -4.638  23.524  0.00  0.00    +0.062 A 
ATOM     16 CL   UNL     1       5.285  -3.504  22.224  0.00  0.00    -0.082 Cl
ATOM     17  C   UNL     1       4.792  -5.958  23.213  0.00  0.00    +0.022 A 
ATOM     18  C   UNL     1       4.669  -6.904  24.227  0.00  0.00    +0.002 A 
ATOM     19  C   UNL     1       4.908  -6.532  25.548  0.00  0.00    +0.002 A 
ATOM     20  C   UNL     1       5.242  -5.211  25.860  0.00  0.00    +0.025 A 
ENDBRANCH   8  14
BRANCH   6  21
ATOM     21  C   UNL     1       7.848  -0.071  24.332  0.00  0.00    +0.044 A 
ATOM     22  C   UNL     1       7.791   0.149  22.945  0.00  0.00    +0.027 A 
ATOM     23  C   UNL     1       8.727   0.968  22.296  0.00  0.00    +0.047 A 
ATOM     24  C   UNL     1       9.748   1.575  23.020  0.00  0.00    +0.120 A 
ATOM     25  C   UNL     1       9.823   1.369  24.392  0.00  0.00    +0.047 A 
ATOM     26  C   UNL     1       8.892   0.548  25.039  0.00  0.00    +0.027 A 
BRANCH  24  27
ATOM     27  O   UNL     1      10.680   2.435  22.511  0.00  0.00    -0.495 OA
ATOM     28  C   UNL     1      11.065   3.506  23.363  0.00  0.00    +0.277 C 
ENDBRANCH  24  27
ENDBRANCH   6  21
BRANCH   1  29
ATOM     29  C   UNL     1       3.717   3.140  24.571  0.00  0.00    +0.101 C 
ATOM     30  C   UNL     1       2.353   3.458  23.933  0.00  0.00    +0.031 C 
BRANCH  29  31
ATOM     31  C   UNL     1       4.500   4.463  24.936  0.00  0.00    +0.078 C 
ATOM     32  C   UNL     1       4.017   5.093  26.250  0.00  0.00    +0.043 C 
ATOM     33  C   UNL     1       4.391   5.525  23.832  0.00  0.00    +0.043 C 
BRANCH  31  34
ATOM     34  O   UNL     1       5.897   4.169  25.095  0.00  0.00    -0.387 OA
ATOM     35  H   UNL     1       6.250   4.012  24.198  0.00  0.00    +0.210 HD
ENDBRANCH  31  34
ENDBRANCH  29  31
ENDBRANCH   1  29
TORSDOF 6
ENDMDL
