MODEL 1
REMARK VINA RESULT:      -7.0      0.000      0.000
REMARK  Name = 
REMARK  7 active torsions:
REMARK  status: ('A' for Active; 'I' for Inactive)
REMARK    1  A    between atoms: N_10  and  C_11
REMARK    2  A    between atoms: C_14  and  C_16
REMARK    3  A    between atoms: C_16  and  O_17
REMARK    4  A    between atoms: O_17  and  S_18
REMARK    5  A    between atoms: S_18  and  N_19
REMARK    6  A    between atoms: C_22  and  O_24
REMARK    7  A    between atoms: C_25  and  O_27
REMARK                            x       y       z     vdW  Elec       q    Type
REMARK                         _______ _______ _______ _____ _____    ______ ____
ROOT
ATOM      1  C   UNL     1       7.215  -2.739  23.058  0.00  0.00    +0.253 C 
ATOM      2  C   UNL     1       7.712  -4.193  23.057  0.00  0.00    +0.195 C 
ATOM      3  C   UNL     1       8.230  -4.435  24.477  0.00  0.00    +0.178 C 
ATOM      4  C   UNL     1       7.838  -3.170  25.241  0.00  0.00    +0.180 C 
ATOM      5  O   UNL     1       6.836  -2.513  24.446  0.00  0.00    -0.346 OA
ENDROOT
BRANCH   1  13
ATOM      6  N   UNL     1      10.231   2.331  21.630  0.00  0.00    -0.341 N 
ATOM      7  H   UNL     1      11.099   1.819  21.739  0.00  0.00    +0.144 HD
ATOM      8  H   UNL     1      10.211   3.297  21.932  0.00  0.00    +0.144 HD
ATOM      9  C   UNL     1       9.119   1.629  22.075  0.00  0.00    +0.147 A 
ATOM     10  C   UNL     1       9.090   0.228  22.204  0.00  0.00    +0.147 A 
ATOM     11  N   UNL     1      10.042  -0.743  21.985  0.00  0.00    -0.231 NA
ATOM     12  C   UNL     1       9.440  -1.873  22.287  0.00  0.00    +0.203 A 
ATOM     13  N   UNL     1       8.126  -1.686  22.648  0.00  0.00    -0.286 N 
ATOM     14  C   UNL     1       7.905  -0.334  22.657  0.00  0.00    +0.167 A 
ATOM     15  N   UNL     1       6.792   0.322  23.015  0.00  0.00    -0.216 NA
ATOM     16  C   UNL     1       6.935   1.653  22.854  0.00  0.00    +0.225 A 
ATOM     17  N   UNL     1       8.016   2.331  22.417  0.00  0.00    -0.219 NA
ENDBRANCH   1  13
BRANCH   2  18
ATOM     18  O   UNL     1       6.600  -5.085  22.811  0.00  0.00    -0.385 OA
ATOM     19  H   UNL     1       5.985  -4.654  22.192  0.00  0.00    +0.210 HD
ENDBRANCH   2  18
BRANCH   3  20
ATOM     20  O   UNL     1       9.643  -4.608  24.484  0.00  0.00    -0.386 OA
ATOM     21  H   UNL     1       9.828  -5.537  24.262  0.00  0.00    +0.210 HD
ENDBRANCH   3  20
BRANCH   4  22
ATOM     22  C   UNL     1       7.317  -3.450  26.648  0.00  0.00    +0.229 C 
BRANCH  22  23
ATOM     23  O   UNL     1       6.209  -4.341  26.589  0.00  0.00    -0.222 OA
BRANCH  23  24
ATOM     24  S   UNL     1       6.237  -5.598  27.620  0.00  0.00    +0.148 S 
ATOM     25  O   UNL     1       5.478  -6.669  27.024  0.00  0.00    -0.130 OA
ATOM     26  O   UNL     1       5.976  -5.092  28.945  0.00  0.00    -0.130 OA
BRANCH  24  27
ATOM     27  N   UNL     1       7.836  -6.059  27.585  0.00  0.00    -0.183 NA
ATOM     28  H   UNL     1       8.015  -6.924  28.087  0.00  0.00    +0.146 HD
ATOM     29  H   UNL     1       8.251  -5.975  26.660  0.00  0.00    +0.146 HD
ENDBRANCH  24  27
ENDBRANCH  23  24
ENDBRANCH  22  23
ENDBRANCH   4  22
TORSDOF 7
ENDMDL
MODEL 2
REMARK VINA RESULT:      -7.0      3.685      6.945
REMARK  Name = 
REMARK  7 active torsions:
REMARK  status: ('A' for Active; 'I' for Inactive)
REMARK    1  A    between atoms: N_10  and  C_11
REMARK    2  A    between atoms: C_14  and  C_16
REMARK    3  A    between atoms: C_16  and  O_17
REMARK    4  A    between atoms: O_17  and  S_18
REMARK    5  A    between atoms: S_18  and  N_19
REMARK    6  A    between atoms: C_22  and  O_24
REMARK    7  A    between atoms: C_25  and  O_27
REMARK                            x       y       z     vdW  Elec       q    Type
REMARK                         _______ _______ _______ _____ _____    ______ ____
ROOT
ATOM      1  C   UNL     1       8.829  -2.237  23.177  0.00  0.00    +0.253 C 
ATOM      2  C   UNL     1       8.377  -1.304  22.043  0.00  0.00    +0.195 C 
ATOM      3  C   UNL     1       7.862  -0.047  22.748  0.00  0.00    +0.178 C 
ATOM      4  C   UNL     1       8.211  -0.270  24.220  0.00  0.00    +0.180 C 
ATOM      5  O   UNL     1       9.196  -1.318  24.246  0.00  0.00    -0.346 OA
ENDROOT
BRANCH   1  13
ATOM      6  N   UNL     1       5.595  -6.403  26.182  0.00  0.00    -0.341 N 
ATOM      7  H   UNL     1       4.763  -6.065  25.710  0.00  0.00    +0.144 HD
ATOM      8  H   UNL     1       5.505  -6.695  27.146  0.00  0.00    +0.144 HD
ATOM      9  C   UNL     1       6.704  -5.590  25.989  0.00  0.00    +0.147 A 
ATOM     10  C   UNL     1       6.829  -4.696  24.911  0.00  0.00    +0.147 A 
ATOM     11  N   UNL     1       5.986  -4.375  23.870  0.00  0.00    -0.231 NA
ATOM     12  C   UNL     1       6.640  -3.462  23.183  0.00  0.00    +0.203 A 
ATOM     13  N   UNL     1       7.888  -3.210  23.702  0.00  0.00    -0.286 N 
ATOM     14  C   UNL     1       7.998  -3.952  24.848  0.00  0.00    +0.167 A 
ATOM     15  N   UNL     1       9.011  -3.974  25.727  0.00  0.00    -0.216 NA
ATOM     16  C   UNL     1       8.782  -4.861  26.716  0.00  0.00    +0.225 A 
ATOM     17  N   UNL     1       7.704  -5.652  26.897  0.00  0.00    -0.219 NA
ENDBRANCH   1  13
BRANCH   2  18
ATOM     18  O   UNL     1       9.518  -0.943  21.229  0.00  0.00    -0.385 OA
ATOM     19  H   UNL     1       9.299  -1.105  20.295  0.00  0.00    +0.210 HD
ENDBRANCH   2  18
BRANCH   3  20
ATOM     20  O   UNL     1       6.455   0.092  22.582  0.00  0.00    -0.386 OA
ATOM     21  H   UNL     1       6.295   0.927  22.109  0.00  0.00    +0.210 HD
ENDBRANCH   3  20
BRANCH   4  22
ATOM     22  C   UNL     1       8.734   0.983  24.915  0.00  0.00    +0.229 C 
BRANCH  22  23
ATOM     23  O   UNL     1       8.788   2.066  23.992  0.00  0.00    -0.222 OA
BRANCH  23  24
ATOM     24  S   UNL     1      10.267   2.513  23.487  0.00  0.00    +0.148 S 
ATOM     25  O   UNL     1      11.220   1.590  24.052  0.00  0.00    -0.130 OA
ATOM     26  O   UNL     1      10.374   3.943  23.636  0.00  0.00    -0.130 OA
BRANCH  24  27
ATOM     27  N   UNL     1      10.201   2.200  21.853  0.00  0.00    -0.183 NA
ATOM     28  H   UNL     1      10.881   2.730  21.316  0.00  0.00    +0.146 HD
ATOM     29  H   UNL     1      10.128   1.208  21.644  0.00  0.00    +0.146 HD
ENDBRANCH  24  27
ENDBRANCH  23  24
ENDBRANCH  22  23
ENDBRANCH   4  22
TORSDOF 7
ENDMDL
MODEL 3
REMARK VINA RESULT:      -6.9      2.469      3.524
REMARK  Name = 
REMARK  7 active torsions:
REMARK  status: ('A' for Active; 'I' for Inactive)
REMARK    1  A    between atoms: N_10  and  C_11
REMARK    2  A    between atoms: C_14  and  C_16
REMARK    3  A    between atoms: C_16  and  O_17
REMARK    4  A    between atoms: O_17  and  S_18
REMARK    5  A    between atoms: S_18  and  N_19
REMARK    6  A    between atoms: C_22  and  O_24
REMARK    7  A    between atoms: C_25  and  O_27
REMARK                            x       y       z     vdW  Elec       q    Type
REMARK                         _______ _______ _______ _____ _____    ______ ____
ROOT
ATOM      1  C   UNL     1       9.374  -3.748  24.580  0.00  0.00    +0.253 C 
ATOM      2  C   UNL     1       8.997  -4.826  25.607  0.00  0.00    +0.195 C 
ATOM      3  C   UNL     1       7.545  -5.189  25.285  0.00  0.00    +0.178 C 
ATOM      4  C   UNL     1       7.244  -4.427  23.994  0.00  0.00    +0.180 C 
ATOM      5  O   UNL     1       8.518  -4.052  23.441  0.00  0.00    -0.346 OA
ENDROOT
BRANCH   1  13
ATOM      6  N   UNL     1       8.972   2.290  25.051  0.00  0.00    -0.341 N 
ATOM      7  H   UNL     1       8.300   2.165  25.800  0.00  0.00    +0.144 HD
ATOM      8  H   UNL     1       8.827   3.060  24.411  0.00  0.00    +0.144 HD
ATOM      9  C   UNL     1       9.275   1.113  24.382  0.00  0.00    +0.147 A 
ATOM     10  C   UNL     1       9.084  -0.165  24.939  0.00  0.00    +0.147 A 
ATOM     11  N   UNL     1       8.576  -0.581  26.150  0.00  0.00    -0.231 NA
ATOM     12  C   UNL     1       8.633  -1.895  26.100  0.00  0.00    +0.203 A 
ATOM     13  N   UNL     1       9.199  -2.351  24.933  0.00  0.00    -0.286 N 
ATOM     14  C   UNL     1       9.437  -1.251  24.152  0.00  0.00    +0.167 A 
ATOM     15  N   UNL     1       9.915  -1.211  22.900  0.00  0.00    -0.216 NA
ATOM     16  C   UNL     1      10.054   0.058  22.468  0.00  0.00    +0.225 A 
ATOM     17  N   UNL     1       9.762   1.201  23.124  0.00  0.00    -0.219 NA
ENDBRANCH   1  13
BRANCH   2  18
ATOM     18  O   UNL     1       9.822  -5.997  25.406  0.00  0.00    -0.385 OA
ATOM     19  H   UNL     1       9.677  -6.613  26.145  0.00  0.00    +0.210 HD
ENDBRANCH   2  18
BRANCH   3  20
ATOM     20  O   UNL     1       6.670  -4.773  26.328  0.00  0.00    -0.386 OA
ATOM     21  H   UNL     1       5.986  -5.458  26.430  0.00  0.00    +0.210 HD
ENDBRANCH   3  20
BRANCH   4  22
ATOM     22  C   UNL     1       6.434  -5.238  22.987  0.00  0.00    +0.229 C 
BRANCH  22  23
ATOM     23  O   UNL     1       5.733  -6.283  23.653  0.00  0.00    -0.222 OA
BRANCH  23  24
ATOM     24  S   UNL     1       4.144  -6.047  23.896  0.00  0.00    +0.148 S 
ATOM     25  O   UNL     1       3.621  -5.365  22.739  0.00  0.00    -0.130 OA
ATOM     26  O   UNL     1       3.967  -5.561  25.242  0.00  0.00    -0.130 OA
BRANCH  24  27
ATOM     27  N   UNL     1       3.539  -7.598  23.859  0.00  0.00    -0.183 NA
ATOM     28  H   UNL     1       2.544  -7.635  23.657  0.00  0.00    +0.146 HD
ATOM     29  H   UNL     1       4.133  -8.241  23.342  0.00  0.00    +0.146 HD
ENDBRANCH  24  27
ENDBRANCH  23  24
ENDBRANCH  22  23
ENDBRANCH   4  22
TORSDOF 7
ENDMDL
MODEL 4
REMARK VINA RESULT:      -6.9      3.861      6.831
REMARK  Name = 
REMARK  7 active torsions:
REMARK  status: ('A' for Active; 'I' for Inactive)
REMARK    1  A    between atoms: N_10  and  C_11
REMARK    2  A    between atoms: C_14  and  C_16
REMARK    3  A    between atoms: C_16  and  O_17
REMARK    4  A    between atoms: O_17  and  S_18
REMARK    5  A    between atoms: S_18  and  N_19
REMARK    6  A    between atoms: C_22  and  O_24
REMARK    7  A    between atoms: C_25  and  O_27
REMARK                            x       y       z     vdW  Elec       q    Type
REMARK                         _______ _______ _______ _____ _____    ______ ____
ROOT
ATOM      1  C   UNL     1       9.567  -2.535  23.616  0.00  0.00    +0.253 C 
ATOM      2  C   UNL     1       9.027  -1.823  22.366  0.00  0.00    +0.195 C 
ATOM      3  C   UNL     1       8.435  -0.511  22.884  0.00  0.00    +0.178 C 
ATOM      4  C   UNL     1       8.826  -0.477  24.362  0.00  0.00    +0.180 C 
ATOM      5  O   UNL     1       9.886  -1.438  24.519  0.00  0.00    -0.346 OA
ENDROOT
BRANCH   1  13
ATOM      6  N   UNL     1       5.332  -6.362  25.680  0.00  0.00    -0.341 N 
ATOM      7  H   UNL     1       6.041  -6.800  26.256  0.00  0.00    +0.144 HD
ATOM      8  H   UNL     1       4.627  -6.957  25.265  0.00  0.00    +0.144 HD
ATOM      9  C   UNL     1       5.851  -5.459  24.762  0.00  0.00    +0.147 A 
ATOM     10  C   UNL     1       7.108  -4.844  24.908  0.00  0.00    +0.147 A 
ATOM     11  N   UNL     1       8.090  -4.959  25.867  0.00  0.00    -0.231 NA
ATOM     12  C   UNL     1       9.045  -4.149  25.464  0.00  0.00    +0.203 A 
ATOM     13  N   UNL     1       8.710  -3.476  24.312  0.00  0.00    -0.286 N 
ATOM     14  C   UNL     1       7.492  -3.959  23.912  0.00  0.00    +0.167 A 
ATOM     15  N   UNL     1       6.801  -3.651  22.805  0.00  0.00    -0.216 NA
ATOM     16  C   UNL     1       5.619  -4.297  22.768  0.00  0.00    +0.225 A 
ATOM     17  N   UNL     1       5.116  -5.171  23.665  0.00  0.00    -0.219 NA
ENDBRANCH   1  13
BRANCH   2  18
ATOM     18  O   UNL     1      10.122  -1.515  21.473  0.00  0.00    -0.385 OA
ATOM     19  H   UNL     1       9.818  -1.626  20.555  0.00  0.00    +0.210 HD
ENDBRANCH   2  18
BRANCH   3  20
ATOM     20  O   UNL     1       7.018  -0.497  22.741  0.00  0.00    -0.386 OA
ATOM     21  H   UNL     1       6.742   0.429  22.630  0.00  0.00    +0.210 HD
ENDBRANCH   3  20
BRANCH   4  22
ATOM     22  C   UNL     1       9.270   0.902  24.840  0.00  0.00    +0.229 C 
BRANCH  22  23
ATOM     23  O   UNL     1      10.396   1.341  24.086  0.00  0.00    -0.222 OA
BRANCH  23  24
ATOM     24  S   UNL     1      10.229   2.747  23.290  0.00  0.00    +0.148 S 
ATOM     25  O   UNL     1      11.448   3.496  23.464  0.00  0.00    -0.130 OA
ATOM     26  O   UNL     1       8.926   3.282  23.599  0.00  0.00    -0.130 OA
BRANCH  24  27
ATOM     27  N   UNL     1      10.184   2.259  21.699  0.00  0.00    -0.183 NA
ATOM     28  H   UNL     1      10.133   3.033  21.043  0.00  0.00    +0.146 HD
ATOM     29  H   UNL     1      10.862   1.530  21.490  0.00  0.00    +0.146 HD
ENDBRANCH  24  27
ENDBRANCH  23  24
ENDBRANCH  22  23
ENDBRANCH   4  22
TORSDOF 7
ENDMDL
MODEL 5
REMARK VINA RESULT:      -6.8      2.314      3.208
REMARK  Name = 
REMARK  7 active torsions:
REMARK  status: ('A' for Active; 'I' for Inactive)
REMARK    1  A    between atoms: N_10  and  C_11
REMARK    2  A    between atoms: C_14  and  C_16
REMARK    3  A    between atoms: C_16  and  O_17
REMARK    4  A    between atoms: O_17  and  S_18
REMARK    5  A    between atoms: S_18  and  N_19
REMARK    6  A    between atoms: C_22  and  O_24
REMARK    7  A    between atoms: C_25  and  O_27
REMARK                            x       y       z     vdW  Elec       q    Type
REMARK                         _______ _______ _______ _____ _____    ______ ____
ROOT
ATOM      1  C   UNL     1       9.196  -3.163  24.304  0.00  0.00    +0.253 C 
ATOM      2  C   UNL     1       8.301  -3.110  25.552  0.00  0.00    +0.195 C 
ATOM      3  C   UNL     1       6.958  -3.685  25.099  0.00  0.00    +0.178 C 
ATOM      4  C   UNL     1       7.221  -4.188  23.679  0.00  0.00    +0.180 C 
ATOM      5  O   UNL     1       8.650  -4.279  23.544  0.00  0.00    -0.346 OA
ENDROOT
BRANCH   1  13
ATOM      6  N   UNL     1       9.972   2.171  21.514  0.00  0.00    -0.341 N 
ATOM      7  H   UNL     1       9.901   1.691  20.624  0.00  0.00    +0.144 HD
ATOM      8  H   UNL     1      10.626   2.939  21.585  0.00  0.00    +0.144 HD
ATOM      9  C   UNL     1      10.067   1.309  22.597  0.00  0.00    +0.147 A 
ATOM     10  C   UNL     1       9.637  -0.030  22.561  0.00  0.00    +0.147 A 
ATOM     11  N   UNL     1       9.088  -0.800  21.560  0.00  0.00    -0.231 NA
ATOM     12  C   UNL     1       8.903  -1.980  22.111  0.00  0.00    +0.203 A 
ATOM     13  N   UNL     1       9.263  -2.000  23.438  0.00  0.00    -0.286 N 
ATOM     14  C   UNL     1       9.792  -0.769  23.724  0.00  0.00    +0.167 A 
ATOM     15  N   UNL     1      10.340  -0.349  24.874  0.00  0.00    -0.216 NA
ATOM     16  C   UNL     1      10.718   0.942  24.793  0.00  0.00    +0.225 A 
ATOM     17  N   UNL     1      10.619   1.779  23.739  0.00  0.00    -0.219 NA
ENDBRANCH   1  13
BRANCH   2  18
ATOM     18  O   UNL     1       8.850  -3.970  26.578  0.00  0.00    -0.385 OA
ATOM     19  H   UNL     1       9.672  -3.570  26.914  0.00  0.00    +0.210 HD
ENDBRANCH   2  18
BRANCH   3  20
ATOM     20  O   UNL     1       5.947  -2.683  25.096  0.00  0.00    -0.386 OA
ATOM     21  H   UNL     1       5.479  -2.737  24.244  0.00  0.00    +0.210 HD
ENDBRANCH   3  20
BRANCH   4  22
ATOM     22  C   UNL     1       6.561  -5.530  23.379  0.00  0.00    +0.229 C 
BRANCH  22  23
ATOM     23  O   UNL     1       5.646  -5.866  24.417  0.00  0.00    -0.222 OA
BRANCH  23  24
ATOM     24  S   UNL     1       4.078  -5.954  23.997  0.00  0.00    +0.148 S 
ATOM     25  O   UNL     1       3.975  -5.578  22.609  0.00  0.00    -0.130 OA
ATOM     26  O   UNL     1       3.303  -5.329  25.041  0.00  0.00    -0.130 OA
BRANCH  24  27
ATOM     27  N   UNL     1       3.772  -7.588  24.081  0.00  0.00    -0.183 NA
ATOM     28  H   UNL     1       3.933  -7.980  25.005  0.00  0.00    +0.146 HD
ATOM     29  H   UNL     1       2.906  -7.851  23.619  0.00  0.00    +0.146 HD
ENDBRANCH  24  27
ENDBRANCH  23  24
ENDBRANCH  22  23
ENDBRANCH   4  22
TORSDOF 7
ENDMDL
MODEL 6
REMARK VINA RESULT:      -6.8      1.812      2.239
REMARK  Name = 
REMARK  7 active torsions:
REMARK  status: ('A' for Active; 'I' for Inactive)
REMARK    1  A    between atoms: N_10  and  C_11
REMARK    2  A    between atoms: C_14  and  C_16
REMARK    3  A    between atoms: C_16  and  O_17
REMARK    4  A    between atoms: O_17  and  S_18
REMARK    5  A    between atoms: S_18  and  N_19
REMARK    6  A    between atoms: C_22  and  O_24
REMARK    7  A    between atoms: C_25  and  O_27
REMARK                            x       y       z     vdW  Elec       q    Type
REMARK                         _______ _______ _______ _____ _____    ______ ____
ROOT
ATOM      1  C   UNL     1       7.598  -3.207  24.273  0.00  0.00    +0.253 C 
ATOM      2  C   UNL     1       8.297  -4.466  23.737  0.00  0.00    +0.195 C 
ATOM      3  C   UNL     1       8.738  -5.234  24.985  0.00  0.00    +0.178 C 
ATOM      4  C   UNL     1       8.115  -4.459  26.145  0.00  0.00    +0.180 C 
ATOM      5  O   UNL     1       7.089  -3.629  25.571  0.00  0.00    -0.346 OA
ENDROOT
BRANCH   1  13
ATOM      6  N   UNL     1      10.814   1.931  23.944  0.00  0.00    -0.341 N 
ATOM      7  H   UNL     1      10.539   2.137  24.898  0.00  0.00    +0.144 HD
ATOM      8  H   UNL     1      10.883   2.703  23.295  0.00  0.00    +0.144 HD
ATOM      9  C   UNL     1      10.128   0.855  23.396  0.00  0.00    +0.147 A 
ATOM     10  C   UNL     1       9.499  -0.137  24.170  0.00  0.00    +0.147 A 
ATOM     11  N   UNL     1       9.364  -0.304  25.531  0.00  0.00    -0.231 NA
ATOM     12  C   UNL     1       8.663  -1.409  25.662  0.00  0.00    +0.203 A 
ATOM     13  N   UNL     1       8.376  -1.994  24.451  0.00  0.00    -0.286 N 
ATOM     14  C   UNL     1       8.856  -1.154  23.481  0.00  0.00    +0.167 A 
ATOM     15  N   UNL     1       8.745  -1.275  22.150  0.00  0.00    -0.216 NA
ATOM     16  C   UNL     1       9.380  -0.272  21.512  0.00  0.00    +0.225 A 
ATOM     17  N   UNL     1      10.049   0.770  22.049  0.00  0.00    -0.219 NA
ENDBRANCH   1  13
BRANCH   2  18
ATOM     18  O   UNL     1       7.345  -5.275  23.008  0.00  0.00    -0.385 OA
ATOM     19  H   UNL     1       7.670  -6.192  22.980  0.00  0.00    +0.210 HD
ENDBRANCH   2  18
BRANCH   3  20
ATOM     20  O   UNL     1      10.157  -5.252  25.099  0.00  0.00    -0.386 OA
ATOM     21  H   UNL     1      10.410  -4.569  25.745  0.00  0.00    +0.210 HD
ENDBRANCH   3  20
BRANCH   4  22
ATOM     22  C   UNL     1       7.538  -5.358  27.234  0.00  0.00    +0.229 C 
BRANCH  22  23
ATOM     23  O   UNL     1       6.506  -6.177  26.694  0.00  0.00    -0.222 OA
BRANCH  23  24
ATOM     24  S   UNL     1       5.244  -6.486  27.670  0.00  0.00    +0.148 S 
ATOM     25  O   UNL     1       4.672  -5.222  28.061  0.00  0.00    -0.130 OA
ATOM     26  O   UNL     1       5.652  -7.492  28.619  0.00  0.00    -0.130 OA
BRANCH  24  27
ATOM     27  N   UNL     1       4.157  -7.210  26.637  0.00  0.00    -0.183 NA
ATOM     28  H   UNL     1       4.476  -8.107  26.283  0.00  0.00    +0.146 HD
ATOM     29  H   UNL     1       3.200  -7.169  26.979  0.00  0.00    +0.146 HD
ENDBRANCH  24  27
ENDBRANCH  23  24
ENDBRANCH  22  23
ENDBRANCH   4  22
TORSDOF 7
ENDMDL
MODEL 7
REMARK VINA RESULT:      -6.6      2.859      4.087
REMARK  Name = 
REMARK  7 active torsions:
REMARK  status: ('A' for Active; 'I' for Inactive)
REMARK    1  A    between atoms: N_10  and  C_11
REMARK    2  A    between atoms: C_14  and  C_16
REMARK    3  A    between atoms: C_16  and  O_17
REMARK    4  A    between atoms: O_17  and  S_18
REMARK    5  A    between atoms: S_18  and  N_19
REMARK    6  A    between atoms: C_22  and  O_24
REMARK    7  A    between atoms: C_25  and  O_27
REMARK                            x       y       z     vdW  Elec       q    Type
REMARK                         _______ _______ _______ _____ _____    ______ ____
ROOT
ATOM      1  C   UNL     1       9.117   0.310  25.308  0.00  0.00    +0.253 C 
ATOM      2  C   UNL     1       7.648  -0.136  25.365  0.00  0.00    +0.195 C 
ATOM      3  C   UNL     1       7.460  -1.033  24.140  0.00  0.00    +0.178 C 
ATOM      4  C   UNL     1       8.867  -1.183  23.561  0.00  0.00    +0.180 C 
ATOM      5  O   UNL     1       9.775  -0.782  24.603  0.00  0.00    -0.346 OA
ENDROOT
BRANCH   1  13
ATOM      6  N   UNL     1       9.675   5.934  23.093  0.00  0.00    -0.341 N 
ATOM      7  H   UNL     1      10.644   5.728  22.877  0.00  0.00    +0.144 HD
ATOM      8  H   UNL     1       9.451   6.866  23.415  0.00  0.00    +0.144 HD
ATOM      9  C   UNL     1       9.067   4.958  23.872  0.00  0.00    +0.147 A 
ATOM     10  C   UNL     1       9.534   3.634  23.956  0.00  0.00    +0.147 A 
ATOM     11  N   UNL     1      10.613   2.994  23.388  0.00  0.00    -0.231 NA
ATOM     12  C   UNL     1      10.546   1.761  23.843  0.00  0.00    +0.203 A 
ATOM     13  N   UNL     1       9.446   1.558  24.643  0.00  0.00    -0.286 N 
ATOM     14  C   UNL     1       8.820   2.769  24.773  0.00  0.00    +0.167 A 
ATOM     15  N   UNL     1       7.747   3.073  25.516  0.00  0.00    -0.216 NA
ATOM     16  C   UNL     1       7.392   4.363  25.361  0.00  0.00    +0.225 A 
ATOM     17  N   UNL     1       7.982   5.307  24.599  0.00  0.00    -0.219 NA
ENDBRANCH   1  13
BRANCH   2  18
ATOM     18  O   UNL     1       7.428  -0.927  26.556  0.00  0.00    -0.385 OA
ATOM     19  H   UNL     1       8.266  -1.356  26.806  0.00  0.00    +0.210 HD
ENDBRANCH   2  18
BRANCH   3  20
ATOM     20  O   UNL     1       6.589  -0.427  23.191  0.00  0.00    -0.386 OA
ATOM     21  H   UNL     1       5.853  -0.023  23.681  0.00  0.00    +0.210 HD
ENDBRANCH   3  20
BRANCH   4  22
ATOM     22  C   UNL     1       9.179  -2.598  23.085  0.00  0.00    +0.229 C 
BRANCH  22  23
ATOM     23  O   UNL     1       9.936  -3.289  24.073  0.00  0.00    -0.222 OA
BRANCH  23  24
ATOM     24  S   UNL     1       9.114  -4.318  25.024  0.00  0.00    +0.148 S 
ATOM     25  O   UNL     1       8.101  -4.948  24.215  0.00  0.00    -0.130 OA
ATOM     26  O   UNL     1       8.822  -3.641  26.264  0.00  0.00    -0.130 OA
BRANCH  24  27
ATOM     27  N   UNL     1      10.253  -5.483  25.367  0.00  0.00    -0.183 NA
ATOM     28  H   UNL     1      10.986  -5.156  25.991  0.00  0.00    +0.146 HD
ATOM     29  H   UNL     1       9.840  -6.387  25.583  0.00  0.00    +0.146 HD
ENDBRANCH  24  27
ENDBRANCH  23  24
ENDBRANCH  22  23
ENDBRANCH   4  22
TORSDOF 7
ENDMDL
MODEL 8
REMARK VINA RESULT:      -6.6      3.982      6.879
REMARK  Name = 
REMARK  7 active torsions:
REMARK  status: ('A' for Active; 'I' for Inactive)
REMARK    1  A    between atoms: N_10  and  C_11
REMARK    2  A    between atoms: C_14  and  C_16
REMARK    3  A    between atoms: C_16  and  O_17
REMARK    4  A    between atoms: O_17  and  S_18
REMARK    5  A    between atoms: S_18  and  N_19
REMARK    6  A    between atoms: C_22  and  O_24
REMARK    7  A    between atoms: C_25  and  O_27
REMARK                            x       y       z     vdW  Elec       q    Type
REMARK                         _______ _______ _______ _____ _____    ______ ____
ROOT
ATOM      1  C   UNL     1       7.344  -0.821  23.849  0.00  0.00    +0.253 C 
ATOM      2  C   UNL     1       6.562  -0.145  24.986  0.00  0.00    +0.195 C 
ATOM      3  C   UNL     1       7.487   0.962  25.497  0.00  0.00    +0.178 C 
ATOM      4  C   UNL     1       8.657   0.961  24.512  0.00  0.00    +0.180 C 
ATOM      5  O   UNL     1       8.204   0.243  23.350  0.00  0.00    -0.346 OA
ENDROOT
BRANCH   1  13
ATOM      6  N   UNL     1       9.881  -6.065  25.553  0.00  0.00    -0.341 N 
ATOM      7  H   UNL     1      10.590  -5.928  24.841  0.00  0.00    +0.144 HD
ATOM      8  H   UNL     1       9.556  -7.009  25.720  0.00  0.00    +0.144 HD
ATOM      9  C   UNL     1       8.829  -5.165  25.461  0.00  0.00    +0.147 A 
ATOM     10  C   UNL     1       8.928  -3.923  24.808  0.00  0.00    +0.147 A 
ATOM     11  N   UNL     1       9.957  -3.316  24.123  0.00  0.00    -0.231 NA
ATOM     12  C   UNL     1       9.457  -2.167  23.721  0.00  0.00    +0.203 A 
ATOM     13  N   UNL     1       8.165  -1.979  24.153  0.00  0.00    -0.286 N 
ATOM     14  C   UNL     1       7.792  -3.127  24.801  0.00  0.00    +0.167 A 
ATOM     15  N   UNL     1       6.598  -3.430  25.328  0.00  0.00    -0.216 NA
ATOM     16  C   UNL     1       6.618  -4.639  25.924  0.00  0.00    +0.225 A 
ATOM     17  N   UNL     1       7.644  -5.510  26.015  0.00  0.00    -0.219 NA
ENDBRANCH   1  13
BRANCH   2  18
ATOM     18  O   UNL     1       5.362   0.462  24.454  0.00  0.00    -0.385 OA
ATOM     19  H   UNL     1       5.609   1.270  23.970  0.00  0.00    +0.210 HD
ENDBRANCH   2  18
BRANCH   3  20
ATOM     20  O   UNL     1       7.942   0.680  26.816  0.00  0.00    -0.386 OA
ATOM     21  H   UNL     1       7.193   0.308  27.313  0.00  0.00    +0.210 HD
ENDBRANCH   3  20
BRANCH   4  22
ATOM     22  C   UNL     1       9.131   2.361  24.134  0.00  0.00    +0.229 C 
BRANCH  22  23
ATOM     23  O   UNL     1       8.016   3.238  24.017  0.00  0.00    -0.222 OA
BRANCH  23  24
ATOM     24  S   UNL     1       7.390   3.417  22.528  0.00  0.00    +0.148 S 
ATOM     25  O   UNL     1       7.447   4.818  22.194  0.00  0.00    -0.130 OA
ATOM     26  O   UNL     1       6.176   2.641  22.460  0.00  0.00    -0.130 OA
BRANCH  24  27
ATOM     27  N   UNL     1       8.510   2.644  21.569  0.00  0.00    -0.183 NA
ATOM     28  H   UNL     1       9.434   3.066  21.612  0.00  0.00    +0.146 HD
ATOM     29  H   UNL     1       8.468   1.631  21.651  0.00  0.00    +0.146 HD
ENDBRANCH  24  27
ENDBRANCH  23  24
ENDBRANCH  22  23
ENDBRANCH   4  22
TORSDOF 7
ENDMDL
MODEL 9
REMARK VINA RESULT:      -6.6      3.295      7.040
REMARK  Name = 
REMARK  7 active torsions:
REMARK  status: ('A' for Active; 'I' for Inactive)
REMARK    1  A    between atoms: N_10  and  C_11
REMARK    2  A    between atoms: C_14  and  C_16
REMARK    3  A    between atoms: C_16  and  O_17
REMARK    4  A    between atoms: O_17  and  S_18
REMARK    5  A    between atoms: S_18  and  N_19
REMARK    6  A    between atoms: C_22  and  O_24
REMARK    7  A    between atoms: C_25  and  O_27
REMARK                            x       y       z     vdW  Elec       q    Type
REMARK                         _______ _______ _______ _____ _____    ______ ____
ROOT
ATOM      1  C   UNL     1       7.868  -3.993  24.134  0.00  0.00    +0.253 C 
ATOM      2  C   UNL     1       6.823  -3.439  23.154  0.00  0.00    +0.195 C 
ATOM      3  C   UNL     1       6.580  -1.999  23.609  0.00  0.00    +0.178 C 
ATOM      4  C   UNL     1       7.621  -1.767  24.704  0.00  0.00    +0.180 C 
ATOM      5  O   UNL     1       8.604  -2.807  24.550  0.00  0.00    -0.346 OA
ENDROOT
BRANCH   1  13
ATOM      6  N   UNL     1       5.166  -7.281  28.462  0.00  0.00    -0.341 N 
ATOM      7  H   UNL     1       6.056  -7.339  28.943  0.00  0.00    +0.144 HD
ATOM      8  H   UNL     1       4.562  -8.092  28.487  0.00  0.00    +0.144 HD
ATOM      9  C   UNL     1       5.265  -6.750  27.183  0.00  0.00    +0.147 A 
ATOM     10  C   UNL     1       6.338  -5.943  26.762  0.00  0.00    +0.147 A 
ATOM     11  N   UNL     1       7.482  -5.515  27.399  0.00  0.00    -0.231 NA
ATOM     12  C   UNL     1       8.116  -4.797  26.498  0.00  0.00    +0.203 A 
ATOM     13  N   UNL     1       7.415  -4.699  25.319  0.00  0.00    -0.286 N 
ATOM     14  C   UNL     1       6.298  -5.481  25.455  0.00  0.00    +0.167 A 
ATOM     15  N   UNL     1       5.357  -5.749  24.539  0.00  0.00    -0.216 NA
ATOM     16  C   UNL     1       4.384  -6.529  25.049  0.00  0.00    +0.225 A 
ATOM     17  N   UNL     1       4.288  -7.039  26.295  0.00  0.00    -0.219 NA
ENDBRANCH   1  13
BRANCH   2  18
ATOM     18  O   UNL     1       7.377  -3.415  21.818  0.00  0.00    -0.385 OA
ATOM     19  H   UNL     1       7.184  -2.550  21.415  0.00  0.00    +0.210 HD
ENDBRANCH   2  18
BRANCH   3  20
ATOM     20  O   UNL     1       5.264  -1.842  24.128  0.00  0.00    -0.386 OA
ATOM     21  H   UNL     1       4.690  -1.553  23.397  0.00  0.00    +0.210 HD
ENDBRANCH   3  20
BRANCH   4  22
ATOM     22  C   UNL     1       8.275  -0.390  24.638  0.00  0.00    +0.229 C 
BRANCH  22  23
ATOM     23  O   UNL     1       8.273   0.086  23.296  0.00  0.00    -0.222 OA
BRANCH  23  24
ATOM     24  S   UNL     1       9.702   0.069  22.522  0.00  0.00    +0.148 S 
ATOM     25  O   UNL     1      10.718  -0.274  23.485  0.00  0.00    -0.130 OA
ATOM     26  O   UNL     1       9.771   1.246  21.691  0.00  0.00    -0.130 OA
BRANCH  24  27
ATOM     27  N   UNL     1       9.544  -1.235  21.499  0.00  0.00    -0.183 NA
ATOM     28  H   UNL     1       8.851  -1.908  21.812  0.00  0.00    +0.146 HD
ATOM     29  H   UNL     1       9.508  -0.966  20.519  0.00  0.00    +0.146 HD
ENDBRANCH  24  27
ENDBRANCH  23  24
ENDBRANCH  22  23
ENDBRANCH   4  22
TORSDOF 7
ENDMDL
