MODEL 1
REMARK VINA RESULT:      -7.0      0.000      0.000
REMARK  Name = 
REMARK  13 active torsions:
REMARK  status: ('A' for Active; 'I' for Inactive)
REMARK    1  A    between atoms: C_1  and  C_2
REMARK    2  A    between atoms: N_4  and  C_5
REMARK    3  A    between atoms: C_8  and  C_10
REMARK    4  A    between atoms: C_10  and  O_11
REMARK    5  A    between atoms: O_11  and  P_12
REMARK    6  A    between atoms: P_12  and  O_13
REMARK    7  A    between atoms: P_12  and  O_15
REMARK    8  A    between atoms: O_15  and  P_16
REMARK    9  A    between atoms: P_16  and  O_17
REMARK   10  A    between atoms: P_16  and  O_19
REMARK   11  A    between atoms: O_19  and  P_20
REMARK   12  A    between atoms: P_20  and  O_21
REMARK   13  A    between atoms: P_20  and  O_22
REMARK                            x       y       z     vdW  Elec       q    Type
REMARK                         _______ _______ _______ _____ _____    ______ ____
ROOT
ATOM      1  O   UNL     1       6.259  -2.063  24.362  0.00  0.00    -0.283 OA
ENDROOT
BRANCH   1   2
ATOM      2  P   UNL     1       6.747  -0.589  24.771  0.00  0.00    +0.483 P 
ATOM      3  O   UNL     1       6.405  -0.230  26.185  0.00  0.00    -0.227 OA
BRANCH   2   4
ATOM      4  O   UNL     1       5.987   0.287  23.675  0.00  0.00    -0.302 OA
ATOM      5  H   UNL     1       6.593   0.602  22.980  0.00  0.00    +0.222 HD
ENDBRANCH   2   4
BRANCH   2   6
ATOM      6  O   UNL     1       8.261  -0.464  24.465  0.00  0.00    -0.186 OA
BRANCH   6   7
ATOM      7  P   UNL     1       9.579  -0.042  23.706  0.00  0.00    +0.492 P 
ATOM      8  O   UNL     1      10.670   0.259  24.736  0.00  0.00    -0.226 OA
BRANCH   7   9
ATOM      9  O   UNL     1      10.167  -1.668  23.654  0.00  0.00    -0.302 OA
ATOM     10  H   UNL     1       9.565  -2.161  24.247  0.00  0.00    +0.222 HD
ENDBRANCH   7   9
BRANCH   7  11
ATOM     11  O   UNL     1       8.992   1.584  23.759  0.00  0.00    -0.186 OA
BRANCH  11  12
ATOM     12  P   UNL     1       8.725   2.252  22.341  0.00  0.00    +0.481 P 
ATOM     13  O   UNL     1       7.572   1.705  21.579  0.00  0.00    -0.227 OA
BRANCH  12  14
ATOM     14  O   UNL     1      10.124   2.110  21.587  0.00  0.00    -0.302 OA
ATOM     15  H   UNL     1      10.162   2.673  20.792  0.00  0.00    +0.222 HD
ENDBRANCH  12  14
BRANCH  12  16
ATOM     16  O   UNL     1       8.684   3.818  22.636  0.00  0.00    -0.302 OA
ATOM     17  H   UNL     1       8.073   4.066  23.357  0.00  0.00    +0.222 HD
ENDBRANCH  12  16
ENDBRANCH  11  12
ENDBRANCH   7  11
ENDBRANCH   6   7
ENDBRANCH   2   6
ENDBRANCH   1   2
BRANCH   1  18
ATOM     18  C   UNL     1       5.968  -2.296  22.995  0.00  0.00    +0.208 C 
BRANCH  18  22
ATOM     19  C   UNL     1       7.786  -5.038  23.308  0.00  0.00    +0.248 C 
ATOM     20  C   UNL     1       6.790  -5.348  22.245  0.00  0.00    +0.025 C 
ATOM     21  C   UNL     1       6.476  -4.237  21.576  0.00  0.00    +0.007 C 
ATOM     22  C   UNL     1       7.078  -3.057  22.258  0.00  0.00    +0.170 C 
ATOM     23  O   UNL     1       8.009  -3.620  23.197  0.00  0.00    -0.343 OA
BRANCH  19  32
ATOM     24  C   UNL     1       4.541  -5.926  27.069  0.00  0.00    +0.051 C 
ATOM     25  C   UNL     1       5.891  -5.677  26.476  0.00  0.00    +0.030 A 
ATOM     26  C   UNL     1       7.026  -5.670  27.429  0.00  0.00    +0.257 A 
ATOM     27  O   UNL     1       6.862  -5.770  28.640  0.00  0.00    -0.267 OA
ATOM     28  N   UNL     1       8.258  -5.533  26.875  0.00  0.00    -0.275 N 
ATOM     29  H   UNL     1       9.051  -5.552  27.498  0.00  0.00    +0.173 HD
ATOM     30  C   UNL     1       8.542  -5.404  25.544  0.00  0.00    +0.332 A 
ATOM     31  O   UNL     1       9.713  -5.387  25.183  0.00  0.00    -0.246 OA
ATOM     32  N   UNL     1       7.438  -5.316  24.693  0.00  0.00    -0.270 N 
ATOM     33  C   UNL     1       6.148  -5.466  25.177  0.00  0.00    +0.102 A 
ENDBRANCH  19  32
ENDBRANCH  18  22
ENDBRANCH   1  18
TORSDOF 12
ENDMDL
MODEL 2
REMARK VINA RESULT:      -6.6      4.251      7.397
REMARK  Name = 
REMARK  13 active torsions:
REMARK  status: ('A' for Active; 'I' for Inactive)
REMARK    1  A    between atoms: C_1  and  C_2
REMARK    2  A    between atoms: N_4  and  C_5
REMARK    3  A    between atoms: C_8  and  C_10
REMARK    4  A    between atoms: C_10  and  O_11
REMARK    5  A    between atoms: O_11  and  P_12
REMARK    6  A    between atoms: P_12  and  O_13
REMARK    7  A    between atoms: P_12  and  O_15
REMARK    8  A    between atoms: O_15  and  P_16
REMARK    9  A    between atoms: P_16  and  O_17
REMARK   10  A    between atoms: P_16  and  O_19
REMARK   11  A    between atoms: O_19  and  P_20
REMARK   12  A    between atoms: P_20  and  O_21
REMARK   13  A    between atoms: P_20  and  O_22
REMARK                            x       y       z     vdW  Elec       q    Type
REMARK                         _______ _______ _______ _____ _____    ______ ____
ROOT
ATOM      1  O   UNL     1       7.906  -3.099  22.400  0.00  0.00    -0.283 OA
ENDROOT
BRANCH   1   2
ATOM      2  P   UNL     1       6.307  -3.180  22.515  0.00  0.00    +0.483 P 
ATOM      3  O   UNL     1       5.640  -3.482  21.208  0.00  0.00    -0.227 OA
BRANCH   2   4
ATOM      4  O   UNL     1       5.980  -1.730  23.094  0.00  0.00    -0.302 OA
ATOM      5  H   UNL     1       6.712  -1.105  22.939  0.00  0.00    +0.222 HD
ENDBRANCH   2   4
BRANCH   2   6
ATOM      6  O   UNL     1       5.939  -4.194  23.629  0.00  0.00    -0.186 OA
BRANCH   6   7
ATOM      7  P   UNL     1       5.730  -5.588  24.340  0.00  0.00    +0.492 P 
ATOM      8  O   UNL     1       4.262  -5.718  24.751  0.00  0.00    -0.226 OA
BRANCH   7   9
ATOM      9  O   UNL     1       5.317  -6.375  22.856  0.00  0.00    -0.302 OA
ATOM     10  H   UNL     1       4.357  -6.546  22.933  0.00  0.00    +0.222 HD
ENDBRANCH   7   9
BRANCH   7  11
ATOM     11  O   UNL     1       6.141  -4.800  25.824  0.00  0.00    -0.186 OA
BRANCH  11  12
ATOM     12  P   UNL     1       7.698  -4.703  26.128  0.00  0.00    +0.481 P 
ATOM     13  O   UNL     1       8.173  -3.391  26.640  0.00  0.00    -0.227 OA
BRANCH  12  14
ATOM     14  O   UNL     1       8.379  -5.144  24.754  0.00  0.00    -0.302 OA
ATOM     15  H   UNL     1       8.803  -4.390  24.305  0.00  0.00    +0.222 HD
ENDBRANCH  12  14
BRANCH  12  16
ATOM     16  O   UNL     1       8.006  -5.964  27.052  0.00  0.00    -0.302 OA
ATOM     17  H   UNL     1       7.250  -6.239  27.607  0.00  0.00    +0.222 HD
ENDBRANCH  12  16
ENDBRANCH  11  12
ENDBRANCH   7  11
ENDBRANCH   6   7
ENDBRANCH   2   6
ENDBRANCH   1   2
BRANCH   1  18
ATOM     18  C   UNL     1       8.473  -1.842  22.075  0.00  0.00    +0.208 C 
BRANCH  18  22
ATOM     19  C   UNL     1      10.217   0.484  23.647  0.00  0.00    +0.248 C 
ATOM     20  C   UNL     1       9.855  -0.510  24.696  0.00  0.00    +0.025 C 
ATOM     21  C   UNL     1       9.770  -1.729  24.160  0.00  0.00    +0.007 C 
ATOM     22  C   UNL     1       9.868  -1.630  22.676  0.00  0.00    +0.170 C 
ATOM     23  O   UNL     1      10.319  -0.287  22.435  0.00  0.00    -0.343 OA
BRANCH  19  32
ATOM     24  C   UNL     1       5.656   2.497  22.871  0.00  0.00    +0.051 C 
ATOM     25  C   UNL     1       7.148   2.520  22.961  0.00  0.00    +0.030 A 
ATOM     26  C   UNL     1       7.793   3.831  22.711  0.00  0.00    +0.257 A 
ATOM     27  O   UNL     1       7.153   4.816  22.361  0.00  0.00    -0.267 OA
ATOM     28  N   UNL     1       9.140   3.867  22.882  0.00  0.00    -0.275 N 
ATOM     29  H   UNL     1       9.601   4.752  22.744  0.00  0.00    +0.173 HD
ATOM     30  C   UNL     1       9.940   2.823  23.257  0.00  0.00    +0.332 A 
ATOM     31  O   UNL     1      11.129   3.030  23.466  0.00  0.00    -0.246 OA
ATOM     32  N   UNL     1       9.305   1.586  23.385  0.00  0.00    -0.270 N 
ATOM     33  C   UNL     1       7.931   1.469  23.247  0.00  0.00    +0.102 A 
ENDBRANCH  19  32
ENDBRANCH  18  22
ENDBRANCH   1  18
TORSDOF 12
ENDMDL
MODEL 3
REMARK VINA RESULT:      -6.5      4.411      7.532
REMARK  Name = 
REMARK  13 active torsions:
REMARK  status: ('A' for Active; 'I' for Inactive)
REMARK    1  A    between atoms: C_1  and  C_2
REMARK    2  A    between atoms: N_4  and  C_5
REMARK    3  A    between atoms: C_8  and  C_10
REMARK    4  A    between atoms: C_10  and  O_11
REMARK    5  A    between atoms: O_11  and  P_12
REMARK    6  A    between atoms: P_12  and  O_13
REMARK    7  A    between atoms: P_12  and  O_15
REMARK    8  A    between atoms: O_15  and  P_16
REMARK    9  A    between atoms: P_16  and  O_17
REMARK   10  A    between atoms: P_16  and  O_19
REMARK   11  A    between atoms: O_19  and  P_20
REMARK   12  A    between atoms: P_20  and  O_21
REMARK   13  A    between atoms: P_20  and  O_22
REMARK                            x       y       z     vdW  Elec       q    Type
REMARK                         _______ _______ _______ _____ _____    ______ ____
ROOT
ATOM      1  O   UNL     1       8.015  -3.008  22.210  0.00  0.00    -0.283 OA
ENDROOT
BRANCH   1   2
ATOM      2  P   UNL     1       6.429  -3.091  22.444  0.00  0.00    +0.483 P 
ATOM      3  O   UNL     1       5.690  -3.634  21.260  0.00  0.00    -0.227 OA
BRANCH   2   4
ATOM      4  O   UNL     1       6.101  -1.564  22.771  0.00  0.00    -0.302 OA
ATOM      5  H   UNL     1       6.590  -0.956  22.188  0.00  0.00    +0.222 HD
ENDBRANCH   2   4
BRANCH   2   6
ATOM      6  O   UNL     1       6.160  -3.890  23.744  0.00  0.00    -0.186 OA
BRANCH   6   7
ATOM      7  P   UNL     1       5.879  -4.161  25.274  0.00  0.00    +0.492 P 
ATOM      8  O   UNL     1       7.215  -4.277  26.010  0.00  0.00    -0.226 OA
BRANCH   7   9
ATOM      9  O   UNL     1       5.887  -2.474  25.658  0.00  0.00    -0.302 OA
ATOM     10  H   UNL     1       5.646  -2.442  26.606  0.00  0.00    +0.222 HD
ENDBRANCH   7   9
BRANCH   7  11
ATOM     11  O   UNL     1       5.871  -5.848  24.890  0.00  0.00    -0.186 OA
BRANCH  11  12
ATOM     12  P   UNL     1       4.577  -6.360  24.122  0.00  0.00    +0.481 P 
ATOM     13  O   UNL     1       4.013  -7.649  24.600  0.00  0.00    -0.227 OA
BRANCH  12  14
ATOM     14  O   UNL     1       5.028  -6.380  22.592  0.00  0.00    -0.302 OA
ATOM     15  H   UNL     1       4.565  -5.697  22.072  0.00  0.00    +0.222 HD
ENDBRANCH  12  14
BRANCH  12  16
ATOM     16  O   UNL     1       3.581  -5.115  24.140  0.00  0.00    -0.302 OA
ATOM     17  H   UNL     1       3.656  -4.563  24.944  0.00  0.00    +0.222 HD
ENDBRANCH  12  16
ENDBRANCH  11  12
ENDBRANCH   7  11
ENDBRANCH   6   7
ENDBRANCH   2   6
ENDBRANCH   1   2
BRANCH   1  18
ATOM     18  C   UNL     1       8.593  -1.718  22.111  0.00  0.00    +0.208 C 
BRANCH  18  22
ATOM     19  C   UNL     1       9.977   0.551  24.075  0.00  0.00    +0.248 C 
ATOM     20  C   UNL     1       9.394  -0.462  24.998  0.00  0.00    +0.025 C 
ATOM     21  C   UNL     1       9.417  -1.668  24.426  0.00  0.00    +0.007 C 
ATOM     22  C   UNL     1       9.830  -1.536  23.000  0.00  0.00    +0.170 C 
ATOM     23  O   UNL     1      10.330  -0.192  22.894  0.00  0.00    -0.343 OA
BRANCH  19  32
ATOM     24  C   UNL     1       5.577   2.758  22.965  0.00  0.00    +0.051 C 
ATOM     25  C   UNL     1       7.067   2.687  23.074  0.00  0.00    +0.030 A 
ATOM     26  C   UNL     1       7.805   3.903  22.659  0.00  0.00    +0.257 A 
ATOM     27  O   UNL     1       7.241   4.874  22.169  0.00  0.00    -0.267 OA
ATOM     28  N   UNL     1       9.150   3.866  22.844  0.00  0.00    -0.275 N 
ATOM     29  H   UNL     1       9.675   4.690  22.595  0.00  0.00    +0.173 HD
ATOM     30  C   UNL     1       9.871   2.830  23.369  0.00  0.00    +0.332 A 
ATOM     31  O   UNL     1      11.071   2.978  23.566  0.00  0.00    -0.246 OA
ATOM     32  N   UNL     1       9.148   1.670  23.653  0.00  0.00    -0.270 N 
ATOM     33  C   UNL     1       7.770   1.632  23.511  0.00  0.00    +0.102 A 
ENDBRANCH  19  32
ENDBRANCH  18  22
ENDBRANCH   1  18
TORSDOF 12
ENDMDL
MODEL 4
REMARK VINA RESULT:      -6.5      1.894      2.723
REMARK  Name = 
REMARK  13 active torsions:
REMARK  status: ('A' for Active; 'I' for Inactive)
REMARK    1  A    between atoms: C_1  and  C_2
REMARK    2  A    between atoms: N_4  and  C_5
REMARK    3  A    between atoms: C_8  and  C_10
REMARK    4  A    between atoms: C_10  and  O_11
REMARK    5  A    between atoms: O_11  and  P_12
REMARK    6  A    between atoms: P_12  and  O_13
REMARK    7  A    between atoms: P_12  and  O_15
REMARK    8  A    between atoms: O_15  and  P_16
REMARK    9  A    between atoms: P_16  and  O_17
REMARK   10  A    between atoms: P_16  and  O_19
REMARK   11  A    between atoms: O_19  and  P_20
REMARK   12  A    between atoms: P_20  and  O_21
REMARK   13  A    between atoms: P_20  and  O_22
REMARK                            x       y       z     vdW  Elec       q    Type
REMARK                         _______ _______ _______ _____ _____    ______ ____
ROOT
ATOM      1  O   UNL     1       6.199  -0.026  24.277  0.00  0.00    -0.283 OA
ENDROOT
BRANCH   1   2
ATOM      2  P   UNL     1       5.763   1.516  24.187  0.00  0.00    +0.483 P 
ATOM      3  O   UNL     1       4.383   1.767  24.714  0.00  0.00    -0.227 OA
BRANCH   2   4
ATOM      4  O   UNL     1       5.919   1.775  22.621  0.00  0.00    -0.302 OA
ATOM      5  H   UNL     1       5.410   1.131  22.095  0.00  0.00    +0.222 HD
ENDBRANCH   2   4
BRANCH   2   6
ATOM      6  O   UNL     1       6.844   2.380  24.888  0.00  0.00    -0.186 OA
BRANCH   6   7
ATOM      7  P   UNL     1       8.220   3.120  25.109  0.00  0.00    +0.492 P 
ATOM      8  O   UNL     1       8.051   4.598  24.750  0.00  0.00    -0.226 OA
BRANCH   7   9
ATOM      9  O   UNL     1       7.826   3.539  26.741  0.00  0.00    -0.302 OA
ATOM     10  H   UNL     1       6.918   3.899  26.684  0.00  0.00    +0.222 HD
ENDBRANCH   7   9
BRANCH   7  11
ATOM     11  O   UNL     1       8.614   2.703  23.477  0.00  0.00    -0.186 OA
BRANCH  11  12
ATOM     12  P   UNL     1      10.169   2.565  23.172  0.00  0.00    +0.481 P 
ATOM     13  O   UNL     1      10.924   1.662  24.078  0.00  0.00    -0.227 OA
BRANCH  12  14
ATOM     14  O   UNL     1      10.690   4.073  23.181  0.00  0.00    -0.302 OA
ATOM     15  H   UNL     1      10.261   4.597  23.883  0.00  0.00    +0.222 HD
ENDBRANCH  12  14
BRANCH  12  16
ATOM     16  O   UNL     1      10.243   2.215  21.619  0.00  0.00    -0.302 OA
ATOM     17  H   UNL     1       9.523   2.613  21.091  0.00  0.00    +0.222 HD
ENDBRANCH  12  16
ENDBRANCH  11  12
ENDBRANCH   7  11
ENDBRANCH   6   7
ENDBRANCH   2   6
ENDBRANCH   1   2
BRANCH   1  18
ATOM     18  C   UNL     1       7.454  -0.315  24.867  0.00  0.00    +0.208 C 
BRANCH  18  22
ATOM     19  C   UNL     1       8.699  -3.215  23.885  0.00  0.00    +0.248 C 
ATOM     20  C   UNL     1       7.784  -2.790  22.789  0.00  0.00    +0.025 C 
ATOM     21  C   UNL     1       7.752  -1.458  22.712  0.00  0.00    +0.007 C 
ATOM     22  C   UNL     1       8.480  -0.873  23.873  0.00  0.00    +0.170 C 
ATOM     23  O   UNL     1       9.187  -1.984  24.451  0.00  0.00    -0.343 OA
BRANCH  19  32
ATOM     24  C   UNL     1       5.038  -4.689  27.030  0.00  0.00    +0.051 C 
ATOM     25  C   UNL     1       6.436  -4.659  26.497  0.00  0.00    +0.030 A 
ATOM     26  C   UNL     1       7.415  -5.523  27.199  0.00  0.00    +0.257 A 
ATOM     27  O   UNL     1       7.124  -6.153  28.208  0.00  0.00    -0.267 OA
ATOM     28  N   UNL     1       8.660  -5.561  26.657  0.00  0.00    -0.275 N 
ATOM     29  H   UNL     1       9.339  -6.161  27.098  0.00  0.00    +0.173 HD
ATOM     30  C   UNL     1       9.084  -4.887  25.545  0.00  0.00    +0.332 A 
ATOM     31  O   UNL     1      10.213  -5.096  25.117  0.00  0.00    -0.246 OA
ATOM     32  N   UNL     1       8.158  -4.010  24.976  0.00  0.00    -0.270 N 
ATOM     33  C   UNL     1       6.861  -3.928  25.456  0.00  0.00    +0.102 A 
ENDBRANCH  19  32
ENDBRANCH  18  22
ENDBRANCH   1  18
TORSDOF 12
ENDMDL
MODEL 5
REMARK VINA RESULT:      -6.5      1.131      2.295
REMARK  Name = 
REMARK  13 active torsions:
REMARK  status: ('A' for Active; 'I' for Inactive)
REMARK    1  A    between atoms: C_1  and  C_2
REMARK    2  A    between atoms: N_4  and  C_5
REMARK    3  A    between atoms: C_8  and  C_10
REMARK    4  A    between atoms: C_10  and  O_11
REMARK    5  A    between atoms: O_11  and  P_12
REMARK    6  A    between atoms: P_12  and  O_13
REMARK    7  A    between atoms: P_12  and  O_15
REMARK    8  A    between atoms: O_15  and  P_16
REMARK    9  A    between atoms: P_16  and  O_17
REMARK   10  A    between atoms: P_16  and  O_19
REMARK   11  A    between atoms: O_19  and  P_20
REMARK   12  A    between atoms: P_20  and  O_21
REMARK   13  A    between atoms: P_20  and  O_22
REMARK                            x       y       z     vdW  Elec       q    Type
REMARK                         _______ _______ _______ _____ _____    ______ ____
ROOT
ATOM      1  O   UNL     1       6.610  -1.485  24.856  0.00  0.00    -0.283 OA
ENDROOT
BRANCH   1   2
ATOM      2  P   UNL     1       6.240  -0.087  25.552  0.00  0.00    +0.483 P 
ATOM      3  O   UNL     1       5.807  -0.239  26.979  0.00  0.00    -0.227 OA
BRANCH   2   4
ATOM      4  O   UNL     1       5.091   0.433  24.575  0.00  0.00    -0.302 OA
ATOM      5  H   UNL     1       5.219   0.114  23.664  0.00  0.00    +0.222 HD
ENDBRANCH   2   4
BRANCH   2   6
ATOM      6  O   UNL     1       7.436   0.884  25.383  0.00  0.00    -0.186 OA
BRANCH   6   7
ATOM      7  P   UNL     1       8.381   1.953  24.706  0.00  0.00    +0.492 P 
ATOM      8  O   UNL     1       7.600   2.678  23.608  0.00  0.00    -0.226 OA
BRANCH   7   9
ATOM      9  O   UNL     1       7.884   3.202  25.795  0.00  0.00    -0.302 OA
ATOM     10  H   UNL     1       7.080   3.575  25.381  0.00  0.00    +0.222 HD
ENDBRANCH   7   9
BRANCH   7  11
ATOM     11  O   UNL     1       8.876   0.704  23.617  0.00  0.00    -0.186 OA
BRANCH  11  12
ATOM     12  P   UNL     1      10.146  -0.134  24.082  0.00  0.00    +0.481 P 
ATOM     13  O   UNL     1      11.297   0.665  24.577  0.00  0.00    -0.227 OA
BRANCH  12  14
ATOM     14  O   UNL     1      10.485  -1.040  22.814  0.00  0.00    -0.302 OA
ATOM     15  H   UNL     1      10.891  -0.517  22.097  0.00  0.00    +0.222 HD
ENDBRANCH  12  14
BRANCH  12  16
ATOM     16  O   UNL     1       9.562  -1.216  25.095  0.00  0.00    -0.302 OA
ATOM     17  H   UNL     1       9.810  -2.136  24.874  0.00  0.00    +0.222 HD
ENDBRANCH  12  16
ENDBRANCH  11  12
ENDBRANCH   7  11
ENDBRANCH   6   7
ENDBRANCH   2   6
ENDBRANCH   1   2
BRANCH   1  18
ATOM     18  C   UNL     1       6.161  -1.690  23.528  0.00  0.00    +0.208 C 
BRANCH  18  22
ATOM     19  C   UNL     1       7.864  -4.513  23.293  0.00  0.00    +0.248 C 
ATOM     20  C   UNL     1       6.820  -4.596  22.234  0.00  0.00    +0.025 C 
ATOM     21  C   UNL     1       6.534  -3.375  21.778  0.00  0.00    +0.007 C 
ATOM     22  C   UNL     1       7.211  -2.354  22.627  0.00  0.00    +0.170 C 
ATOM     23  O   UNL     1       8.146  -3.107  23.418  0.00  0.00    -0.343 OA
BRANCH  19  32
ATOM     24  C   UNL     1       4.710  -6.004  26.940  0.00  0.00    +0.051 C 
ATOM     25  C   UNL     1       6.046  -5.661  26.361  0.00  0.00    +0.030 A 
ATOM     26  C   UNL     1       7.204  -5.808  27.274  0.00  0.00    +0.257 A 
ATOM     27  O   UNL     1       7.071  -6.103  28.456  0.00  0.00    -0.267 OA
ATOM     28  N   UNL     1       8.423  -5.581  26.719  0.00  0.00    -0.275 N 
ATOM     29  H   UNL     1       9.231  -5.700  27.310  0.00  0.00    +0.173 HD
ATOM     30  C   UNL     1       8.674  -5.237  25.420  0.00  0.00    +0.332 A 
ATOM     31  O   UNL     1       9.836  -5.160  25.038  0.00  0.00    -0.246 OA
ATOM     32  N   UNL     1       7.549  -5.013  24.623  0.00  0.00    -0.270 N 
ATOM     33  C   UNL     1       6.271  -5.241  25.107  0.00  0.00    +0.102 A 
ENDBRANCH  19  32
ENDBRANCH  18  22
ENDBRANCH   1  18
TORSDOF 12
ENDMDL
MODEL 6
REMARK VINA RESULT:      -6.4      2.759      5.707
REMARK  Name = 
REMARK  13 active torsions:
REMARK  status: ('A' for Active; 'I' for Inactive)
REMARK    1  A    between atoms: C_1  and  C_2
REMARK    2  A    between atoms: N_4  and  C_5
REMARK    3  A    between atoms: C_8  and  C_10
REMARK    4  A    between atoms: C_10  and  O_11
REMARK    5  A    between atoms: O_11  and  P_12
REMARK    6  A    between atoms: P_12  and  O_13
REMARK    7  A    between atoms: P_12  and  O_15
REMARK    8  A    between atoms: O_15  and  P_16
REMARK    9  A    between atoms: P_16  and  O_17
REMARK   10  A    between atoms: P_16  and  O_19
REMARK   11  A    between atoms: O_19  and  P_20
REMARK   12  A    between atoms: P_20  and  O_21
REMARK   13  A    between atoms: P_20  and  O_22
REMARK                            x       y       z     vdW  Elec       q    Type
REMARK                         _______ _______ _______ _____ _____    ______ ____
ROOT
ATOM      1  O   UNL     1       7.663  -0.300  24.866  0.00  0.00    -0.283 OA
ENDROOT
BRANCH   1   2
ATOM      2  P   UNL     1       7.374  -0.564  26.423  0.00  0.00    +0.483 P 
ATOM      3  O   UNL     1       7.203   0.699  27.210  0.00  0.00    -0.227 OA
BRANCH   2   4
ATOM      4  O   UNL     1       8.667  -1.409  26.822  0.00  0.00    -0.302 OA
ATOM      5  H   UNL     1       9.445  -0.838  26.959  0.00  0.00    +0.222 HD
ENDBRANCH   2   4
BRANCH   2   6
ATOM      6  O   UNL     1       6.163  -1.523  26.548  0.00  0.00    -0.186 OA
BRANCH   6   7
ATOM      7  P   UNL     1       5.343  -2.872  26.511  0.00  0.00    +0.492 P 
ATOM      8  O   UNL     1       4.625  -3.052  27.850  0.00  0.00    -0.226 OA
BRANCH   7   9
ATOM      9  O   UNL     1       3.918  -2.085  25.926  0.00  0.00    -0.302 OA
ATOM     10  H   UNL     1       3.898  -2.301  24.972  0.00  0.00    +0.222 HD
ENDBRANCH   7   9
BRANCH   7  11
ATOM     11  O   UNL     1       6.768  -3.659  27.097  0.00  0.00    -0.186 OA
BRANCH  11  12
ATOM     12  P   UNL     1       6.579  -5.185  27.500  0.00  0.00    +0.481 P 
ATOM     13  O   UNL     1       6.428  -5.452  28.954  0.00  0.00    -0.227 OA
BRANCH  12  14
ATOM     14  O   UNL     1       7.838  -5.909  26.838  0.00  0.00    -0.302 OA
ATOM     15  H   UNL     1       8.495  -6.171  27.509  0.00  0.00    +0.222 HD
ENDBRANCH  12  14
BRANCH  12  16
ATOM     16  O   UNL     1       5.393  -5.701  26.570  0.00  0.00    -0.302 OA
ATOM     17  H   UNL     1       5.132  -5.065  25.875  0.00  0.00    +0.222 HD
ENDBRANCH  12  16
ENDBRANCH  11  12
ENDBRANCH   7  11
ENDBRANCH   6   7
ENDBRANCH   2   6
ENDBRANCH   1   2
BRANCH   1  18
ATOM     18  C   UNL     1       8.513   0.784  24.536  0.00  0.00    +0.208 C 
BRANCH  18  22
ATOM     19  C   UNL     1      10.059  -1.753  23.087  0.00  0.00    +0.248 C 
ATOM     20  C   UNL     1      10.046  -0.669  22.067  0.00  0.00    +0.025 C 
ATOM     21  C   UNL     1      10.088   0.523  22.667  0.00  0.00    +0.007 C 
ATOM     22  C   UNL     1       9.929   0.347  24.138  0.00  0.00    +0.170 C 
ATOM     23  O   UNL     1      10.097  -1.065  24.351  0.00  0.00    -0.343 OA
BRANCH  19  32
ATOM     24  C   UNL     1       5.493  -3.409  21.719  0.00  0.00    +0.051 C 
ATOM     25  C   UNL     1       6.755  -3.425  22.521  0.00  0.00    +0.030 A 
ATOM     26  C   UNL     1       6.868  -4.507  23.528  0.00  0.00    +0.257 A 
ATOM     27  O   UNL     1       5.949  -5.285  23.756  0.00  0.00    -0.267 OA
ATOM     28  N   UNL     1       8.051  -4.571  24.192  0.00  0.00    -0.275 N 
ATOM     29  H   UNL     1       8.166  -5.314  24.863  0.00  0.00    +0.173 HD
ATOM     30  C   UNL     1       9.127  -3.746  24.018  0.00  0.00    +0.332 A 
ATOM     31  O   UNL     1      10.166  -3.986  24.621  0.00  0.00    -0.246 OA
ATOM     32  N   UNL     1       8.940  -2.682  23.132  0.00  0.00    -0.270 N 
ATOM     33  C   UNL     1       7.770  -2.557  22.401  0.00  0.00    +0.102 A 
ENDBRANCH  19  32
ENDBRANCH  18  22
ENDBRANCH   1  18
TORSDOF 12
ENDMDL
MODEL 7
REMARK VINA RESULT:      -6.3      1.289      2.511
REMARK  Name = 
REMARK  13 active torsions:
REMARK  status: ('A' for Active; 'I' for Inactive)
REMARK    1  A    between atoms: C_1  and  C_2
REMARK    2  A    between atoms: N_4  and  C_5
REMARK    3  A    between atoms: C_8  and  C_10
REMARK    4  A    between atoms: C_10  and  O_11
REMARK    5  A    between atoms: O_11  and  P_12
REMARK    6  A    between atoms: P_12  and  O_13
REMARK    7  A    between atoms: P_12  and  O_15
REMARK    8  A    between atoms: O_15  and  P_16
REMARK    9  A    between atoms: P_16  and  O_17
REMARK   10  A    between atoms: P_16  and  O_19
REMARK   11  A    between atoms: O_19  and  P_20
REMARK   12  A    between atoms: P_20  and  O_21
REMARK   13  A    between atoms: P_20  and  O_22
REMARK                            x       y       z     vdW  Elec       q    Type
REMARK                         _______ _______ _______ _____ _____    ______ ____
ROOT
ATOM      1  O   UNL     1       7.905  -1.210  24.609  0.00  0.00    -0.283 OA
ENDROOT
BRANCH   1   2
ATOM      2  P   UNL     1       9.048  -0.094  24.444  0.00  0.00    +0.483 P 
ATOM      3  O   UNL     1      10.375  -0.668  24.050  0.00  0.00    -0.227 OA
BRANCH   2   4
ATOM      4  O   UNL     1       9.028   0.563  25.898  0.00  0.00    -0.302 OA
ATOM      5  H   UNL     1       8.535   1.403  25.908  0.00  0.00    +0.222 HD
ENDBRANCH   2   4
BRANCH   2   6
ATOM      6  O   UNL     1       8.543   0.993  23.461  0.00  0.00    -0.186 OA
BRANCH   6   7
ATOM      7  P   UNL     1       8.312   2.428  22.846  0.00  0.00    +0.492 P 
ATOM      8  O   UNL     1       9.496   3.322  23.216  0.00  0.00    -0.226 OA
BRANCH   7   9
ATOM      9  O   UNL     1       9.152   2.028  21.387  0.00  0.00    -0.302 OA
ATOM     10  H   UNL     1       8.771   1.169  21.117  0.00  0.00    +0.222 HD
ENDBRANCH   7   9
BRANCH   7  11
ATOM     11  O   UNL     1       7.471   2.828  24.304  0.00  0.00    -0.186 OA
BRANCH  11  12
ATOM     12  P   UNL     1       5.947   2.378  24.350  0.00  0.00    +0.481 P 
ATOM     13  O   UNL     1       4.973   3.442  24.709  0.00  0.00    -0.227 OA
BRANCH  12  14
ATOM     14  O   UNL     1       5.950   1.139  25.355  0.00  0.00    -0.302 OA
ATOM     15  H   UNL     1       5.850   0.292  24.880  0.00  0.00    +0.222 HD
ENDBRANCH  12  14
BRANCH  12  16
ATOM     16  O   UNL     1       5.701   1.651  22.953  0.00  0.00    -0.302 OA
ATOM     17  H   UNL     1       5.929   0.701  22.959  0.00  0.00    +0.222 HD
ENDBRANCH  12  16
ENDBRANCH  11  12
ENDBRANCH   7  11
ENDBRANCH   6   7
ENDBRANCH   2   6
ENDBRANCH   1   2
BRANCH   1  18
ATOM     18  C   UNL     1       7.132  -1.524  23.464  0.00  0.00    +0.208 C 
BRANCH  18  22
ATOM     19  C   UNL     1       7.694  -4.779  23.333  0.00  0.00    +0.248 C 
ATOM     20  C   UNL     1       6.600  -4.531  22.353  0.00  0.00    +0.025 C 
ATOM     21  C   UNL     1       6.727  -3.311  21.826  0.00  0.00    +0.007 C 
ATOM     22  C   UNL     1       7.794  -2.563  22.549  0.00  0.00    +0.170 C 
ATOM     23  O   UNL     1       8.467  -3.564  23.332  0.00  0.00    -0.343 OA
BRANCH  19  32
ATOM     24  C   UNL     1       4.465  -5.190  27.189  0.00  0.00    +0.051 C 
ATOM     25  C   UNL     1       5.815  -5.203  26.546  0.00  0.00    +0.030 A 
ATOM     26  C   UNL     1       6.956  -5.511  27.441  0.00  0.00    +0.257 A 
ATOM     27  O   UNL     1       6.817  -5.656  28.650  0.00  0.00    -0.267 OA
ATOM     28  N   UNL     1       8.168  -5.610  26.836  0.00  0.00    -0.275 N 
ATOM     29  H   UNL     1       8.958  -5.845  27.417  0.00  0.00    +0.173 HD
ATOM     30  C   UNL     1       8.427  -5.455  25.503  0.00  0.00    +0.332 A 
ATOM     31  O   UNL     1       9.559  -5.670  25.086  0.00  0.00    -0.246 OA
ATOM     32  N   UNL     1       7.341  -5.068  24.714  0.00  0.00    -0.270 N 
ATOM     33  C   UNL     1       6.068  -4.965  25.251  0.00  0.00    +0.102 A 
ENDBRANCH  19  32
ENDBRANCH  18  22
ENDBRANCH   1  18
TORSDOF 12
ENDMDL
MODEL 8
REMARK VINA RESULT:      -6.3      2.684      4.601
REMARK  Name = 
REMARK  13 active torsions:
REMARK  status: ('A' for Active; 'I' for Inactive)
REMARK    1  A    between atoms: C_1  and  C_2
REMARK    2  A    between atoms: N_4  and  C_5
REMARK    3  A    between atoms: C_8  and  C_10
REMARK    4  A    between atoms: C_10  and  O_11
REMARK    5  A    between atoms: O_11  and  P_12
REMARK    6  A    between atoms: P_12  and  O_13
REMARK    7  A    between atoms: P_12  and  O_15
REMARK    8  A    between atoms: O_15  and  P_16
REMARK    9  A    between atoms: P_16  and  O_17
REMARK   10  A    between atoms: P_16  and  O_19
REMARK   11  A    between atoms: O_19  and  P_20
REMARK   12  A    between atoms: P_20  and  O_21
REMARK   13  A    between atoms: P_20  and  O_22
REMARK                            x       y       z     vdW  Elec       q    Type
REMARK                         _______ _______ _______ _____ _____    ______ ____
ROOT
ATOM      1  O   UNL     1       8.381   2.039  23.833  0.00  0.00    -0.283 OA
ENDROOT
BRANCH   1   2
ATOM      2  P   UNL     1       7.765   2.775  22.547  0.00  0.00    +0.483 P 
ATOM      3  O   UNL     1       6.375   2.320  22.221  0.00  0.00    -0.227 OA
BRANCH   2   4
ATOM      4  O   UNL     1       8.850   2.393  21.442  0.00  0.00    -0.302 OA
ATOM      5  H   UNL     1       8.789   1.456  21.183  0.00  0.00    +0.222 HD
ENDBRANCH   2   4
BRANCH   2   6
ATOM      6  O   UNL     1       7.866   4.308  22.755  0.00  0.00    -0.186 OA
BRANCH   6   7
ATOM      7  P   UNL     1       7.395   5.794  23.006  0.00  0.00    +0.492 P 
ATOM      8  O   UNL     1       7.096   6.453  21.658  0.00  0.00    -0.226 OA
BRANCH   7   9
ATOM      9  O   UNL     1       5.727   5.339  23.081  0.00  0.00    -0.302 OA
ATOM     10  H   UNL     1       5.724   4.528  23.628  0.00  0.00    +0.222 HD
ENDBRANCH   7   9
BRANCH   7  11
ATOM     11  O   UNL     1       9.062   6.249  22.930  0.00  0.00    -0.186 OA
BRANCH  11  12
ATOM     12  P   UNL     1       9.985   5.623  24.063  0.00  0.00    +0.481 P 
ATOM     13  O   UNL     1      11.025   6.527  24.619  0.00  0.00    -0.227 OA
BRANCH  12  14
ATOM     14  O   UNL     1      10.572   4.303  23.386  0.00  0.00    -0.302 OA
ATOM     15  H   UNL     1      10.291   4.221  22.456  0.00  0.00    +0.222 HD
ENDBRANCH  12  14
BRANCH  12  16
ATOM     16  O   UNL     1       8.962   5.007  25.119  0.00  0.00    -0.302 OA
ATOM     17  H   UNL     1       8.484   5.680  25.642  0.00  0.00    +0.222 HD
ENDBRANCH  12  16
ENDBRANCH  11  12
ENDBRANCH   7  11
ENDBRANCH   6   7
ENDBRANCH   2   6
ENDBRANCH   1   2
BRANCH   1  18
ATOM     18  C   UNL     1       8.426   0.623  23.815  0.00  0.00    +0.208 C 
BRANCH  18  22
ATOM     19  C   UNL     1      10.009  -2.276  23.713  0.00  0.00    +0.248 C 
ATOM     20  C   UNL     1      10.354  -1.597  22.433  0.00  0.00    +0.025 C 
ATOM     21  C   UNL     1      10.371  -0.274  22.609  0.00  0.00    +0.007 C 
ATOM     22  C   UNL     1       9.844   0.057  23.963  0.00  0.00    +0.170 C 
ATOM     23  O   UNL     1       9.810  -1.204  24.653  0.00  0.00    -0.343 OA
BRANCH  19  32
ATOM     24  C   UNL     1       5.223  -3.420  22.595  0.00  0.00    +0.051 C 
ATOM     25  C   UNL     1       6.541  -3.622  23.272  0.00  0.00    +0.030 A 
ATOM     26  C   UNL     1       6.646  -4.819  24.140  0.00  0.00    +0.257 A 
ATOM     27  O   UNL     1       5.687  -5.548  24.365  0.00  0.00    -0.267 OA
ATOM     28  N   UNL     1       7.870  -5.047  24.681  0.00  0.00    -0.275 N 
ATOM     29  H   UNL     1       7.978  -5.869  25.255  0.00  0.00    +0.173 HD
ATOM     30  C   UNL     1       8.994  -4.289  24.502  0.00  0.00    +0.332 A 
ATOM     31  O   UNL     1      10.055  -4.674  24.977  0.00  0.00    -0.246 OA
ATOM     32  N   UNL     1       8.824  -3.119  23.758  0.00  0.00    -0.270 N 
ATOM     33  C   UNL     1       7.612  -2.823  23.155  0.00  0.00    +0.102 A 
ENDBRANCH  19  32
ENDBRANCH  18  22
ENDBRANCH   1  18
TORSDOF 12
ENDMDL
MODEL 9
REMARK VINA RESULT:      -6.2      2.125      3.180
REMARK  Name = 
REMARK  13 active torsions:
REMARK  status: ('A' for Active; 'I' for Inactive)
REMARK    1  A    between atoms: C_1  and  C_2
REMARK    2  A    between atoms: N_4  and  C_5
REMARK    3  A    between atoms: C_8  and  C_10
REMARK    4  A    between atoms: C_10  and  O_11
REMARK    5  A    between atoms: O_11  and  P_12
REMARK    6  A    between atoms: P_12  and  O_13
REMARK    7  A    between atoms: P_12  and  O_15
REMARK    8  A    between atoms: O_15  and  P_16
REMARK    9  A    between atoms: P_16  and  O_17
REMARK   10  A    between atoms: P_16  and  O_19
REMARK   11  A    between atoms: O_19  and  P_20
REMARK   12  A    between atoms: P_20  and  O_21
REMARK   13  A    between atoms: P_20  and  O_22
REMARK                            x       y       z     vdW  Elec       q    Type
REMARK                         _______ _______ _______ _____ _____    ______ ____
ROOT
ATOM      1  O   UNL     1       7.563  -1.807  25.610  0.00  0.00    -0.283 OA
ENDROOT
BRANCH   1   2
ATOM      2  P   UNL     1       7.993  -0.493  26.427  0.00  0.00    +0.483 P 
ATOM      3  O   UNL     1       9.104  -0.745  27.399  0.00  0.00    -0.227 OA
BRANCH   2   4
ATOM      4  O   UNL     1       6.604  -0.106  27.111  0.00  0.00    -0.302 OA
ATOM      5  H   UNL     1       6.239   0.720  26.745  0.00  0.00    +0.222 HD
ENDBRANCH   2   4
BRANCH   2   6
ATOM      6  O   UNL     1       8.318   0.636  25.415  0.00  0.00    -0.186 OA
BRANCH   6   7
ATOM      7  P   UNL     1       8.110   1.935  24.542  0.00  0.00    +0.492 P 
ATOM      8  O   UNL     1       7.757   1.519  23.113  0.00  0.00    -0.226 OA
BRANCH   7   9
ATOM      9  O   UNL     1       6.413   1.987  24.877  0.00  0.00    -0.302 OA
ATOM     10  H   UNL     1       6.063   1.166  24.476  0.00  0.00    +0.222 HD
ENDBRANCH   7   9
BRANCH   7  11
ATOM     11  O   UNL     1       9.806   1.882  24.207  0.00  0.00    -0.186 OA
BRANCH  11  12
ATOM     12  P   UNL     1      10.322   2.965  23.163  0.00  0.00    +0.481 P 
ATOM     13  O   UNL     1      11.632   3.590  23.479  0.00  0.00    -0.227 OA
BRANCH  12  14
ATOM     14  O   UNL     1       9.115   4.005  23.071  0.00  0.00    -0.302 OA
ATOM     15  H   UNL     1       8.922   4.249  22.147  0.00  0.00    +0.222 HD
ENDBRANCH  12  14
BRANCH  12  16
ATOM     16  O   UNL     1      10.219   2.238  21.748  0.00  0.00    -0.302 OA
ATOM     17  H   UNL     1      10.594   2.759  21.010  0.00  0.00    +0.222 HD
ENDBRANCH  12  16
ENDBRANCH  11  12
ENDBRANCH   7  11
ENDBRANCH   6   7
ENDBRANCH   2   6
ENDBRANCH   1   2
BRANCH   1  18
ATOM     18  C   UNL     1       8.533  -2.828  25.462  0.00  0.00    +0.208 C 
BRANCH  18  22
ATOM     19  C   UNL     1       7.442  -4.435  22.788  0.00  0.00    +0.248 C 
ATOM     20  C   UNL     1       7.163  -2.996  22.521  0.00  0.00    +0.025 C 
ATOM     21  C   UNL     1       8.081  -2.235  23.121  0.00  0.00    +0.007 C 
ATOM     22  C   UNL     1       8.933  -3.081  24.003  0.00  0.00    +0.170 C 
ATOM     23  O   UNL     1       8.615  -4.430  23.622  0.00  0.00    -0.343 OA
BRANCH  19  32
ATOM     24  C   UNL     1       5.139  -6.295  26.874  0.00  0.00    +0.051 C 
ATOM     25  C   UNL     1       5.382  -6.149  25.406  0.00  0.00    +0.030 A 
ATOM     26  C   UNL     1       4.503  -6.949  24.521  0.00  0.00    +0.257 A 
ATOM     27  O   UNL     1       3.688  -7.751  24.962  0.00  0.00    -0.267 OA
ATOM     28  N   UNL     1       4.668  -6.745  23.188  0.00  0.00    -0.275 N 
ATOM     29  H   UNL     1       4.065  -7.256  22.563  0.00  0.00    +0.173 HD
ATOM     30  C   UNL     1       5.554  -5.886  22.600  0.00  0.00    +0.332 A 
ATOM     31  O   UNL     1       5.522  -5.736  21.384  0.00  0.00    -0.246 OA
ATOM     32  N   UNL     1       6.429  -5.227  23.467  0.00  0.00    -0.270 N 
ATOM     33  C   UNL     1       6.313  -5.365  24.841  0.00  0.00    +0.102 A 
ENDBRANCH  19  32
ENDBRANCH  18  22
ENDBRANCH   1  18
TORSDOF 12
ENDMDL
