MODEL 1
REMARK VINA RESULT:      -6.6      0.000      0.000
REMARK  Name = 
REMARK  7 active torsions:
REMARK  status: ('A' for Active; 'I' for Inactive)
REMARK    1  A    between atoms: O_1  and  C_2
REMARK    2  A    between atoms: C_2  and  C_3
REMARK    3  A    between atoms: C_6  and  N_18
REMARK    4  A    between atoms: C_11  and  O_13
REMARK    5  A    between atoms: O_13  and  P_14
REMARK    6  A    between atoms: P_14  and  O_15
REMARK    7  A    between atoms: P_14  and  O_16
REMARK                            x       y       z     vdW  Elec       q    Type
REMARK                         _______ _______ _______ _____ _____    ______ ____
ROOT
ATOM      1  C   UNL     1       9.282  -0.007  24.892  0.00  0.00    +0.178 C 
ATOM      2  C   UNL     1       8.525  -0.357  23.609  0.00  0.00    +0.199 C 
ATOM      3  C   UNL     1       8.390  -1.876  23.643  0.00  0.00    +0.247 C 
ATOM      4  F   UNL     1       9.036  -2.424  22.587  0.00  0.00    -0.238 F 
ATOM      5  C   UNL     1       9.032  -2.297  24.971  0.00  0.00    +0.260 C 
ATOM      6  O   UNL     1       9.066  -1.109  25.791  0.00  0.00    -0.345 OA
ENDROOT
BRANCH   5   7
ATOM      7  N   UNL     1       8.363  -3.398  25.666  0.00  0.00    -0.271 N 
ATOM      8  C   UNL     1       9.015  -4.632  25.652  0.00  0.00    +0.331 A 
ATOM      9  O   UNL     1      10.065  -4.850  25.051  0.00  0.00    -0.246 OA
ATOM     10  N   UNL     1       8.424  -5.629  26.368  0.00  0.00    -0.275 N 
ATOM     11  H   UNL     1       8.907  -6.514  26.378  0.00  0.00    +0.173 HD
ATOM     12  C   UNL     1       7.357  -5.491  27.201  0.00  0.00    +0.254 A 
ATOM     13  O   UNL     1       6.945  -6.394  27.923  0.00  0.00    -0.268 OA
ATOM     14  C   UNL     1       6.719  -4.167  27.205  0.00  0.00    +0.088 A 
ATOM     15  C   UNL     1       7.243  -3.195  26.453  0.00  0.00    +0.098 A 
ENDBRANCH   5   7
BRANCH   1  16
ATOM     16  C   UNL     1      10.790   0.249  24.717  0.00  0.00    +0.190 C 
BRANCH  16  17
ATOM     17  O   UNL     1      11.048   1.582  24.296  0.00  0.00    -0.392 OA
ATOM     18  H   UNL     1      11.388   2.079  25.060  0.00  0.00    +0.210 HD
ENDBRANCH  16  17
ENDBRANCH   1  16
BRANCH   2  19
ATOM     19  O   UNL     1       9.199   0.169  22.481  0.00  0.00    -0.278 OA
BRANCH  19  20
ATOM     20  P   UNL     1       8.698   1.526  21.818  0.00  0.00    +0.473 P 
ATOM     21  O   UNL     1       7.733   2.366  22.577  0.00  0.00    -0.228 OA
BRANCH  20  22
ATOM     22  O   UNL     1       8.355   1.155  20.310  0.00  0.00    -0.303 OA
ATOM     23  H   UNL     1       8.833   0.350  20.034  0.00  0.00    +0.222 HD
ENDBRANCH  20  22
BRANCH  20  24
ATOM     24  O   UNL     1      10.081   2.300  21.603  0.00  0.00    -0.303 OA
ATOM     25  H   UNL     1      10.335   2.273  20.663  0.00  0.00    +0.222 HD
ENDBRANCH  20  24
ENDBRANCH  19  20
ENDBRANCH   2  19
TORSDOF 7
ENDMDL
MODEL 2
REMARK VINA RESULT:      -6.5      3.173      6.867
REMARK  Name = 
REMARK  7 active torsions:
REMARK  status: ('A' for Active; 'I' for Inactive)
REMARK    1  A    between atoms: O_1  and  C_2
REMARK    2  A    between atoms: C_2  and  C_3
REMARK    3  A    between atoms: C_6  and  N_18
REMARK    4  A    between atoms: C_11  and  O_13
REMARK    5  A    between atoms: O_13  and  P_14
REMARK    6  A    between atoms: P_14  and  O_15
REMARK    7  A    between atoms: P_14  and  O_16
REMARK                            x       y       z     vdW  Elec       q    Type
REMARK                         _______ _______ _______ _____ _____    ______ ____
ROOT
ATOM      1  C   UNL     1       7.204  -2.367  23.533  0.00  0.00    +0.178 C 
ATOM      2  C   UNL     1       8.233  -2.874  24.544  0.00  0.00    +0.199 C 
ATOM      3  C   UNL     1       9.520  -2.137  24.188  0.00  0.00    +0.247 C 
ATOM      4  F   UNL     1      10.476  -3.021  23.817  0.00  0.00    -0.238 F 
ATOM      5  C   UNL     1       9.132  -1.212  23.026  0.00  0.00    +0.260 C 
ATOM      6  O   UNL     1       7.694  -1.096  23.072  0.00  0.00    -0.345 OA
ENDROOT
BRANCH   5   7
ATOM      7  N   UNL     1       9.769   0.105  23.038  0.00  0.00    -0.271 N 
ATOM      8  C   UNL     1       9.623   0.880  21.886  0.00  0.00    +0.331 A 
ATOM      9  O   UNL     1       9.052   0.498  20.866  0.00  0.00    -0.246 OA
ATOM     10  N   UNL     1      10.151   2.135  21.938  0.00  0.00    -0.275 N 
ATOM     11  H   UNL     1      10.025   2.703  21.114  0.00  0.00    +0.173 HD
ATOM     12  C   UNL     1      10.665   2.741  23.042  0.00  0.00    +0.254 A 
ATOM     13  O   UNL     1      11.008   3.919  23.065  0.00  0.00    -0.268 OA
ATOM     14  C   UNL     1      10.774   1.896  24.240  0.00  0.00    +0.088 A 
ATOM     15  C   UNL     1      10.327   0.640  24.187  0.00  0.00    +0.098 A 
ENDBRANCH   5   7
BRANCH   1  16
ATOM     16  C   UNL     1       6.941  -3.301  22.336  0.00  0.00    +0.190 C 
BRANCH  16  17
ATOM     17  O   UNL     1       6.087  -4.380  22.694  0.00  0.00    -0.392 OA
ATOM     18  H   UNL     1       6.588  -4.981  23.273  0.00  0.00    +0.210 HD
ENDBRANCH  16  17
ENDBRANCH   1  16
BRANCH   2  19
ATOM     19  O   UNL     1       8.310  -4.287  24.502  0.00  0.00    -0.278 OA
BRANCH  19  20
ATOM     20  P   UNL     1       8.378  -5.119  25.858  0.00  0.00    +0.473 P 
ATOM     21  O   UNL     1       7.198  -5.942  26.238  0.00  0.00    -0.228 OA
BRANCH  20  22
ATOM     22  O   UNL     1       8.981  -4.117  26.935  0.00  0.00    -0.303 OA
ATOM     23  H   UNL     1       9.934  -4.281  27.065  0.00  0.00    +0.222 HD
ENDBRANCH  20  22
BRANCH  20  24
ATOM     24  O   UNL     1       9.656  -6.043  25.595  0.00  0.00    -0.303 OA
ATOM     25  H   UNL     1       9.422  -6.980  25.723  0.00  0.00    +0.222 HD
ENDBRANCH  20  24
ENDBRANCH  19  20
ENDBRANCH   2  19
TORSDOF 7
ENDMDL
MODEL 3
REMARK VINA RESULT:      -6.5      3.357      6.398
REMARK  Name = 
REMARK  7 active torsions:
REMARK  status: ('A' for Active; 'I' for Inactive)
REMARK    1  A    between atoms: O_1  and  C_2
REMARK    2  A    between atoms: C_2  and  C_3
REMARK    3  A    between atoms: C_6  and  N_18
REMARK    4  A    between atoms: C_11  and  O_13
REMARK    5  A    between atoms: O_13  and  P_14
REMARK    6  A    between atoms: P_14  and  O_15
REMARK    7  A    between atoms: P_14  and  O_16
REMARK                            x       y       z     vdW  Elec       q    Type
REMARK                         _______ _______ _______ _____ _____    ______ ____
ROOT
ATOM      1  C   UNL     1       8.727  -4.812  24.067  0.00  0.00    +0.178 C 
ATOM      2  C   UNL     1       7.332  -4.378  23.613  0.00  0.00    +0.199 C 
ATOM      3  C   UNL     1       7.223  -2.918  24.042  0.00  0.00    +0.247 C 
ATOM      4  F   UNL     1       6.218  -2.771  24.938  0.00  0.00    -0.238 F 
ATOM      5  C   UNL     1       8.585  -2.593  24.669  0.00  0.00    +0.260 C 
ATOM      6  O   UNL     1       9.497  -3.604  24.190  0.00  0.00    -0.345 OA
ENDROOT
BRANCH   5   7
ATOM      7  N   UNL     1       9.093  -1.249  24.391  0.00  0.00    -0.271 N 
ATOM      8  C   UNL     1       9.294  -0.416  25.494  0.00  0.00    +0.331 A 
ATOM      9  O   UNL     1       9.016  -0.727  26.651  0.00  0.00    -0.246 OA
ATOM     10  N   UNL     1       9.843   0.803  25.232  0.00  0.00    -0.275 N 
ATOM     11  H   UNL     1      10.010   1.395  26.031  0.00  0.00    +0.173 HD
ATOM     12  C   UNL     1      10.341   1.214  24.034  0.00  0.00    +0.254 A 
ATOM     13  O   UNL     1      10.942   2.273  23.884  0.00  0.00    -0.268 OA
ATOM     14  C   UNL     1      10.132   0.295  22.907  0.00  0.00    +0.088 A 
ATOM     15  C   UNL     1       9.531  -0.876  23.132  0.00  0.00    +0.098 A 
ENDBRANCH   5   7
BRANCH   1  16
ATOM     16  C   UNL     1       8.772  -5.607  25.386  0.00  0.00    +0.190 C 
BRANCH  16  17
ATOM     17  O   UNL     1      10.101  -5.733  25.874  0.00  0.00    -0.392 OA
ATOM     18  H   UNL     1      10.696  -5.290  25.245  0.00  0.00    +0.210 HD
ENDBRANCH  16  17
ENDBRANCH   1  16
BRANCH   2  19
ATOM     19  O   UNL     1       6.348  -5.245  24.147  0.00  0.00    -0.278 OA
BRANCH  19  20
ATOM     20  P   UNL     1       5.234  -5.865  23.194  0.00  0.00    +0.473 P 
ATOM     21  O   UNL     1       4.210  -4.950  22.620  0.00  0.00    -0.228 OA
BRANCH  20  22
ATOM     22  O   UNL     1       4.742  -7.186  23.928  0.00  0.00    -0.303 OA
ATOM     23  H   UNL     1       5.350  -7.427  24.652  0.00  0.00    +0.222 HD
ENDBRANCH  20  22
BRANCH  20  24
ATOM     24  O   UNL     1       6.134  -6.509  22.039  0.00  0.00    -0.303 OA
ATOM     25  H   UNL     1       5.934  -6.084  21.185  0.00  0.00    +0.222 HD
ENDBRANCH  20  24
ENDBRANCH  19  20
ENDBRANCH   2  19
TORSDOF 7
ENDMDL
MODEL 4
REMARK VINA RESULT:      -6.4      3.846      7.069
REMARK  Name = 
REMARK  7 active torsions:
REMARK  status: ('A' for Active; 'I' for Inactive)
REMARK    1  A    between atoms: O_1  and  C_2
REMARK    2  A    between atoms: C_2  and  C_3
REMARK    3  A    between atoms: C_6  and  N_18
REMARK    4  A    between atoms: C_11  and  O_13
REMARK    5  A    between atoms: O_13  and  P_14
REMARK    6  A    between atoms: P_14  and  O_15
REMARK    7  A    between atoms: P_14  and  O_16
REMARK                            x       y       z     vdW  Elec       q    Type
REMARK                         _______ _______ _______ _____ _____    ______ ____
ROOT
ATOM      1  C   UNL     1       6.045  -4.205  22.283  0.00  0.00    +0.178 C 
ATOM      2  C   UNL     1       6.105  -4.263  23.810  0.00  0.00    +0.199 C 
ATOM      3  C   UNL     1       7.358  -3.475  24.178  0.00  0.00    +0.247 C 
ATOM      4  F   UNL     1       8.247  -4.281  24.806  0.00  0.00    -0.238 F 
ATOM      5  C   UNL     1       7.909  -2.970  22.838  0.00  0.00    +0.260 C 
ATOM      6  O   UNL     1       6.814  -3.052  21.901  0.00  0.00    -0.345 OA
ENDROOT
BRANCH   5   7
ATOM      7  N   UNL     1       8.479  -1.622  22.867  0.00  0.00    -0.271 N 
ATOM      8  C   UNL     1       9.870  -1.533  22.929  0.00  0.00    +0.331 A 
ATOM      9  O   UNL     1      10.619  -2.505  23.018  0.00  0.00    -0.246 OA
ATOM     10  N   UNL     1      10.393  -0.277  22.875  0.00  0.00    -0.275 N 
ATOM     11  H   UNL     1      11.399  -0.214  22.895  0.00  0.00    +0.173 HD
ATOM     12  C   UNL     1       9.701   0.867  22.620  0.00  0.00    +0.254 A 
ATOM     13  O   UNL     1      10.240   1.956  22.452  0.00  0.00    -0.268 OA
ATOM     14  C   UNL     1       8.241   0.722  22.535  0.00  0.00    +0.088 A 
ATOM     15  C   UNL     1       7.704  -0.494  22.657  0.00  0.00    +0.098 A 
ENDBRANCH   5   7
BRANCH   1  16
ATOM     16  C   UNL     1       6.567  -5.458  21.556  0.00  0.00    +0.190 C 
BRANCH  16  17
ATOM     17  O   UNL     1       5.568  -6.467  21.469  0.00  0.00    -0.392 OA
ATOM     18  H   UNL     1       5.762  -7.140  22.144  0.00  0.00    +0.210 HD
ENDBRANCH  16  17
ENDBRANCH   1  16
BRANCH   2  19
ATOM     19  O   UNL     1       6.079  -5.607  24.254  0.00  0.00    -0.278 OA
BRANCH  19  20
ATOM     20  P   UNL     1       4.787  -6.176  24.991  0.00  0.00    +0.473 P 
ATOM     21  O   UNL     1       3.584  -5.305  25.075  0.00  0.00    -0.228 OA
BRANCH  20  22
ATOM     22  O   UNL     1       5.328  -6.851  26.324  0.00  0.00    -0.303 OA
ATOM     23  H   UNL     1       5.943  -6.254  26.791  0.00  0.00    +0.222 HD
ENDBRANCH  20  22
BRANCH  20  24
ATOM     24  O   UNL     1       4.483  -7.485  24.122  0.00  0.00    -0.303 OA
ATOM     25  H   UNL     1       5.129  -8.183  24.335  0.00  0.00    +0.222 HD
ENDBRANCH  20  24
ENDBRANCH  19  20
ENDBRANCH   2  19
TORSDOF 7
ENDMDL
MODEL 5
REMARK VINA RESULT:      -6.1      3.216      3.965
REMARK  Name = 
REMARK  7 active torsions:
REMARK  status: ('A' for Active; 'I' for Inactive)
REMARK    1  A    between atoms: O_1  and  C_2
REMARK    2  A    between atoms: C_2  and  C_3
REMARK    3  A    between atoms: C_6  and  N_18
REMARK    4  A    between atoms: C_11  and  O_13
REMARK    5  A    between atoms: O_13  and  P_14
REMARK    6  A    between atoms: P_14  and  O_15
REMARK    7  A    between atoms: P_14  and  O_16
REMARK                            x       y       z     vdW  Elec       q    Type
REMARK                         _______ _______ _______ _____ _____    ______ ____
ROOT
ATOM      1  C   UNL     1       8.834  -2.657  23.299  0.00  0.00    +0.178 C 
ATOM      2  C   UNL     1       8.210  -1.830  24.425  0.00  0.00    +0.199 C 
ATOM      3  C   UNL     1       6.754  -2.282  24.474  0.00  0.00    +0.247 C 
ATOM      4  F   UNL     1       5.934  -1.241  24.195  0.00  0.00    -0.238 F 
ATOM      5  C   UNL     1       6.649  -3.379  23.406  0.00  0.00    +0.260 C 
ATOM      6  O   UNL     1       8.001  -3.819  23.153  0.00  0.00    -0.345 OA
ENDROOT
BRANCH   5   7
ATOM      7  N   UNL     1       5.784  -4.507  23.754  0.00  0.00    -0.271 N 
ATOM      8  C   UNL     1       5.266  -5.248  22.691  0.00  0.00    +0.331 A 
ATOM      9  O   UNL     1       5.447  -4.972  21.507  0.00  0.00    -0.246 OA
ATOM     10  N   UNL     1       4.528  -6.342  23.028  0.00  0.00    -0.275 N 
ATOM     11  H   UNL     1       4.173  -6.891  22.259  0.00  0.00    +0.173 HD
ATOM     12  C   UNL     1       4.379  -6.852  24.280  0.00  0.00    +0.254 A 
ATOM     13  O   UNL     1       3.810  -7.914  24.512  0.00  0.00    -0.268 OA
ATOM     14  C   UNL     1       4.964  -6.053  25.367  0.00  0.00    +0.088 A 
ATOM     15  C   UNL     1       5.631  -4.938  25.061  0.00  0.00    +0.098 A 
ENDBRANCH   5   7
BRANCH   1  16
ATOM     16  C   UNL     1       8.975  -1.929  21.949  0.00  0.00    +0.190 C 
BRANCH  16  17
ATOM     17  O   UNL     1      10.309  -1.489  21.730  0.00  0.00    -0.392 OA
ATOM     18  H   UNL     1      10.386  -0.581  22.072  0.00  0.00    +0.210 HD
ENDBRANCH  16  17
ENDBRANCH   1  16
BRANCH   2  19
ATOM     19  O   UNL     1       8.411  -0.449  24.191  0.00  0.00    -0.278 OA
BRANCH  19  20
ATOM     20  P   UNL     1       9.597   0.317  24.927  0.00  0.00    +0.473 P 
ATOM     21  O   UNL     1      10.924   0.371  24.255  0.00  0.00    -0.228 OA
BRANCH  20  22
ATOM     22  O   UNL     1       9.534  -0.166  26.440  0.00  0.00    -0.303 OA
ATOM     23  H   UNL     1       8.632  -0.456  26.674  0.00  0.00    +0.222 HD
ENDBRANCH  20  22
BRANCH  20  24
ATOM     24  O   UNL     1       8.976   1.784  25.079  0.00  0.00    -0.303 OA
ATOM     25  H   UNL     1       8.081   1.728  25.459  0.00  0.00    +0.222 HD
ENDBRANCH  20  24
ENDBRANCH  19  20
ENDBRANCH   2  19
TORSDOF 7
ENDMDL
MODEL 6
REMARK VINA RESULT:      -6.1      3.343      6.868
REMARK  Name = 
REMARK  7 active torsions:
REMARK  status: ('A' for Active; 'I' for Inactive)
REMARK    1  A    between atoms: O_1  and  C_2
REMARK    2  A    between atoms: C_2  and  C_3
REMARK    3  A    between atoms: C_6  and  N_18
REMARK    4  A    between atoms: C_11  and  O_13
REMARK    5  A    between atoms: O_13  and  P_14
REMARK    6  A    between atoms: P_14  and  O_15
REMARK    7  A    between atoms: P_14  and  O_16
REMARK                            x       y       z     vdW  Elec       q    Type
REMARK                         _______ _______ _______ _____ _____    ______ ____
ROOT
ATOM      1  C   UNL     1       7.281  -2.260  23.619  0.00  0.00    +0.178 C 
ATOM      2  C   UNL     1       8.467  -2.452  24.564  0.00  0.00    +0.199 C 
ATOM      3  C   UNL     1       9.395  -1.279  24.265  0.00  0.00    +0.247 C 
ATOM      4  F   UNL     1      10.583  -1.732  23.800  0.00  0.00    -0.238 F 
ATOM      5  C   UNL     1       8.654  -0.458  23.201  0.00  0.00    +0.260 C 
ATOM      6  O   UNL     1       7.270  -0.864  23.276  0.00  0.00    -0.345 OA
ENDROOT
BRANCH   5   7
ATOM      7  N   UNL     1       8.785   0.994  23.331  0.00  0.00    -0.271 N 
ATOM      8  C   UNL     1       8.732   1.735  22.149  0.00  0.00    +0.331 A 
ATOM      9  O   UNL     1       8.642   1.237  21.028  0.00  0.00    -0.246 OA
ATOM     10  N   UNL     1       8.774   3.089  22.288  0.00  0.00    -0.275 N 
ATOM     11  H   UNL     1       8.711   3.624  21.436  0.00  0.00    +0.173 HD
ATOM     12  C   UNL     1       8.715   3.774  23.462  0.00  0.00    +0.254 A 
ATOM     13  O   UNL     1       8.626   4.996  23.525  0.00  0.00    -0.268 OA
ATOM     14  C   UNL     1       8.746   2.953  24.681  0.00  0.00    +0.088 A 
ATOM     15  C   UNL     1       8.776   1.624  24.564  0.00  0.00    +0.098 A 
ENDBRANCH   5   7
BRANCH   1  16
ATOM     16  C   UNL     1       7.311  -3.121  22.342  0.00  0.00    +0.190 C 
BRANCH  16  17
ATOM     17  O   UNL     1       6.748  -4.408  22.567  0.00  0.00    -0.392 OA
ATOM     18  H   UNL     1       7.462  -5.001  22.858  0.00  0.00    +0.210 HD
ENDBRANCH  16  17
ENDBRANCH   1  16
BRANCH   2  19
ATOM     19  O   UNL     1       9.035  -3.737  24.388  0.00  0.00    -0.278 OA
BRANCH  19  20
ATOM     20  P   UNL     1       8.935  -4.817  25.553  0.00  0.00    +0.473 P 
ATOM     21  O   UNL     1       9.026  -4.344  26.961  0.00  0.00    -0.228 OA
BRANCH  20  22
ATOM     22  O   UNL     1       9.873  -6.016  25.095  0.00  0.00    -0.303 OA
ATOM     23  H   UNL     1      10.702  -5.679  24.707  0.00  0.00    +0.222 HD
ENDBRANCH  20  22
BRANCH  20  24
ATOM     24  O   UNL     1       7.501  -5.461  25.260  0.00  0.00    -0.303 OA
ATOM     25  H   UNL     1       7.410  -5.654  24.310  0.00  0.00    +0.222 HD
ENDBRANCH  20  24
ENDBRANCH  19  20
ENDBRANCH   2  19
TORSDOF 7
ENDMDL
MODEL 7
REMARK VINA RESULT:      -6.0      3.360      6.432
REMARK  Name = 
REMARK  7 active torsions:
REMARK  status: ('A' for Active; 'I' for Inactive)
REMARK    1  A    between atoms: O_1  and  C_2
REMARK    2  A    between atoms: C_2  and  C_3
REMARK    3  A    between atoms: C_6  and  N_18
REMARK    4  A    between atoms: C_11  and  O_13
REMARK    5  A    between atoms: O_13  and  P_14
REMARK    6  A    between atoms: P_14  and  O_15
REMARK    7  A    between atoms: P_14  and  O_16
REMARK                            x       y       z     vdW  Elec       q    Type
REMARK                         _______ _______ _______ _____ _____    ______ ____
ROOT
ATOM      1  C   UNL     1       9.016  -4.107  24.472  0.00  0.00    +0.178 C 
ATOM      2  C   UNL     1       7.935  -3.977  23.398  0.00  0.00    +0.199 C 
ATOM      3  C   UNL     1       7.581  -2.493  23.384  0.00  0.00    +0.247 C 
ATOM      4  F   UNL     1       6.282  -2.321  23.727  0.00  0.00    -0.238 F 
ATOM      5  C   UNL     1       8.522  -1.857  24.416  0.00  0.00    +0.260 C 
ATOM      6  O   UNL     1       9.599  -2.800  24.607  0.00  0.00    -0.345 OA
ENDROOT
BRANCH   5   7
ATOM      7  N   UNL     1       9.035  -0.534  24.059  0.00  0.00    -0.271 N 
ATOM      8  C   UNL     1       9.108   0.406  25.088  0.00  0.00    +0.331 A 
ATOM      9  O   UNL     1       8.717   0.202  26.236  0.00  0.00    -0.246 OA
ATOM     10  N   UNL     1       9.662   1.607  24.764  0.00  0.00    -0.275 N 
ATOM     11  H   UNL     1       9.736   2.278  25.513  0.00  0.00    +0.173 HD
ATOM     12  C   UNL     1      10.274   1.914  23.588  0.00  0.00    +0.254 A 
ATOM     13  O   UNL     1      10.871   2.968  23.395  0.00  0.00    -0.268 OA
ATOM     14  C   UNL     1      10.196   0.884  22.542  0.00  0.00    +0.088 A 
ATOM     15  C   UNL     1       9.594  -0.274  22.819  0.00  0.00    +0.098 A 
ENDBRANCH   5   7
BRANCH   1  16
ATOM     16  C   UNL     1       8.526  -4.615  25.841  0.00  0.00    +0.190 C 
BRANCH  16  17
ATOM     17  O   UNL     1       8.716  -6.018  25.976  0.00  0.00    -0.392 OA
ATOM     18  H   UNL     1       9.207  -6.331  25.196  0.00  0.00    +0.210 HD
ENDBRANCH  16  17
ENDBRANCH   1  16
BRANCH   2  19
ATOM     19  O   UNL     1       6.860  -4.856  23.672  0.00  0.00    -0.278 OA
BRANCH  19  20
ATOM     20  P   UNL     1       6.058  -5.530  22.473  0.00  0.00    +0.473 P 
ATOM     21  O   UNL     1       6.827  -5.995  21.287  0.00  0.00    -0.228 OA
BRANCH  20  22
ATOM     22  O   UNL     1       4.794  -4.596  22.236  0.00  0.00    -0.303 OA
ATOM     23  H   UNL     1       5.070  -3.687  22.016  0.00  0.00    +0.222 HD
ENDBRANCH  20  22
BRANCH  20  24
ATOM     24  O   UNL     1       5.357  -6.760  23.217  0.00  0.00    -0.303 OA
ATOM     25  H   UNL     1       4.727  -7.197  22.616  0.00  0.00    +0.222 HD
ENDBRANCH  20  24
ENDBRANCH  19  20
ENDBRANCH   2  19
TORSDOF 7
ENDMDL
MODEL 8
REMARK VINA RESULT:      -6.0      2.423      3.137
REMARK  Name = 
REMARK  7 active torsions:
REMARK  status: ('A' for Active; 'I' for Inactive)
REMARK    1  A    between atoms: O_1  and  C_2
REMARK    2  A    between atoms: C_2  and  C_3
REMARK    3  A    between atoms: C_6  and  N_18
REMARK    4  A    between atoms: C_11  and  O_13
REMARK    5  A    between atoms: O_13  and  P_14
REMARK    6  A    between atoms: P_14  and  O_15
REMARK    7  A    between atoms: P_14  and  O_16
REMARK                            x       y       z     vdW  Elec       q    Type
REMARK                         _______ _______ _______ _____ _____    ______ ____
ROOT
ATOM      1  C   UNL     1       7.548   0.495  24.360  0.00  0.00    +0.178 C 
ATOM      2  C   UNL     1       8.730   0.629  23.399  0.00  0.00    +0.199 C 
ATOM      3  C   UNL     1       9.202  -0.802  23.164  0.00  0.00    +0.247 C 
ATOM      4  F   UNL     1      10.474  -0.951  23.605  0.00  0.00    -0.238 F 
ATOM      5  C   UNL     1       8.226  -1.672  23.967  0.00  0.00    +0.260 C 
ATOM      6  O   UNL     1       7.063  -0.850  24.206  0.00  0.00    -0.345 OA
ENDROOT
BRANCH   5   7
ATOM      7  N   UNL     1       7.856  -2.939  23.335  0.00  0.00    -0.271 N 
ATOM      8  C   UNL     1       8.350  -4.101  23.929  0.00  0.00    +0.331 A 
ATOM      9  O   UNL     1       9.111  -4.111  24.895  0.00  0.00    -0.246 OA
ATOM     10  N   UNL     1       7.935  -5.277  23.381  0.00  0.00    -0.275 N 
ATOM     11  H   UNL     1       8.274  -6.117  23.825  0.00  0.00    +0.173 HD
ATOM     12  C   UNL     1       6.981  -5.419  22.421  0.00  0.00    +0.254 A 
ATOM     13  O   UNL     1       6.551  -6.508  22.055  0.00  0.00    -0.268 OA
ATOM     14  C   UNL     1       6.468  -4.169  21.844  0.00  0.00    +0.088 A 
ATOM     15  C   UNL     1       6.917  -3.005  22.319  0.00  0.00    +0.098 A 
ENDBRANCH   5   7
BRANCH   1  16
ATOM     16  C   UNL     1       7.869   0.778  25.840  0.00  0.00    +0.190 C 
BRANCH  16  17
ATOM     17  O   UNL     1       7.953   2.174  26.099  0.00  0.00    -0.392 OA
ATOM     18  H   UNL     1       8.865   2.375  26.370  0.00  0.00    +0.210 HD
ENDBRANCH  16  17
ENDBRANCH   1  16
BRANCH   2  19
ATOM     19  O   UNL     1       9.701   1.511  23.931  0.00  0.00    -0.278 OA
BRANCH  19  20
ATOM     20  P   UNL     1      10.161   2.785  23.094  0.00  0.00    +0.473 P 
ATOM     21  O   UNL     1      11.437   3.451  23.471  0.00  0.00    -0.228 OA
BRANCH  20  22
ATOM     22  O   UNL     1       8.856   3.680  22.941  0.00  0.00    -0.303 OA
ATOM     23  H   UNL     1       8.463   3.571  22.055  0.00  0.00    +0.222 HD
ENDBRANCH  20  22
BRANCH  20  24
ATOM     24  O   UNL     1      10.252   2.174  21.619  0.00  0.00    -0.303 OA
ATOM     25  H   UNL     1      10.353   1.207  21.665  0.00  0.00    +0.222 HD
ENDBRANCH  20  24
ENDBRANCH  19  20
ENDBRANCH   2  19
TORSDOF 7
ENDMDL
MODEL 9
REMARK VINA RESULT:      -6.0      3.214      6.793
REMARK  Name = 
REMARK  7 active torsions:
REMARK  status: ('A' for Active; 'I' for Inactive)
REMARK    1  A    between atoms: O_1  and  C_2
REMARK    2  A    between atoms: C_2  and  C_3
REMARK    3  A    between atoms: C_6  and  N_18
REMARK    4  A    between atoms: C_11  and  O_13
REMARK    5  A    between atoms: O_13  and  P_14
REMARK    6  A    between atoms: P_14  and  O_15
REMARK    7  A    between atoms: P_14  and  O_16
REMARK                            x       y       z     vdW  Elec       q    Type
REMARK                         _______ _______ _______ _____ _____    ______ ____
ROOT
ATOM      1  C   UNL     1       6.748  -3.827  23.734  0.00  0.00    +0.178 C 
ATOM      2  C   UNL     1       6.950  -3.950  25.245  0.00  0.00    +0.199 C 
ATOM      3  C   UNL     1       8.241  -3.188  25.525  0.00  0.00    +0.247 C 
ATOM      4  F   UNL     1       9.176  -4.025  26.032  0.00  0.00    -0.238 F 
ATOM      5  C   UNL     1       8.669  -2.630  24.161  0.00  0.00    +0.260 C 
ATOM      6  O   UNL     1       7.490  -2.664  23.328  0.00  0.00    -0.345 OA
ENDROOT
BRANCH   5   7
ATOM      7  N   UNL     1       9.254  -1.288  24.192  0.00  0.00    -0.271 N 
ATOM      8  C   UNL     1      10.186  -0.990  23.198  0.00  0.00    +0.331 A 
ATOM      9  O   UNL     1      10.576  -1.796  22.354  0.00  0.00    -0.246 OA
ATOM     10  N   UNL     1      10.664   0.285  23.187  0.00  0.00    -0.275 N 
ATOM     11  H   UNL     1      11.320   0.507  22.454  0.00  0.00    +0.173 HD
ATOM     12  C   UNL     1      10.210   1.315  23.952  0.00  0.00    +0.254 A 
ATOM     13  O   UNL     1      10.586   2.475  23.812  0.00  0.00    -0.268 OA
ATOM     14  C   UNL     1       9.209   0.961  24.968  0.00  0.00    +0.088 A 
ATOM     15  C   UNL     1       8.780  -0.301  25.040  0.00  0.00    +0.098 A 
ENDBRANCH   5   7
BRANCH   1  16
ATOM     16  C   UNL     1       7.186  -5.052  22.909  0.00  0.00    +0.190 C 
BRANCH  16  17
ATOM     17  O   UNL     1       6.169  -6.045  22.867  0.00  0.00    -0.392 OA
ATOM     18  H   UNL     1       5.369  -5.672  23.277  0.00  0.00    +0.210 HD
ENDBRANCH  16  17
ENDBRANCH   1  16
BRANCH   2  19
ATOM     19  O   UNL     1       6.952  -5.312  25.632  0.00  0.00    -0.278 OA
BRANCH  19  20
ATOM     20  P   UNL     1       6.269  -5.749  27.002  0.00  0.00    +0.473 P 
ATOM     21  O   UNL     1       5.346  -6.915  26.988  0.00  0.00    -0.228 OA
BRANCH  20  22
ATOM     22  O   UNL     1       5.769  -4.396  27.672  0.00  0.00    -0.303 OA
ATOM     23  H   UNL     1       4.835  -4.469  27.945  0.00  0.00    +0.222 HD
ENDBRANCH  20  22
BRANCH  20  24
ATOM     24  O   UNL     1       7.552  -6.048  27.910  0.00  0.00    -0.303 OA
ATOM     25  H   UNL     1       7.293  -6.570  28.690  0.00  0.00    +0.222 HD
ENDBRANCH  20  24
ENDBRANCH  19  20
ENDBRANCH   2  19
TORSDOF 7
ENDMDL
