MODEL 1
REMARK VINA RESULT:      -7.4      0.000      0.000
REMARK  Name = 
REMARK  12 active torsions:
REMARK  status: ('A' for Active; 'I' for Inactive)
REMARK    1  A    between atoms: C_1  and  O_2
REMARK    2  A    between atoms: O_2  and  C_3
REMARK    3  A    between atoms: C_3  and  C_5
REMARK    4  A    between atoms: C_6  and  C_7
REMARK    5  A    between atoms: C_9  and  C_10
REMARK    6  A    between atoms: C_11  and  C_23
REMARK    7  A    between atoms: C_12  and  C_14
REMARK    8  A    between atoms: C_18  and  N_20
REMARK    9  A    between atoms: C_23  and  O_25
REMARK   10  A    between atoms: O_25  and  C_26
REMARK   11  A    between atoms: N_31  and  C_32
REMARK   12  A    between atoms: C_32  and  C_33
REMARK                            x       y       z     vdW  Elec       q    Type
REMARK                         _______ _______ _______ _____ _____    ______ ____
ROOT
ATOM      1  C   UNL     1       2.800  -6.874  26.298  0.00  0.00    +0.065 C 
ATOM      2  C   UNL     1       4.328  -6.391  26.340  0.00  0.00    +0.096 C 
ATOM      3  C   UNL     1       4.832  -5.858  27.771  0.00  0.00    +0.065 C 
ATOM      4  C   UNL     1       3.881  -5.715  28.734  0.00  0.00    +0.016 C 
ATOM      5  C   UNL     1       4.151  -5.238  30.140  0.00  0.00    +0.061 C 
ATOM      6  N   UNL     1       2.548  -6.034  28.490  0.00  0.00    -0.321 N 
ATOM      7  H   UNL     1       1.939  -6.036  29.314  0.00  0.00    +0.152 HD
ATOM      8  C   UNL     1       2.002  -6.641  27.371  0.00  0.00    +0.016 C 
ATOM      9  C   UNL     1       0.521  -6.959  27.575  0.00  0.00    +0.061 C 
ENDROOT
BRANCH   2  10
ATOM     10  C   UNL     1       4.649  -5.328  25.260  0.00  0.00    -0.029 A 
ATOM     11  C   UNL     1       5.553  -5.607  24.211  0.00  0.00    +0.088 A 
ATOM     12  C   UNL     1       6.000  -4.563  23.382  0.00  0.00    +0.273 A 
ATOM     13  C   UNL     1       5.550  -3.250  23.547  0.00  0.00    +0.084 A 
ATOM     14  C   UNL     1       4.608  -2.987  24.538  0.00  0.00    +0.007 A 
ATOM     15  C   UNL     1       4.157  -4.015  25.377  0.00  0.00    +0.005 A 
BRANCH  12  16
ATOM     16  N   UNL     1       7.000  -4.816  22.354  0.00  0.00    +0.080 N 
ATOM     17  O   UNL     1       7.578  -3.831  21.868  0.00  0.00    +0.041 OA
ATOM     18  O   UNL     1       7.226  -5.994  22.066  0.00  0.00    -0.576 OA
ENDBRANCH  12  16
ENDBRANCH   2  10
BRANCH   1  19
ATOM     19  C   UNL     1       2.366  -7.656  25.071  0.00  0.00    +0.337 C 
ATOM     20  O   UNL     1       2.683  -8.814  24.864  0.00  0.00    -0.245 OA
BRANCH  19  22
ATOM     21  C   UNL     1       2.044  -6.407  23.002  0.00  0.00    +0.280 C 
ATOM     22  O   UNL     1       1.543  -6.943  24.245  0.00  0.00    -0.465 OA
ENDBRANCH  19  22
ENDBRANCH   1  19
BRANCH   3  23
ATOM     23  C   UNL     1       6.359  -5.550  27.955  0.00  0.00    +0.338 C 
ATOM     24  O   UNL     1       7.128  -6.419  28.388  0.00  0.00    -0.245 OA
BRANCH  23  25
ATOM     25  O   UNL     1       6.776  -4.297  27.616  0.00  0.00    -0.457 OA
BRANCH  25  26
ATOM     26  C   UNL     1       7.699  -3.824  26.496  0.00  0.00    +0.191 C 
ATOM     27  C   UNL     1       8.284  -2.363  26.597  0.00  0.00    +0.129 C 
ATOM     28  N   UNL     1       8.724  -1.835  25.268  0.00  0.00    -0.295 NA
ATOM     29  C   UNL     1       9.695  -2.706  24.590  0.00  0.00    +0.085 C 
ATOM     30  C   UNL     1       9.506  -4.231  24.744  0.00  0.00    +0.019 C 
ATOM     31  C   UNL     1       8.832  -4.754  26.037  0.00  0.00    +0.047 C 
BRANCH  28  32
ATOM     32  C   UNL     1       9.198  -0.399  25.232  0.00  0.00    +0.119 C 
BRANCH  32  33
ATOM     33  C   UNL     1       8.975   0.335  23.886  0.00  0.00    -0.033 A 
ATOM     34  C   UNL     1      10.039   0.798  23.078  0.00  0.00    +0.005 A 
ATOM     35  C   UNL     1       9.784   1.512  21.880  0.00  0.00    +0.000 A 
ATOM     36  C   UNL     1       8.481   1.764  21.479  0.00  0.00    +0.000 A 
ATOM     37  C   UNL     1       7.425   1.328  22.278  0.00  0.00    +0.000 A 
ATOM     38  C   UNL     1       7.678   0.632  23.463  0.00  0.00    +0.005 A 
ENDBRANCH  32  33
ENDBRANCH  28  32
ENDBRANCH  25  26
ENDBRANCH  23  25
ENDBRANCH   3  23
TORSDOF 9
ENDMDL
MODEL 2
REMARK VINA RESULT:      -7.3      3.842      7.009
REMARK  Name = 
REMARK  12 active torsions:
REMARK  status: ('A' for Active; 'I' for Inactive)
REMARK    1  A    between atoms: C_1  and  O_2
REMARK    2  A    between atoms: O_2  and  C_3
REMARK    3  A    between atoms: C_3  and  C_5
REMARK    4  A    between atoms: C_6  and  C_7
REMARK    5  A    between atoms: C_9  and  C_10
REMARK    6  A    between atoms: C_11  and  C_23
REMARK    7  A    between atoms: C_12  and  C_14
REMARK    8  A    between atoms: C_18  and  N_20
REMARK    9  A    between atoms: C_23  and  O_25
REMARK   10  A    between atoms: O_25  and  C_26
REMARK   11  A    between atoms: N_31  and  C_32
REMARK   12  A    between atoms: C_32  and  C_33
REMARK                            x       y       z     vdW  Elec       q    Type
REMARK                         _______ _______ _______ _____ _____    ______ ____
ROOT
ATOM      1  C   UNL     1       9.338  -0.472  23.636  0.00  0.00    +0.065 C 
ATOM      2  C   UNL     1       7.885  -1.101  23.887  0.00  0.00    +0.096 C 
ATOM      3  C   UNL     1       7.255  -0.799  25.335  0.00  0.00    +0.065 C 
ATOM      4  C   UNL     1       8.075  -0.198  26.239  0.00  0.00    +0.016 C 
ATOM      5  C   UNL     1       7.673   0.176  27.645  0.00  0.00    +0.061 C 
ATOM      6  N   UNL     1       9.383   0.151  25.912  0.00  0.00    -0.321 N 
ATOM      7  H   UNL     1       9.869   0.730  26.604  0.00  0.00    +0.152 HD
ATOM      8  C   UNL     1      10.003   0.093  24.675  0.00  0.00    +0.016 C 
ATOM      9  C   UNL     1      11.395   0.723  24.718  0.00  0.00    +0.061 C 
ENDROOT
BRANCH   2  10
ATOM     10  C   UNL     1       7.840  -2.627  23.621  0.00  0.00    -0.029 A 
ATOM     11  C   UNL     1       6.905  -3.182  22.720  0.00  0.00    +0.088 A 
ATOM     12  C   UNL     1       6.731  -4.577  22.669  0.00  0.00    +0.273 A 
ATOM     13  C   UNL     1       7.485  -5.441  23.468  0.00  0.00    +0.084 A 
ATOM     14  C   UNL     1       8.454  -4.898  24.308  0.00  0.00    +0.007 A 
ATOM     15  C   UNL     1       8.635  -3.510  24.377  0.00  0.00    +0.005 A 
BRANCH  12  16
ATOM     16  N   UNL     1       5.709  -5.160  21.812  0.00  0.00    +0.080 N 
ATOM     17  O   UNL     1       4.599  -5.380  22.319  0.00  0.00    +0.041 OA
ATOM     18  O   UNL     1       6.010  -5.359  20.632  0.00  0.00    -0.576 OA
ENDBRANCH  12  16
ENDBRANCH   2  10
BRANCH   1  19
ATOM     19  C   UNL     1       9.842  -0.471  22.203  0.00  0.00    +0.337 C 
ATOM     20  O   UNL     1      10.224  -1.473  21.624  0.00  0.00    -0.245 OA
BRANCH  19  22
ATOM     21  C   UNL     1       8.504   1.323  21.239  0.00  0.00    +0.280 C 
ATOM     22  O   UNL     1       9.778   0.760  21.614  0.00  0.00    -0.465 OA
ENDBRANCH  19  22
ENDBRANCH   1  19
BRANCH   3  23
ATOM     23  C   UNL     1       5.764  -1.207  25.598  0.00  0.00    +0.338 C 
ATOM     24  O   UNL     1       5.476  -2.369  25.914  0.00  0.00    -0.245 OA
BRANCH  23  25
ATOM     25  O   UNL     1       4.827  -0.225  25.459  0.00  0.00    -0.457 OA
BRANCH  25  26
ATOM     26  C   UNL     1       4.973   1.295  25.449  0.00  0.00    +0.191 C 
ATOM     27  C   UNL     1       5.488   1.972  24.121  0.00  0.00    +0.129 C 
ATOM     28  N   UNL     1       6.068   3.329  24.365  0.00  0.00    -0.295 NA
ATOM     29  C   UNL     1       5.142   4.241  25.054  0.00  0.00    +0.085 C 
ATOM     30  C   UNL     1       4.225   3.633  26.137  0.00  0.00    +0.019 C 
ATOM     31  C   UNL     1       3.816   2.146  25.994  0.00  0.00    +0.047 C 
BRANCH  28  32
ATOM     32  C   UNL     1       6.694   4.023  23.175  0.00  0.00    +0.119 C 
BRANCH  32  33
ATOM     33  C   UNL     1       8.109   4.604  23.421  0.00  0.00    -0.033 A 
ATOM     34  C   UNL     1       8.384   5.991  23.400  0.00  0.00    +0.005 A 
ATOM     35  C   UNL     1       9.706   6.472  23.577  0.00  0.00    +0.000 A 
ATOM     36  C   UNL     1      10.752   5.586  23.781  0.00  0.00    +0.000 A 
ATOM     37  C   UNL     1      10.494   4.215  23.786  0.00  0.00    +0.000 A 
ATOM     38  C   UNL     1       9.193   3.743  23.601  0.00  0.00    +0.005 A 
ENDBRANCH  32  33
ENDBRANCH  28  32
ENDBRANCH  25  26
ENDBRANCH  23  25
ENDBRANCH   3  23
TORSDOF 9
ENDMDL
MODEL 3
REMARK VINA RESULT:      -7.2      2.964      5.105
REMARK  Name = 
REMARK  12 active torsions:
REMARK  status: ('A' for Active; 'I' for Inactive)
REMARK    1  A    between atoms: C_1  and  O_2
REMARK    2  A    between atoms: O_2  and  C_3
REMARK    3  A    between atoms: C_3  and  C_5
REMARK    4  A    between atoms: C_6  and  C_7
REMARK    5  A    between atoms: C_9  and  C_10
REMARK    6  A    between atoms: C_11  and  C_23
REMARK    7  A    between atoms: C_12  and  C_14
REMARK    8  A    between atoms: C_18  and  N_20
REMARK    9  A    between atoms: C_23  and  O_25
REMARK   10  A    between atoms: O_25  and  C_26
REMARK   11  A    between atoms: N_31  and  C_32
REMARK   12  A    between atoms: C_32  and  C_33
REMARK                            x       y       z     vdW  Elec       q    Type
REMARK                         _______ _______ _______ _____ _____    ______ ____
ROOT
ATOM      1  C   UNL     1       5.824  -4.303  26.918  0.00  0.00    +0.065 C 
ATOM      2  C   UNL     1       6.362  -3.566  25.599  0.00  0.00    +0.096 C 
ATOM      3  C   UNL     1       7.683  -4.214  24.951  0.00  0.00    +0.065 C 
ATOM      4  C   UNL     1       8.293  -5.195  25.671  0.00  0.00    +0.016 C 
ATOM      5  C   UNL     1       9.536  -5.931  25.233  0.00  0.00    +0.061 C 
ATOM      6  N   UNL     1       7.781  -5.622  26.893  0.00  0.00    -0.321 N 
ATOM      7  H   UNL     1       8.220  -6.461  27.283  0.00  0.00    +0.152 HD
ATOM      8  C   UNL     1       6.584  -5.269  27.492  0.00  0.00    +0.016 C 
ATOM      9  C   UNL     1       6.327  -6.091  28.755  0.00  0.00    +0.061 C 
ENDROOT
BRANCH   2  10
ATOM     10  C   UNL     1       6.592  -2.049  25.814  0.00  0.00    -0.029 A 
ATOM     11  C   UNL     1       5.945  -1.092  25.001  0.00  0.00    +0.088 A 
ATOM     12  C   UNL     1       6.341   0.255  25.063  0.00  0.00    +0.273 A 
ATOM     13  C   UNL     1       7.344   0.687  25.935  0.00  0.00    +0.084 A 
ATOM     14  C   UNL     1       7.936  -0.244  26.784  0.00  0.00    +0.007 A 
ATOM     15  C   UNL     1       7.558  -1.593  26.731  0.00  0.00    +0.005 A 
BRANCH  12  16
ATOM     16  N   UNL     1       5.748   1.239  24.168  0.00  0.00    +0.080 N 
ATOM     17  O   UNL     1       4.718   1.813  24.556  0.00  0.00    +0.041 OA
ATOM     18  O   UNL     1       6.332   1.457  23.103  0.00  0.00    -0.576 OA
ENDBRANCH  12  16
ENDBRANCH   2  10
BRANCH   1  19
ATOM     19  C   UNL     1       4.431  -3.923  27.390  0.00  0.00    +0.337 C 
ATOM     20  O   UNL     1       4.198  -3.455  28.491  0.00  0.00    -0.245 OA
BRANCH  19  22
ATOM     21  C   UNL     1       3.058  -5.450  26.076  0.00  0.00    +0.280 C 
ATOM     22  O   UNL     1       3.471  -4.115  26.436  0.00  0.00    -0.465 OA
ENDBRANCH  19  22
ENDBRANCH   1  19
BRANCH   3  23
ATOM     23  C   UNL     1       8.166  -3.681  23.557  0.00  0.00    +0.338 C 
ATOM     24  O   UNL     1       7.654  -4.103  22.511  0.00  0.00    -0.245 OA
BRANCH  23  25
ATOM     25  O   UNL     1       9.160  -2.748  23.569  0.00  0.00    -0.457 OA
BRANCH  25  26
ATOM     26  C   UNL     1       9.201  -1.330  23.006  0.00  0.00    +0.191 C 
ATOM     27  C   UNL     1      10.192  -0.303  23.678  0.00  0.00    +0.129 C 
ATOM     28  N   UNL     1       9.800   1.117  23.419  0.00  0.00    -0.295 NA
ATOM     29  C   UNL     1       9.665   1.430  21.988  0.00  0.00    +0.085 C 
ATOM     30  C   UNL     1       9.077   0.331  21.076  0.00  0.00    +0.019 C 
ATOM     31  C   UNL     1       9.295  -1.147  21.484  0.00  0.00    +0.047 C 
BRANCH  28  32
ATOM     32  C   UNL     1      10.619   2.184  24.111  0.00  0.00    +0.119 C 
BRANCH  32  33
ATOM     33  C   UNL     1       9.991   3.600  24.110  0.00  0.00    -0.033 A 
ATOM     34  C   UNL     1       8.641   3.843  24.457  0.00  0.00    +0.005 A 
ATOM     35  C   UNL     1       8.097   5.149  24.389  0.00  0.00    +0.000 A 
ATOM     36  C   UNL     1       8.884   6.216  23.983  0.00  0.00    +0.000 A 
ATOM     37  C   UNL     1      10.211   5.985  23.621  0.00  0.00    +0.000 A 
ATOM     38  C   UNL     1      10.743   4.695  23.680  0.00  0.00    +0.005 A 
ENDBRANCH  32  33
ENDBRANCH  28  32
ENDBRANCH  25  26
ENDBRANCH  23  25
ENDBRANCH   3  23
TORSDOF 9
ENDMDL
MODEL 4
REMARK VINA RESULT:      -7.2      2.625      4.230
REMARK  Name = 
REMARK  12 active torsions:
REMARK  status: ('A' for Active; 'I' for Inactive)
REMARK    1  A    between atoms: C_1  and  O_2
REMARK    2  A    between atoms: O_2  and  C_3
REMARK    3  A    between atoms: C_3  and  C_5
REMARK    4  A    between atoms: C_6  and  C_7
REMARK    5  A    between atoms: C_9  and  C_10
REMARK    6  A    between atoms: C_11  and  C_23
REMARK    7  A    between atoms: C_12  and  C_14
REMARK    8  A    between atoms: C_18  and  N_20
REMARK    9  A    between atoms: C_23  and  O_25
REMARK   10  A    between atoms: O_25  and  C_26
REMARK   11  A    between atoms: N_31  and  C_32
REMARK   12  A    between atoms: C_32  and  C_33
REMARK                            x       y       z     vdW  Elec       q    Type
REMARK                         _______ _______ _______ _____ _____    ______ ____
ROOT
ATOM      1  C   UNL     1       5.268  -4.591  27.671  0.00  0.00    +0.065 C 
ATOM      2  C   UNL     1       6.347  -3.594  27.030  0.00  0.00    +0.096 C 
ATOM      3  C   UNL     1       5.899  -2.051  26.978  0.00  0.00    +0.065 C 
ATOM      4  C   UNL     1       4.609  -1.783  27.319  0.00  0.00    +0.016 C 
ATOM      5  C   UNL     1       3.998  -0.403  27.341  0.00  0.00    +0.061 C 
ATOM      6  N   UNL     1       3.737  -2.796  27.711  0.00  0.00    -0.321 N 
ATOM      7  H   UNL     1       2.839  -2.479  28.089  0.00  0.00    +0.152 HD
ATOM      8  C   UNL     1       4.022  -4.129  27.948  0.00  0.00    +0.016 C 
ATOM      9  C   UNL     1       2.811  -4.867  28.519  0.00  0.00    +0.061 C 
ENDROOT
BRANCH   2  10
ATOM     10  C   UNL     1       6.807  -4.038  25.619  0.00  0.00    -0.029 A 
ATOM     11  C   UNL     1       5.880  -4.191  24.565  0.00  0.00    +0.088 A 
ATOM     12  C   UNL     1       6.282  -4.809  23.368  0.00  0.00    +0.273 A 
ATOM     13  C   UNL     1       7.592  -5.255  23.176  0.00  0.00    +0.084 A 
ATOM     14  C   UNL     1       8.524  -5.044  24.189  0.00  0.00    +0.007 A 
ATOM     15  C   UNL     1       8.139  -4.436  25.391  0.00  0.00    +0.005 A 
BRANCH  12  16
ATOM     16  N   UNL     1       5.316  -5.055  22.307  0.00  0.00    +0.080 N 
ATOM     17  O   UNL     1       5.763  -5.272  21.170  0.00  0.00    +0.041 OA
ATOM     18  O   UNL     1       4.123  -5.068  22.622  0.00  0.00    -0.576 OA
ENDBRANCH  12  16
ENDBRANCH   2  10
BRANCH   1  19
ATOM     19  C   UNL     1       5.752  -5.989  28.017  0.00  0.00    +0.337 C 
ATOM     20  O   UNL     1       5.493  -6.975  27.348  0.00  0.00    -0.245 OA
BRANCH  19  22
ATOM     21  C   UNL     1       5.979  -6.290  30.425  0.00  0.00    +0.280 C 
ATOM     22  O   UNL     1       6.549  -6.021  29.126  0.00  0.00    -0.465 OA
ENDBRANCH  19  22
ENDBRANCH   1  19
BRANCH   3  23
ATOM     23  C   UNL     1       6.962  -0.981  26.549  0.00  0.00    +0.338 C 
ATOM     24  O   UNL     1       7.913  -0.705  27.293  0.00  0.00    -0.245 OA
BRANCH  23  25
ATOM     25  O   UNL     1       6.778  -0.388  25.335  0.00  0.00    -0.457 OA
BRANCH  25  26
ATOM     26  C   UNL     1       7.732  -0.217  24.156  0.00  0.00    +0.191 C 
ATOM     27  C   UNL     1       9.086   0.551  24.415  0.00  0.00    +0.129 C 
ATOM     28  N   UNL     1       9.678   1.098  23.155  0.00  0.00    -0.295 NA
ATOM     29  C   UNL     1       9.885   0.076  22.118  0.00  0.00    +0.085 C 
ATOM     30  C   UNL     1       8.822  -1.040  22.003  0.00  0.00    +0.019 C 
ATOM     31  C   UNL     1       8.045  -1.440  23.282  0.00  0.00    +0.047 C 
BRANCH  28  32
ATOM     32  C   UNL     1      10.919   1.949  23.302  0.00  0.00    +0.119 C 
BRANCH  32  33
ATOM     33  C   UNL     1      10.662   3.471  23.442  0.00  0.00    -0.033 A 
ATOM     34  C   UNL     1      11.701   4.431  23.419  0.00  0.00    +0.005 A 
ATOM     35  C   UNL     1      11.421   5.808  23.605  0.00  0.00    +0.000 A 
ATOM     36  C   UNL     1      10.119   6.237  23.809  0.00  0.00    +0.000 A 
ATOM     37  C   UNL     1       9.090   5.297  23.851  0.00  0.00    +0.000 A 
ATOM     38  C   UNL     1       9.369   3.939  23.678  0.00  0.00    +0.005 A 
ENDBRANCH  32  33
ENDBRANCH  28  32
ENDBRANCH  25  26
ENDBRANCH  23  25
ENDBRANCH   3  23
TORSDOF 9
ENDMDL
MODEL 5
REMARK VINA RESULT:      -7.1      1.574      2.057
REMARK  Name = 
REMARK  12 active torsions:
REMARK  status: ('A' for Active; 'I' for Inactive)
REMARK    1  A    between atoms: C_1  and  O_2
REMARK    2  A    between atoms: O_2  and  C_3
REMARK    3  A    between atoms: C_3  and  C_5
REMARK    4  A    between atoms: C_6  and  C_7
REMARK    5  A    between atoms: C_9  and  C_10
REMARK    6  A    between atoms: C_11  and  C_23
REMARK    7  A    between atoms: C_12  and  C_14
REMARK    8  A    between atoms: C_18  and  N_20
REMARK    9  A    between atoms: C_23  and  O_25
REMARK   10  A    between atoms: O_25  and  C_26
REMARK   11  A    between atoms: N_31  and  C_32
REMARK   12  A    between atoms: C_32  and  C_33
REMARK                            x       y       z     vdW  Elec       q    Type
REMARK                         _______ _______ _______ _____ _____    ______ ____
ROOT
ATOM      1  C   UNL     1       2.666  -5.063  24.929  0.00  0.00    +0.065 C 
ATOM      2  C   UNL     1       4.116  -5.558  25.402  0.00  0.00    +0.096 C 
ATOM      3  C   UNL     1       4.630  -4.926  26.788  0.00  0.00    +0.065 C 
ATOM      4  C   UNL     1       3.872  -3.929  27.318  0.00  0.00    +0.016 C 
ATOM      5  C   UNL     1       4.178  -3.214  28.612  0.00  0.00    +0.061 C 
ATOM      6  N   UNL     1       2.702  -3.497  26.695  0.00  0.00    -0.321 N 
ATOM      7  H   UNL     1       2.127  -2.852  27.244  0.00  0.00    +0.152 HD
ATOM      8  C   UNL     1       2.064  -4.045  25.596  0.00  0.00    +0.016 C 
ATOM      9  C   UNL     1       0.720  -3.366  25.335  0.00  0.00    +0.061 C 
ENDROOT
BRANCH   2  10
ATOM     10  C   UNL     1       5.201  -5.352  24.315  0.00  0.00    -0.029 A 
ATOM     11  C   UNL     1       5.672  -4.061  23.992  0.00  0.00    +0.088 A 
ATOM     12  C   UNL     1       6.480  -3.879  22.856  0.00  0.00    +0.273 A 
ATOM     13  C   UNL     1       6.862  -4.953  22.046  0.00  0.00    +0.084 A 
ATOM     14  C   UNL     1       6.453  -6.235  22.403  0.00  0.00    +0.007 A 
ATOM     15  C   UNL     1       5.641  -6.433  23.528  0.00  0.00    +0.005 A 
BRANCH  12  16
ATOM     16  N   UNL     1       6.900  -2.543  22.457  0.00  0.00    +0.080 N 
ATOM     17  O   UNL     1       7.999  -2.437  21.891  0.00  0.00    +0.041 OA
ATOM     18  O   UNL     1       6.115  -1.617  22.678  0.00  0.00    -0.576 OA
ENDBRANCH  12  16
ENDBRANCH   2  10
BRANCH   1  19
ATOM     19  C   UNL     1       2.013  -5.843  23.801  0.00  0.00    +0.337 C 
ATOM     20  O   UNL     1       2.091  -5.522  22.628  0.00  0.00    -0.245 OA
BRANCH  19  22
ATOM     21  C   UNL     1       1.930  -8.273  23.972  0.00  0.00    +0.280 C 
ATOM     22  O   UNL     1       1.369  -6.969  24.231  0.00  0.00    -0.465 OA
ENDBRANCH  19  22
ENDBRANCH   1  19
BRANCH   3  23
ATOM     23  C   UNL     1       5.945  -5.498  27.423  0.00  0.00    +0.338 C 
ATOM     24  O   UNL     1       5.991  -6.667  27.829  0.00  0.00    -0.245 OA
BRANCH  23  25
ATOM     25  O   UNL     1       7.008  -4.647  27.500  0.00  0.00    -0.457 OA
BRANCH  25  26
ATOM     26  C   UNL     1       7.894  -4.061  26.403  0.00  0.00    +0.191 C 
ATOM     27  C   UNL     1       8.409  -2.582  26.590  0.00  0.00    +0.129 C 
ATOM     28  N   UNL     1       8.808  -1.952  25.294  0.00  0.00    -0.295 NA
ATOM     29  C   UNL     1       9.812  -2.731  24.554  0.00  0.00    +0.085 C 
ATOM     30  C   UNL     1       9.698  -4.270  24.614  0.00  0.00    +0.019 C 
ATOM     31  C   UNL     1       9.065  -4.904  25.877  0.00  0.00    +0.047 C 
BRANCH  28  32
ATOM     32  C   UNL     1       9.212  -0.495  25.344  0.00  0.00    +0.119 C 
BRANCH  32  33
ATOM     33  C   UNL     1       9.031   0.284  24.017  0.00  0.00    -0.033 A 
ATOM     34  C   UNL     1      10.063   0.423  23.060  0.00  0.00    +0.005 A 
ATOM     35  C   UNL     1       9.866   1.191  21.885  0.00  0.00    +0.000 A 
ATOM     36  C   UNL     1       8.651   1.817  21.653  0.00  0.00    +0.000 A 
ATOM     37  C   UNL     1       7.633   1.702  22.599  0.00  0.00    +0.000 A 
ATOM     38  C   UNL     1       7.832   0.952  23.761  0.00  0.00    +0.005 A 
ENDBRANCH  32  33
ENDBRANCH  28  32
ENDBRANCH  25  26
ENDBRANCH  23  25
ENDBRANCH   3  23
TORSDOF 9
ENDMDL
MODEL 6
REMARK VINA RESULT:      -7.1      2.922      6.248
REMARK  Name = 
REMARK  12 active torsions:
REMARK  status: ('A' for Active; 'I' for Inactive)
REMARK    1  A    between atoms: C_1  and  O_2
REMARK    2  A    between atoms: O_2  and  C_3
REMARK    3  A    between atoms: C_3  and  C_5
REMARK    4  A    between atoms: C_6  and  C_7
REMARK    5  A    between atoms: C_9  and  C_10
REMARK    6  A    between atoms: C_11  and  C_23
REMARK    7  A    between atoms: C_12  and  C_14
REMARK    8  A    between atoms: C_18  and  N_20
REMARK    9  A    between atoms: C_23  and  O_25
REMARK   10  A    between atoms: O_25  and  C_26
REMARK   11  A    between atoms: N_31  and  C_32
REMARK   12  A    between atoms: C_32  and  C_33
REMARK                            x       y       z     vdW  Elec       q    Type
REMARK                         _______ _______ _______ _____ _____    ______ ____
ROOT
ATOM      1  C   UNL     1       6.589  -2.531  23.598  0.00  0.00    +0.065 C 
ATOM      2  C   UNL     1       5.532  -1.919  24.636  0.00  0.00    +0.096 C 
ATOM      3  C   UNL     1       6.014  -0.581  25.386  0.00  0.00    +0.065 C 
ATOM      4  C   UNL     1       7.309  -0.211  25.192  0.00  0.00    +0.016 C 
ATOM      5  C   UNL     1       7.950   1.014  25.799  0.00  0.00    +0.061 C 
ATOM      6  N   UNL     1       8.159  -0.947  24.371  0.00  0.00    -0.321 N 
ATOM      7  H   UNL     1       9.063  -0.509  24.170  0.00  0.00    +0.152 HD
ATOM      8  C   UNL     1       7.845  -2.017  23.551  0.00  0.00    +0.016 C 
ATOM      9  C   UNL     1       9.039  -2.434  22.693  0.00  0.00    +0.061 C 
ENDROOT
BRANCH   2  10
ATOM     10  C   UNL     1       5.064  -2.953  25.691  0.00  0.00    -0.029 A 
ATOM     11  C   UNL     1       5.993  -3.620  26.520  0.00  0.00    +0.088 A 
ATOM     12  C   UNL     1       5.571  -4.709  27.302  0.00  0.00    +0.273 A 
ATOM     13  C   UNL     1       4.240  -5.137  27.308  0.00  0.00    +0.084 A 
ATOM     14  C   UNL     1       3.311  -4.438  26.543  0.00  0.00    +0.007 A 
ATOM     15  C   UNL     1       3.716  -3.354  25.752  0.00  0.00    +0.005 A 
BRANCH  12  16
ATOM     16  N   UNL     1       6.532  -5.464  28.092  0.00  0.00    +0.080 N 
ATOM     17  O   UNL     1       7.568  -5.839  27.522  0.00  0.00    +0.041 OA
ATOM     18  O   UNL     1       6.265  -5.644  29.283  0.00  0.00    -0.576 OA
ENDBRANCH  12  16
ENDBRANCH   2  10
BRANCH   1  19
ATOM     19  C   UNL     1       6.075  -3.606  22.655  0.00  0.00    +0.337 C 
ATOM     20  O   UNL     1       5.318  -3.380  21.727  0.00  0.00    -0.245 OA
BRANCH  19  22
ATOM     21  C   UNL     1       7.107  -5.665  21.857  0.00  0.00    +0.280 C 
ATOM     22  O   UNL     1       6.586  -4.844  22.924  0.00  0.00    -0.465 OA
ENDBRANCH  19  22
ENDBRANCH   1  19
BRANCH   3  23
ATOM     23  C   UNL     1       4.974   0.193  26.269  0.00  0.00    +0.338 C 
ATOM     24  O   UNL     1       4.904  -0.018  27.487  0.00  0.00    -0.245 OA
BRANCH  23  25
ATOM     25  O   UNL     1       4.172   1.089  25.626  0.00  0.00    -0.457 OA
BRANCH  25  26
ATOM     26  C   UNL     1       4.479   2.476  25.066  0.00  0.00    +0.191 C 
ATOM     27  C   UNL     1       5.302   2.558  23.723  0.00  0.00    +0.129 C 
ATOM     28  N   UNL     1       5.969   3.886  23.546  0.00  0.00    -0.295 NA
ATOM     29  C   UNL     1       5.034   5.019  23.619  0.00  0.00    +0.085 C 
ATOM     30  C   UNL     1       3.871   4.913  24.629  0.00  0.00    +0.019 C 
ATOM     31  C   UNL     1       3.339   3.502  24.982  0.00  0.00    +0.047 C 
BRANCH  28  32
ATOM     32  C   UNL     1       6.876   4.035  22.346  0.00  0.00    +0.119 C 
BRANCH  32  33
ATOM     33  C   UNL     1       8.046   3.021  22.275  0.00  0.00    -0.033 A 
ATOM     34  C   UNL     1       8.007   1.858  21.471  0.00  0.00    +0.005 A 
ATOM     35  C   UNL     1       9.080   0.932  21.481  0.00  0.00    +0.000 A 
ATOM     36  C   UNL     1      10.192   1.157  22.278  0.00  0.00    +0.000 A 
ATOM     37  C   UNL     1      10.233   2.291  23.088  0.00  0.00    +0.000 A 
ATOM     38  C   UNL     1       9.169   3.198  23.084  0.00  0.00    +0.005 A 
ENDBRANCH  32  33
ENDBRANCH  28  32
ENDBRANCH  25  26
ENDBRANCH  23  25
ENDBRANCH   3  23
TORSDOF 9
ENDMDL
MODEL 7
REMARK VINA RESULT:      -7.0      2.640      4.640
REMARK  Name = 
REMARK  12 active torsions:
REMARK  status: ('A' for Active; 'I' for Inactive)
REMARK    1  A    between atoms: C_1  and  O_2
REMARK    2  A    between atoms: O_2  and  C_3
REMARK    3  A    between atoms: C_3  and  C_5
REMARK    4  A    between atoms: C_6  and  C_7
REMARK    5  A    between atoms: C_9  and  C_10
REMARK    6  A    between atoms: C_11  and  C_23
REMARK    7  A    between atoms: C_12  and  C_14
REMARK    8  A    between atoms: C_18  and  N_20
REMARK    9  A    between atoms: C_23  and  O_25
REMARK   10  A    between atoms: O_25  and  C_26
REMARK   11  A    between atoms: N_31  and  C_32
REMARK   12  A    between atoms: C_32  and  C_33
REMARK                            x       y       z     vdW  Elec       q    Type
REMARK                         _______ _______ _______ _____ _____    ______ ____
ROOT
ATOM      1  C   UNL     1       6.721  -4.111  27.137  0.00  0.00    +0.065 C 
ATOM      2  C   UNL     1       6.202  -2.704  26.571  0.00  0.00    +0.096 C 
ATOM      3  C   UNL     1       4.976  -2.056  27.384  0.00  0.00    +0.065 C 
ATOM      4  C   UNL     1       4.406  -2.834  28.343  0.00  0.00    +0.016 C 
ATOM      5  C   UNL     1       3.252  -2.408  29.219  0.00  0.00    +0.061 C 
ATOM      6  N   UNL     1       4.880  -4.116  28.614  0.00  0.00    -0.321 N 
ATOM      7  H   UNL     1       4.486  -4.561  29.448  0.00  0.00    +0.152 HD
ATOM      8  C   UNL     1       6.009  -4.737  28.109  0.00  0.00    +0.016 C 
ATOM      9  C   UNL     1       6.257  -6.083  28.788  0.00  0.00    +0.061 C 
ENDROOT
BRANCH   2  10
ATOM     10  C   UNL     1       5.841  -2.762  25.065  0.00  0.00    -0.029 A 
ATOM     11  C   UNL     1       5.061  -3.818  24.544  0.00  0.00    +0.088 A 
ATOM     12  C   UNL     1       4.940  -3.971  23.152  0.00  0.00    +0.273 A 
ATOM     13  C   UNL     1       5.549  -3.085  22.259  0.00  0.00    +0.084 A 
ATOM     14  C   UNL     1       6.263  -2.006  22.773  0.00  0.00    +0.007 A 
ATOM     15  C   UNL     1       6.399  -1.841  24.158  0.00  0.00    +0.005 A 
BRANCH  12  16
ATOM     16  N   UNL     1       4.215  -5.105  22.597  0.00  0.00    +0.080 N 
ATOM     17  O   UNL     1       3.003  -5.185  22.851  0.00  0.00    +0.041 OA
ATOM     18  O   UNL     1       4.850  -5.886  21.883  0.00  0.00    -0.576 OA
ENDBRANCH  12  16
ENDBRANCH   2  10
BRANCH   1  19
ATOM     19  C   UNL     1       8.051  -4.614  26.601  0.00  0.00    +0.337 C 
ATOM     20  O   UNL     1       9.129  -4.290  27.067  0.00  0.00    -0.245 OA
BRANCH  19  22
ATOM     21  C   UNL     1       8.445  -5.198  24.268  0.00  0.00    +0.280 C 
ATOM     22  O   UNL     1       7.912  -5.503  25.573  0.00  0.00    -0.465 OA
ENDBRANCH  19  22
ENDBRANCH   1  19
BRANCH   3  23
ATOM     23  C   UNL     1       4.532  -0.596  27.022  0.00  0.00    +0.338 C 
ATOM     24  O   UNL     1       3.427  -0.383  26.506  0.00  0.00    -0.245 OA
BRANCH  23  25
ATOM     25  O   UNL     1       5.420   0.401  27.305  0.00  0.00    -0.457 OA
BRANCH  25  26
ATOM     26  C   UNL     1       6.054   1.455  26.401  0.00  0.00    +0.191 C 
ATOM     27  C   UNL     1       7.375   1.063  25.634  0.00  0.00    +0.129 C 
ATOM     28  N   UNL     1       8.164   2.263  25.214  0.00  0.00    -0.295 NA
ATOM     29  C   UNL     1       7.389   3.213  24.402  0.00  0.00    +0.085 C 
ATOM     30  C   UNL     1       5.902   3.408  24.769  0.00  0.00    +0.019 C 
ATOM     31  C   UNL     1       5.151   2.221  25.422  0.00  0.00    +0.047 C 
BRANCH  28  32
ATOM     32  C   UNL     1       9.507   1.999  24.569  0.00  0.00    +0.119 C 
BRANCH  32  33
ATOM     33  C   UNL     1       9.578   0.721  23.696  0.00  0.00    -0.033 A 
ATOM     34  C   UNL     1       9.951  -0.542  24.212  0.00  0.00    +0.005 A 
ATOM     35  C   UNL     1      10.055  -1.672  23.363  0.00  0.00    +0.000 A 
ATOM     36  C   UNL     1       9.786  -1.557  22.008  0.00  0.00    +0.000 A 
ATOM     37  C   UNL     1       9.435  -0.312  21.486  0.00  0.00    +0.000 A 
ATOM     38  C   UNL     1       9.343   0.803  22.323  0.00  0.00    +0.005 A 
ENDBRANCH  32  33
ENDBRANCH  28  32
ENDBRANCH  25  26
ENDBRANCH  23  25
ENDBRANCH   3  23
TORSDOF 9
ENDMDL
MODEL 8
REMARK VINA RESULT:      -7.0      4.012      7.254
REMARK  Name = 
REMARK  12 active torsions:
REMARK  status: ('A' for Active; 'I' for Inactive)
REMARK    1  A    between atoms: C_1  and  O_2
REMARK    2  A    between atoms: O_2  and  C_3
REMARK    3  A    between atoms: C_3  and  C_5
REMARK    4  A    between atoms: C_6  and  C_7
REMARK    5  A    between atoms: C_9  and  C_10
REMARK    6  A    between atoms: C_11  and  C_23
REMARK    7  A    between atoms: C_12  and  C_14
REMARK    8  A    between atoms: C_18  and  N_20
REMARK    9  A    between atoms: C_23  and  O_25
REMARK   10  A    between atoms: O_25  and  C_26
REMARK   11  A    between atoms: N_31  and  C_32
REMARK   12  A    between atoms: C_32  and  C_33
REMARK                            x       y       z     vdW  Elec       q    Type
REMARK                         _______ _______ _______ _____ _____    ______ ____
ROOT
ATOM      1  C   UNL     1       9.108  -0.329  23.689  0.00  0.00    +0.065 C 
ATOM      2  C   UNL     1       7.576  -0.732  23.938  0.00  0.00    +0.096 C 
ATOM      3  C   UNL     1       6.957  -0.216  25.330  0.00  0.00    +0.065 C 
ATOM      4  C   UNL     1       7.829   0.348  26.209  0.00  0.00    +0.016 C 
ATOM      5  C   UNL     1       7.445   0.900  27.561  0.00  0.00    +0.061 C 
ATOM      6  N   UNL     1       9.180   0.487  25.903  0.00  0.00    -0.321 N 
ATOM      7  H   UNL     1       9.723   1.055  26.560  0.00  0.00    +0.152 HD
ATOM      8  C   UNL     1       9.817   0.234  24.700  0.00  0.00    +0.016 C 
ATOM      9  C   UNL     1      11.281   0.672  24.740  0.00  0.00    +0.061 C 
ENDROOT
BRANCH   2  10
ATOM     10  C   UNL     1       7.329  -2.255  23.805  0.00  0.00    -0.029 A 
ATOM     11  C   UNL     1       7.901  -3.169  24.717  0.00  0.00    +0.088 A 
ATOM     12  C   UNL     1       7.852  -4.547  24.445  0.00  0.00    +0.273 A 
ATOM     13  C   UNL     1       7.221  -5.048  23.303  0.00  0.00    +0.084 A 
ATOM     14  C   UNL     1       6.600  -4.153  22.437  0.00  0.00    +0.007 A 
ATOM     15  C   UNL     1       6.644  -2.775  22.690  0.00  0.00    +0.005 A 
BRANCH  12  16
ATOM     16  N   UNL     1       8.514  -5.496  25.329  0.00  0.00    +0.080 N 
ATOM     17  O   UNL     1       9.671  -5.834  25.036  0.00  0.00    +0.041 OA
ATOM     18  O   UNL     1       7.890  -5.867  26.327  0.00  0.00    -0.576 OA
ENDBRANCH  12  16
ENDBRANCH   2  10
BRANCH   1  19
ATOM     19  C   UNL     1       9.644  -0.527  22.282  0.00  0.00    +0.337 C 
ATOM     20  O   UNL     1       9.938  -1.616  21.821  0.00  0.00    -0.245 OA
BRANCH  19  22
ATOM     21  C   UNL     1       8.515   1.268  21.079  0.00  0.00    +0.280 C 
ATOM     22  O   UNL     1       9.717   0.636  21.568  0.00  0.00    -0.465 OA
ENDBRANCH  19  22
ENDBRANCH   1  19
BRANCH   3  23
ATOM     23  C   UNL     1       5.417  -0.394  25.571  0.00  0.00    +0.338 C 
ATOM     24  O   UNL     1       4.978  -1.426  26.097  0.00  0.00    -0.245 OA
BRANCH  23  25
ATOM     25  O   UNL     1       4.613   0.633  25.173  0.00  0.00    -0.457 OA
BRANCH  25  26
ATOM     26  C   UNL     1       4.779   2.143  25.326  0.00  0.00    +0.191 C 
ATOM     27  C   UNL     1       5.366   2.943  24.100  0.00  0.00    +0.129 C 
ATOM     28  N   UNL     1       5.952   4.258  24.508  0.00  0.00    -0.295 NA
ATOM     29  C   UNL     1       5.006   5.111  25.244  0.00  0.00    +0.085 C 
ATOM     30  C   UNL     1       4.031   4.412  26.215  0.00  0.00    +0.019 C 
ATOM     31  C   UNL     1       3.609   2.955  25.901  0.00  0.00    +0.047 C 
BRANCH  28  32
ATOM     32  C   UNL     1       6.643   5.058  23.427  0.00  0.00    +0.119 C 
BRANCH  32  33
ATOM     33  C   UNL     1       8.191   5.047  23.488  0.00  0.00    -0.033 A 
ATOM     34  C   UNL     1       8.950   3.855  23.541  0.00  0.00    +0.005 A 
ATOM     35  C   UNL     1      10.362   3.897  23.651  0.00  0.00    +0.000 A 
ATOM     36  C   UNL     1      11.025   5.114  23.703  0.00  0.00    +0.000 A 
ATOM     37  C   UNL     1      10.285   6.295  23.669  0.00  0.00    +0.000 A 
ATOM     38  C   UNL     1       8.892   6.251  23.571  0.00  0.00    +0.005 A 
ENDBRANCH  32  33
ENDBRANCH  28  32
ENDBRANCH  25  26
ENDBRANCH  23  25
ENDBRANCH   3  23
TORSDOF 9
ENDMDL
MODEL 9
REMARK VINA RESULT:      -6.8      2.168      8.091
REMARK  Name = 
REMARK  12 active torsions:
REMARK  status: ('A' for Active; 'I' for Inactive)
REMARK    1  A    between atoms: C_1  and  O_2
REMARK    2  A    between atoms: O_2  and  C_3
REMARK    3  A    between atoms: C_3  and  C_5
REMARK    4  A    between atoms: C_6  and  C_7
REMARK    5  A    between atoms: C_9  and  C_10
REMARK    6  A    between atoms: C_11  and  C_23
REMARK    7  A    between atoms: C_12  and  C_14
REMARK    8  A    between atoms: C_18  and  N_20
REMARK    9  A    between atoms: C_23  and  O_25
REMARK   10  A    between atoms: O_25  and  C_26
REMARK   11  A    between atoms: N_31  and  C_32
REMARK   12  A    between atoms: C_32  and  C_33
REMARK                            x       y       z     vdW  Elec       q    Type
REMARK                         _______ _______ _______ _____ _____    ______ ____
ROOT
ATOM      1  C   UNL     1       9.305  -0.518  23.588  0.00  0.00    +0.065 C 
ATOM      2  C   UNL     1       7.870  -1.190  23.829  0.00  0.00    +0.096 C 
ATOM      3  C   UNL     1       7.224  -0.912  25.275  0.00  0.00    +0.065 C 
ATOM      4  C   UNL     1       8.022  -0.290  26.186  0.00  0.00    +0.016 C 
ATOM      5  C   UNL     1       7.602   0.067  27.591  0.00  0.00    +0.061 C 
ATOM      6  N   UNL     1       9.321   0.099  25.866  0.00  0.00    -0.321 N 
ATOM      7  H   UNL     1       9.786   0.689  26.563  0.00  0.00    +0.152 HD
ATOM      8  C   UNL     1       9.947   0.063  24.632  0.00  0.00    +0.016 C 
ATOM      9  C   UNL     1      11.320   0.734  24.684  0.00  0.00    +0.061 C 
ENDROOT
BRANCH   2  10
ATOM     10  C   UNL     1       7.871  -2.716  23.558  0.00  0.00    -0.029 A 
ATOM     11  C   UNL     1       6.948  -3.297  22.661  0.00  0.00    +0.088 A 
ATOM     12  C   UNL     1       6.818  -4.696  22.606  0.00  0.00    +0.273 A 
ATOM     13  C   UNL     1       7.604  -5.539  23.397  0.00  0.00    +0.084 A 
ATOM     14  C   UNL     1       8.560  -4.968  24.233  0.00  0.00    +0.007 A 
ATOM     15  C   UNL     1       8.698  -3.576  24.305  0.00  0.00    +0.005 A 
BRANCH  12  16
ATOM     16  N   UNL     1       5.810  -5.308  21.753  0.00  0.00    +0.080 N 
ATOM     17  O   UNL     1       4.757  -5.680  22.293  0.00  0.00    +0.041 OA
ATOM     18  O   UNL     1       6.060  -5.379  20.546  0.00  0.00    -0.576 OA
ENDBRANCH  12  16
ENDBRANCH   2  10
BRANCH   1  19
ATOM     19  C   UNL     1       9.815  -0.497  22.157  0.00  0.00    +0.337 C 
ATOM     20  O   UNL     1      10.167  -1.496  21.554  0.00  0.00    -0.245 OA
BRANCH  19  22
ATOM     21  C   UNL     1       8.553   1.473  21.475  0.00  0.00    +0.280 C 
ATOM     22  O   UNL     1       9.795   0.750  21.599  0.00  0.00    -0.465 OA
ENDBRANCH  19  22
ENDBRANCH   1  19
BRANCH   3  23
ATOM     23  C   UNL     1       5.744  -1.364  25.530  0.00  0.00    +0.338 C 
ATOM     24  O   UNL     1       4.833  -0.528  25.597  0.00  0.00    -0.245 OA
BRANCH  23  25
ATOM     25  O   UNL     1       5.529  -2.704  25.668  0.00  0.00    -0.457 OA
BRANCH  25  26
ATOM     26  C   UNL     1       4.327  -3.467  26.218  0.00  0.00    +0.191 C 
ATOM     27  C   UNL     1       4.212  -5.001  25.870  0.00  0.00    +0.129 C 
ATOM     28  N   UNL     1       2.811  -5.509  26.002  0.00  0.00    -0.295 NA
ATOM     29  C   UNL     1       2.226  -5.262  27.328  0.00  0.00    +0.085 C 
ATOM     30  C   UNL     1       2.591  -3.934  28.026  0.00  0.00    +0.019 C 
ATOM     31  C   UNL     1       3.963  -3.293  27.700  0.00  0.00    +0.047 C 
BRANCH  28  32
ATOM     32  C   UNL     1       2.567  -6.942  25.583  0.00  0.00    +0.119 C 
BRANCH  32  33
ATOM     33  C   UNL     1       1.790  -7.117  24.254  0.00  0.00    -0.033 A 
ATOM     34  C   UNL     1       1.556  -8.380  23.661  0.00  0.00    +0.005 A 
ATOM     35  C   UNL     1       0.886  -8.485  22.417  0.00  0.00    +0.000 A 
ATOM     36  C   UNL     1       0.443  -7.346  21.761  0.00  0.00    +0.000 A 
ATOM     37  C   UNL     1       0.685  -6.095  22.329  0.00  0.00    +0.000 A 
ATOM     38  C   UNL     1       1.354  -5.993  23.551  0.00  0.00    +0.005 A 
ENDBRANCH  32  33
ENDBRANCH  28  32
ENDBRANCH  25  26
ENDBRANCH  23  25
ENDBRANCH   3  23
TORSDOF 9
ENDMDL
