MODEL 1
REMARK VINA RESULT:      -6.8      0.000      0.000
REMARK  Name = 
REMARK  5 active torsions:
REMARK  status: ('A' for Active; 'I' for Inactive)
REMARK    1  A    between atoms: O_1  and  C_2
REMARK    2  A    between atoms: C_2  and  C_4
REMARK    3  A    between atoms: C_9  and  N_10
REMARK    4  A    between atoms: N_10  and  C_11
REMARK    5  A    between atoms: C_13  and  C_17
REMARK                            x       y       z     vdW  Elec       q    Type
REMARK                         _______ _______ _______ _____ _____    ______ ____
ROOT
ATOM      1  N   UNL     1       7.302  -2.155  24.649  0.00  0.00    -0.314 N 
ATOM      2  H   UNL     1       7.268  -2.473  25.622  0.00  0.00    +0.152 HD
ENDROOT
BRANCH   1   4
ATOM      3  C   UNL     1       7.955  -4.477  24.041  0.00  0.00    +0.080 A 
ATOM      4  C   UNL     1       7.241  -3.288  23.776  0.00  0.00    +0.045 A 
ATOM      5  C   UNL     1       6.472  -3.233  22.597  0.00  0.00    +0.024 A 
ATOM      6  C   UNL     1       6.325  -4.341  21.762  0.00  0.00    +0.002 A 
ATOM      7  C   UNL     1       6.965  -5.531  22.078  0.00  0.00    +0.001 A 
ATOM      8  C   UNL     1       7.793  -5.593  23.198  0.00  0.00    +0.017 A 
BRANCH   3   9
ATOM      9  C   UNL     1       8.925  -4.644  25.160  0.00  0.00    +0.339 C 
ATOM     10  O   UNL     1       8.712  -4.256  26.298  0.00  0.00    -0.245 OA
BRANCH   9  11
ATOM     11  O   UNL     1      10.085  -5.236  24.797  0.00  0.00    -0.477 OA
ATOM     12  H   UNL     1      10.612  -5.553  25.563  0.00  0.00    +0.295 HD
ENDBRANCH   9  11
ENDBRANCH   3   9
ENDBRANCH   1   4
BRANCH   1  13
ATOM     13  C   UNL     1       8.215  -1.073  24.501  0.00  0.00    +0.032 A 
ATOM     14  C   UNL     1       9.152  -0.796  25.502  0.00  0.00    +0.023 A 
ATOM     15  C   UNL     1      10.152   0.159  25.293  0.00  0.00    +0.002 A 
ATOM     16  C   UNL     1      10.207   0.869  24.094  0.00  0.00    +0.012 A 
ATOM     17  C   UNL     1       9.232   0.670  23.109  0.00  0.00    +0.057 A 
ATOM     18  C   UNL     1       8.234  -0.294  23.332  0.00  0.00    +0.035 A 
BRANCH  17  19
ATOM     19  C   UNL     1       9.280   1.465  21.826  0.00  0.00    +0.417 C 
ATOM     20  F   UNL     1       9.034   0.697  20.728  0.00  0.00    -0.166 F 
ATOM     21  F   UNL     1      10.495   2.041  21.617  0.00  0.00    -0.166 F 
ATOM     22  F   UNL     1       8.372   2.480  21.779  0.00  0.00    -0.166 F 
ENDBRANCH  17  19
ENDBRANCH   1  13
TORSDOF 5
ENDMDL
MODEL 2
REMARK VINA RESULT:      -6.7      1.454      1.828
REMARK  Name = 
REMARK  5 active torsions:
REMARK  status: ('A' for Active; 'I' for Inactive)
REMARK    1  A    between atoms: O_1  and  C_2
REMARK    2  A    between atoms: C_2  and  C_4
REMARK    3  A    between atoms: C_9  and  N_10
REMARK    4  A    between atoms: N_10  and  C_11
REMARK    5  A    between atoms: C_13  and  C_17
REMARK                            x       y       z     vdW  Elec       q    Type
REMARK                         _______ _______ _______ _____ _____    ______ ____
ROOT
ATOM      1  N   UNL     1       8.970  -3.434  24.323  0.00  0.00    -0.314 N 
ATOM      2  H   UNL     1       9.646  -3.804  23.649  0.00  0.00    +0.152 HD
ENDROOT
BRANCH   1   4
ATOM      3  C   UNL     1       7.398  -4.976  25.480  0.00  0.00    +0.080 A 
ATOM      4  C   UNL     1       7.803  -4.262  24.330  0.00  0.00    +0.045 A 
ATOM      5  C   UNL     1       7.030  -4.409  23.161  0.00  0.00    +0.024 A 
ATOM      6  C   UNL     1       5.845  -5.143  23.150  0.00  0.00    +0.002 A 
ATOM      7  C   UNL     1       5.412  -5.771  24.309  0.00  0.00    +0.001 A 
ATOM      8  C   UNL     1       6.194  -5.706  25.462  0.00  0.00    +0.017 A 
BRANCH   3   9
ATOM      9  C   UNL     1       8.182  -5.046  26.745  0.00  0.00    +0.339 C 
ATOM     10  O   UNL     1       9.179  -4.374  26.957  0.00  0.00    -0.245 OA
BRANCH   9  11
ATOM     11  O   UNL     1       7.710  -5.950  27.633  0.00  0.00    -0.477 OA
ATOM     12  H   UNL     1       8.064  -6.854  27.488  0.00  0.00    +0.295 HD
ENDBRANCH   9  11
ENDBRANCH   3   9
ENDBRANCH   1   4
BRANCH   1  13
ATOM     13  C   UNL     1       8.946  -2.011  24.289  0.00  0.00    +0.032 A 
ATOM     14  C   UNL     1       8.907  -1.275  25.477  0.00  0.00    +0.023 A 
ATOM     15  C   UNL     1       9.045   0.116  25.455  0.00  0.00    +0.002 A 
ATOM     16  C   UNL     1       9.190   0.789  24.242  0.00  0.00    +0.012 A 
ATOM     17  C   UNL     1       9.149   0.085  23.032  0.00  0.00    +0.057 A 
ATOM     18  C   UNL     1       9.012  -1.313  23.070  0.00  0.00    +0.035 A 
BRANCH  17  19
ATOM     19  C   UNL     1       9.276   0.824  21.722  0.00  0.00    +0.417 C 
ATOM     20  F   UNL     1       8.221   1.653  21.488  0.00  0.00    -0.166 F 
ATOM     21  F   UNL     1       9.335  -0.018  20.654  0.00  0.00    -0.166 F 
ATOM     22  F   UNL     1      10.388   1.607  21.643  0.00  0.00    -0.166 F 
ENDBRANCH  17  19
ENDBRANCH   1  13
TORSDOF 5
ENDMDL
MODEL 3
REMARK VINA RESULT:      -6.5      3.498      5.888
REMARK  Name = 
REMARK  5 active torsions:
REMARK  status: ('A' for Active; 'I' for Inactive)
REMARK    1  A    between atoms: O_1  and  C_2
REMARK    2  A    between atoms: C_2  and  C_4
REMARK    3  A    between atoms: C_9  and  N_10
REMARK    4  A    between atoms: N_10  and  C_11
REMARK    5  A    between atoms: C_13  and  C_17
REMARK                            x       y       z     vdW  Elec       q    Type
REMARK                         _______ _______ _______ _____ _____    ______ ____
ROOT
ATOM      1  N   UNL     1       7.335  -1.530  24.236  0.00  0.00    -0.314 N 
ATOM      2  H   UNL     1       7.070  -1.136  25.143  0.00  0.00    +0.152 HD
ENDROOT
BRANCH   1   4
ATOM      3  C   UNL     1       8.844  -0.476  22.562  0.00  0.00    +0.080 A 
ATOM      4  C   UNL     1       7.661  -0.467  23.334  0.00  0.00    +0.045 A 
ATOM      5  C   UNL     1       6.807   0.647  23.212  0.00  0.00    +0.024 A 
ATOM      6  C   UNL     1       7.050   1.663  22.289  0.00  0.00    +0.002 A 
ATOM      7  C   UNL     1       8.173   1.601  21.475  0.00  0.00    +0.001 A 
ATOM      8  C   UNL     1       9.076   0.549  21.625  0.00  0.00    +0.017 A 
BRANCH   3   9
ATOM      9  C   UNL     1       9.919  -1.502  22.683  0.00  0.00    +0.339 C 
ATOM     10  O   UNL     1      10.135  -2.131  23.706  0.00  0.00    -0.245 OA
BRANCH   9  11
ATOM     11  O   UNL     1      10.661  -1.652  21.563  0.00  0.00    -0.477 OA
ATOM     12  H   UNL     1      11.627  -1.644  21.737  0.00  0.00    +0.295 HD
ENDBRANCH   9  11
ENDBRANCH   3   9
ENDBRANCH   1   4
BRANCH   1  13
ATOM     13  C   UNL     1       6.509  -2.641  23.904  0.00  0.00    +0.032 A 
ATOM     14  C   UNL     1       5.202  -2.722  24.395  0.00  0.00    +0.023 A 
ATOM     15  C   UNL     1       4.336  -3.724  23.946  0.00  0.00    +0.002 A 
ATOM     16  C   UNL     1       4.778  -4.675  23.025  0.00  0.00    +0.012 A 
ATOM     17  C   UNL     1       6.107  -4.665  22.581  0.00  0.00    +0.057 A 
ATOM     18  C   UNL     1       6.964  -3.652  23.040  0.00  0.00    +0.035 A 
BRANCH  17  19
ATOM     19  C   UNL     1       6.586  -5.716  21.609  0.00  0.00    +0.417 C 
ATOM     20  F   UNL     1       7.926  -5.640  21.380  0.00  0.00    -0.166 F 
ATOM     21  F   UNL     1       5.991  -5.606  20.390  0.00  0.00    -0.166 F 
ATOM     22  F   UNL     1       6.352  -6.992  22.025  0.00  0.00    -0.166 F 
ENDBRANCH  17  19
ENDBRANCH   1  13
TORSDOF 5
ENDMDL
MODEL 4
REMARK VINA RESULT:      -6.5      1.824      2.486
REMARK  Name = 
REMARK  5 active torsions:
REMARK  status: ('A' for Active; 'I' for Inactive)
REMARK    1  A    between atoms: O_1  and  C_2
REMARK    2  A    between atoms: C_2  and  C_4
REMARK    3  A    between atoms: C_9  and  N_10
REMARK    4  A    between atoms: N_10  and  C_11
REMARK    5  A    between atoms: C_13  and  C_17
REMARK                            x       y       z     vdW  Elec       q    Type
REMARK                         _______ _______ _______ _____ _____    ______ ____
ROOT
ATOM      1  N   UNL     1       9.036  -2.420  24.337  0.00  0.00    -0.314 N 
ATOM      2  H   UNL     1       9.771  -3.131  24.282  0.00  0.00    +0.152 HD
ENDROOT
BRANCH   1   4
ATOM      3  C   UNL     1       7.597  -4.338  25.002  0.00  0.00    +0.080 A 
ATOM      4  C   UNL     1       7.759  -3.062  24.418  0.00  0.00    +0.045 A 
ATOM      5  C   UNL     1       6.616  -2.435  23.884  0.00  0.00    +0.024 A 
ATOM      6  C   UNL     1       5.344  -2.992  24.013  0.00  0.00    +0.002 A 
ATOM      7  C   UNL     1       5.186  -4.207  24.664  0.00  0.00    +0.001 A 
ATOM      8  C   UNL     1       6.308  -4.887  25.137  0.00  0.00    +0.017 A 
BRANCH   3   9
ATOM      9  C   UNL     1       8.721  -5.194  25.477  0.00  0.00    +0.339 C 
ATOM     10  O   UNL     1       9.791  -5.282  24.896  0.00  0.00    -0.245 OA
BRANCH   9  11
ATOM     11  O   UNL     1       8.440  -5.897  26.597  0.00  0.00    -0.477 OA
ATOM     12  H   UNL     1       9.024  -6.677  26.719  0.00  0.00    +0.295 HD
ENDBRANCH   9  11
ENDBRANCH   3   9
ENDBRANCH   1   4
BRANCH   1  13
ATOM     13  C   UNL     1       9.330  -1.319  23.485  0.00  0.00    +0.032 A 
ATOM     14  C   UNL     1       9.388  -1.494  22.099  0.00  0.00    +0.023 A 
ATOM     15  C   UNL     1       9.518  -0.390  21.250  0.00  0.00    +0.002 A 
ATOM     16  C   UNL     1       9.623   0.896  21.779  0.00  0.00    +0.012 A 
ATOM     17  C   UNL     1       9.651   1.090  23.166  0.00  0.00    +0.057 A 
ATOM     18  C   UNL     1       9.519  -0.027  24.006  0.00  0.00    +0.035 A 
BRANCH  17  19
ATOM     19  C   UNL     1       9.796   2.482  23.731  0.00  0.00    +0.417 C 
ATOM     20  F   UNL     1      11.097   2.877  23.815  0.00  0.00    -0.166 F 
ATOM     21  F   UNL     1       9.291   2.588  24.991  0.00  0.00    -0.166 F 
ATOM     22  F   UNL     1       9.166   3.439  22.995  0.00  0.00    -0.166 F 
ENDBRANCH  17  19
ENDBRANCH   1  13
TORSDOF 5
ENDMDL
MODEL 5
REMARK VINA RESULT:      -6.4      1.877      2.476
REMARK  Name = 
REMARK  5 active torsions:
REMARK  status: ('A' for Active; 'I' for Inactive)
REMARK    1  A    between atoms: O_1  and  C_2
REMARK    2  A    between atoms: C_2  and  C_4
REMARK    3  A    between atoms: C_9  and  N_10
REMARK    4  A    between atoms: N_10  and  C_11
REMARK    5  A    between atoms: C_13  and  C_17
REMARK                            x       y       z     vdW  Elec       q    Type
REMARK                         _______ _______ _______ _____ _____    ______ ____
ROOT
ATOM      1  N   UNL     1       9.508  -2.769  23.669  0.00  0.00    -0.314 N 
ATOM      2  H   UNL     1      10.262  -3.272  23.192  0.00  0.00    +0.152 HD
ENDROOT
BRANCH   1   4
ATOM      3  C   UNL     1       8.167  -4.551  24.771  0.00  0.00    +0.080 A 
ATOM      4  C   UNL     1       8.348  -3.605  23.738  0.00  0.00    +0.045 A 
ATOM      5  C   UNL     1       7.353  -3.520  22.744  0.00  0.00    +0.024 A 
ATOM      6  C   UNL     1       6.173  -4.260  22.819  0.00  0.00    +0.002 A 
ATOM      7  C   UNL     1       5.969  -5.125  23.884  0.00  0.00    +0.001 A 
ATOM      8  C   UNL     1       6.968  -5.286  24.844  0.00  0.00    +0.017 A 
BRANCH   3   9
ATOM      9  C   UNL     1       9.187  -4.868  25.809  0.00  0.00    +0.339 C 
ATOM     10  O   UNL     1       9.057  -4.584  26.989  0.00  0.00    -0.245 OA
BRANCH   9  11
ATOM     11  O   UNL     1      10.295  -5.472  25.323  0.00  0.00    -0.477 OA
ATOM     12  H   UNL     1      10.810  -4.900  24.713  0.00  0.00    +0.295 HD
ENDBRANCH   9  11
ENDBRANCH   3   9
ENDBRANCH   1   4
BRANCH   1  13
ATOM     13  C   UNL     1       9.490  -1.399  23.284  0.00  0.00    +0.032 A 
ATOM     14  C   UNL     1       9.864  -1.023  21.990  0.00  0.00    +0.023 A 
ATOM     15  C   UNL     1       9.696   0.297  21.559  0.00  0.00    +0.002 A 
ATOM     16  C   UNL     1       9.183   1.261  22.427  0.00  0.00    +0.012 A 
ATOM     17  C   UNL     1       8.879   0.929  23.753  0.00  0.00    +0.057 A 
ATOM     18  C   UNL     1       9.051  -0.401  24.172  0.00  0.00    +0.035 A 
BRANCH  17  19
ATOM     19  C   UNL     1       8.354   1.984  24.695  0.00  0.00    +0.417 C 
ATOM     20  F   UNL     1       8.066   1.484  25.929  0.00  0.00    -0.166 F 
ATOM     21  F   UNL     1       7.204   2.557  24.246  0.00  0.00    -0.166 F 
ATOM     22  F   UNL     1       9.226   3.010  24.905  0.00  0.00    -0.166 F 
ENDBRANCH  17  19
ENDBRANCH   1  13
TORSDOF 5
ENDMDL
MODEL 6
REMARK VINA RESULT:      -6.4      3.798      6.144
REMARK  Name = 
REMARK  5 active torsions:
REMARK  status: ('A' for Active; 'I' for Inactive)
REMARK    1  A    between atoms: O_1  and  C_2
REMARK    2  A    between atoms: C_2  and  C_4
REMARK    3  A    between atoms: C_9  and  N_10
REMARK    4  A    between atoms: N_10  and  C_11
REMARK    5  A    between atoms: C_13  and  C_17
REMARK                            x       y       z     vdW  Elec       q    Type
REMARK                         _______ _______ _______ _____ _____    ______ ____
ROOT
ATOM      1  N   UNL     1       7.239  -0.849  22.799  0.00  0.00    -0.314 N 
ATOM      2  H   UNL     1       6.680  -0.694  21.955  0.00  0.00    +0.152 HD
ENDROOT
BRANCH   1   4
ATOM      3  C   UNL     1       8.392   0.904  24.134  0.00  0.00    +0.080 A 
ATOM      4  C   UNL     1       8.209   0.196  22.927  0.00  0.00    +0.045 A 
ATOM      5  C   UNL     1       9.001   0.567  21.822  0.00  0.00    +0.024 A 
ATOM      6  C   UNL     1      10.009   1.524  21.927  0.00  0.00    +0.002 A 
ATOM      7  C   UNL     1      10.236   2.154  23.143  0.00  0.00    +0.001 A 
ATOM      8  C   UNL     1       9.419   1.862  24.235  0.00  0.00    +0.017 A 
BRANCH   3   9
ATOM      9  C   UNL     1       7.539   0.738  25.345  0.00  0.00    +0.339 C 
ATOM     10  O   UNL     1       6.348   0.474  25.297  0.00  0.00    -0.245 OA
BRANCH   9  11
ATOM     11  O   UNL     1       8.195   0.938  26.510  0.00  0.00    -0.477 OA
ATOM     12  H   UNL     1       7.894   1.740  26.989  0.00  0.00    +0.295 HD
ENDBRANCH   9  11
ENDBRANCH   3   9
ENDBRANCH   1   4
BRANCH   1  13
ATOM     13  C   UNL     1       7.521  -2.233  22.973  0.00  0.00    +0.032 A 
ATOM     14  C   UNL     1       8.457  -2.650  23.924  0.00  0.00    +0.023 A 
ATOM     15  C   UNL     1       8.621  -4.009  24.211  0.00  0.00    +0.002 A 
ATOM     16  C   UNL     1       7.873  -4.967  23.526  0.00  0.00    +0.012 A 
ATOM     17  C   UNL     1       6.989  -4.582  22.511  0.00  0.00    +0.057 A 
ATOM     18  C   UNL     1       6.834  -3.213  22.235  0.00  0.00    +0.035 A 
BRANCH  17  19
ATOM     19  C   UNL     1       6.206  -5.626  21.753  0.00  0.00    +0.417 C 
ATOM     20  F   UNL     1       6.155  -5.371  20.416  0.00  0.00    -0.166 F 
ATOM     21  F   UNL     1       4.912  -5.709  22.168  0.00  0.00    -0.166 F 
ATOM     22  F   UNL     1       6.718  -6.884  21.871  0.00  0.00    -0.166 F 
ENDBRANCH  17  19
ENDBRANCH   1  13
TORSDOF 5
ENDMDL
MODEL 7
REMARK VINA RESULT:      -6.4      3.681      6.104
REMARK  Name = 
REMARK  5 active torsions:
REMARK  status: ('A' for Active; 'I' for Inactive)
REMARK    1  A    between atoms: O_1  and  C_2
REMARK    2  A    between atoms: C_2  and  C_4
REMARK    3  A    between atoms: C_9  and  N_10
REMARK    4  A    between atoms: N_10  and  C_11
REMARK    5  A    between atoms: C_13  and  C_17
REMARK                            x       y       z     vdW  Elec       q    Type
REMARK                         _______ _______ _______ _____ _____    ______ ____
ROOT
ATOM      1  N   UNL     1       7.043  -1.081  22.955  0.00  0.00    -0.314 N 
ATOM      2  H   UNL     1       6.827  -0.836  21.985  0.00  0.00    +0.152 HD
ENDROOT
BRANCH   1   4
ATOM      3  C   UNL     1       9.317  -0.076  23.038  0.00  0.00    +0.080 A 
ATOM      4  C   UNL     1       7.979  -0.137  23.486  0.00  0.00    +0.045 A 
ATOM      5  C   UNL     1       7.587   0.754  24.505  0.00  0.00    +0.024 A 
ATOM      6  C   UNL     1       8.446   1.738  24.993  0.00  0.00    +0.002 A 
ATOM      7  C   UNL     1       9.733   1.843  24.485  0.00  0.00    +0.001 A 
ATOM      8  C   UNL     1      10.174   0.928  23.529  0.00  0.00    +0.017 A 
BRANCH   3   9
ATOM      9  C   UNL     1       9.927  -1.039  22.079  0.00  0.00    +0.339 C 
ATOM     10  O   UNL     1      10.768  -1.864  22.398  0.00  0.00    -0.245 OA
BRANCH   9  11
ATOM     11  O   UNL     1       9.491  -0.898  20.807  0.00  0.00    -0.477 OA
ATOM     12  H   UNL     1      10.089  -0.350  20.253  0.00  0.00    +0.295 HD
ENDBRANCH   9  11
ENDBRANCH   3   9
ENDBRANCH   1   4
BRANCH   1  13
ATOM     13  C   UNL     1       7.147  -2.491  23.112  0.00  0.00    +0.032 A 
ATOM     14  C   UNL     1       6.784  -3.347  22.067  0.00  0.00    +0.023 A 
ATOM     15  C   UNL     1       7.033  -4.721  22.156  0.00  0.00    +0.002 A 
ATOM     16  C   UNL     1       7.618  -5.256  23.304  0.00  0.00    +0.012 A 
ATOM     17  C   UNL     1       7.915  -4.433  24.397  0.00  0.00    +0.057 A 
ATOM     18  C   UNL     1       7.660  -3.055  24.293  0.00  0.00    +0.035 A 
BRANCH  17  19
ATOM     19  C   UNL     1       8.519  -5.025  25.647  0.00  0.00    +0.417 C 
ATOM     20  F   UNL     1       9.047  -4.077  26.469  0.00  0.00    -0.166 F 
ATOM     21  F   UNL     1       9.533  -5.891  25.375  0.00  0.00    -0.166 F 
ATOM     22  F   UNL     1       7.627  -5.720  26.408  0.00  0.00    -0.166 F 
ENDBRANCH  17  19
ENDBRANCH   1  13
TORSDOF 5
ENDMDL
MODEL 8
REMARK VINA RESULT:      -6.1      3.297      5.791
REMARK  Name = 
REMARK  5 active torsions:
REMARK  status: ('A' for Active; 'I' for Inactive)
REMARK    1  A    between atoms: O_1  and  C_2
REMARK    2  A    between atoms: C_2  and  C_4
REMARK    3  A    between atoms: C_9  and  N_10
REMARK    4  A    between atoms: N_10  and  C_11
REMARK    5  A    between atoms: C_13  and  C_17
REMARK                            x       y       z     vdW  Elec       q    Type
REMARK                         _______ _______ _______ _____ _____    ______ ____
ROOT
ATOM      1  N   UNL     1       8.849  -1.392  24.351  0.00  0.00    -0.314 N 
ATOM      2  H   UNL     1       8.460  -1.140  25.264  0.00  0.00    +0.152 HD
ENDROOT
BRANCH   1   4
ATOM      3  C   UNL     1       7.519   0.533  23.507  0.00  0.00    +0.080 A 
ATOM      4  C   UNL     1       8.649  -0.310  23.436  0.00  0.00    +0.045 A 
ATOM      5  C   UNL     1       9.582  -0.071  22.407  0.00  0.00    +0.024 A 
ATOM      6  C   UNL     1       9.464   1.019  21.545  0.00  0.00    +0.002 A 
ATOM      7  C   UNL     1       8.392   1.891  21.679  0.00  0.00    +0.001 A 
ATOM      8  C   UNL     1       7.413   1.638  22.640  0.00  0.00    +0.017 A 
BRANCH   3   9
ATOM      9  C   UNL     1       6.372   0.326  24.436  0.00  0.00    +0.339 C 
ATOM     10  O   UNL     1       6.416  -0.420  25.402  0.00  0.00    -0.245 OA
BRANCH   9  11
ATOM     11  O   UNL     1       5.259   1.014  24.097  0.00  0.00    -0.477 OA
ATOM     12  H   UNL     1       4.668   0.517  23.492  0.00  0.00    +0.295 HD
ENDBRANCH   9  11
ENDBRANCH   3   9
ENDBRANCH   1   4
BRANCH   1  13
ATOM     13  C   UNL     1       8.591  -2.759  24.049  0.00  0.00    +0.032 A 
ATOM     14  C   UNL     1       9.165  -3.774  24.821  0.00  0.00    +0.023 A 
ATOM     15  C   UNL     1       8.791  -5.108  24.630  0.00  0.00    +0.002 A 
ATOM     16  C   UNL     1       7.863  -5.444  23.644  0.00  0.00    +0.012 A 
ATOM     17  C   UNL     1       7.336  -4.456  22.802  0.00  0.00    +0.057 A 
ATOM     18  C   UNL     1       7.720  -3.120  23.007  0.00  0.00    +0.035 A 
BRANCH  17  19
ATOM     19  C   UNL     1       6.356  -4.832  21.717  0.00  0.00    +0.417 C 
ATOM     20  F   UNL     1       6.882  -5.714  20.824  0.00  0.00    -0.166 F 
ATOM     21  F   UNL     1       5.951  -3.757  20.987  0.00  0.00    -0.166 F 
ATOM     22  F   UNL     1       5.218  -5.415  22.188  0.00  0.00    -0.166 F 
ENDBRANCH  17  19
ENDBRANCH   1  13
TORSDOF 5
ENDMDL
MODEL 9
REMARK VINA RESULT:      -6.1      3.212      5.672
REMARK  Name = 
REMARK  5 active torsions:
REMARK  status: ('A' for Active; 'I' for Inactive)
REMARK    1  A    between atoms: O_1  and  C_2
REMARK    2  A    between atoms: C_2  and  C_4
REMARK    3  A    between atoms: C_9  and  N_10
REMARK    4  A    between atoms: N_10  and  C_11
REMARK    5  A    between atoms: C_13  and  C_17
REMARK                            x       y       z     vdW  Elec       q    Type
REMARK                         _______ _______ _______ _____ _____    ______ ____
ROOT
ATOM      1  N   UNL     1       7.666  -0.948  24.576  0.00  0.00    -0.314 N 
ATOM      2  H   UNL     1       6.717  -0.812  24.935  0.00  0.00    +0.152 HD
ENDROOT
BRANCH   1   4
ATOM      3  C   UNL     1       9.269   0.793  23.810  0.00  0.00    +0.080 A 
ATOM      4  C   UNL     1       8.014   0.151  23.727  0.00  0.00    +0.045 A 
ATOM      5  C   UNL     1       7.085   0.644  22.789  0.00  0.00    +0.024 A 
ATOM      6  C   UNL     1       7.415   1.659  21.892  0.00  0.00    +0.002 A 
ATOM      7  C   UNL     1       8.681   2.226  21.926  0.00  0.00    +0.001 A 
ATOM      8  C   UNL     1       9.596   1.811  22.893  0.00  0.00    +0.017 A 
BRANCH   3   9
ATOM      9  C   UNL     1      10.301   0.493  24.842  0.00  0.00    +0.339 C 
ATOM     10  O   UNL     1      11.501   0.526  24.623  0.00  0.00    -0.245 OA
BRANCH   9  11
ATOM     11  O   UNL     1       9.789   0.145  26.044  0.00  0.00    -0.477 OA
ATOM     12  H   UNL     1       9.033  -0.477  25.975  0.00  0.00    +0.295 HD
ENDBRANCH   9  11
ENDBRANCH   3   9
ENDBRANCH   1   4
BRANCH   1  13
ATOM     13  C   UNL     1       7.897  -2.315  24.257  0.00  0.00    +0.032 A 
ATOM     14  C   UNL     1       8.760  -3.088  25.040  0.00  0.00    +0.023 A 
ATOM     15  C   UNL     1       8.868  -4.466  24.829  0.00  0.00    +0.002 A 
ATOM     16  C   UNL     1       8.137  -5.081  23.811  0.00  0.00    +0.012 A 
ATOM     17  C   UNL     1       7.330  -4.317  22.959  0.00  0.00    +0.057 A 
ATOM     18  C   UNL     1       7.231  -2.934  23.185  0.00  0.00    +0.035 A 
BRANCH  17  19
ATOM     19  C   UNL     1       6.567  -4.985  21.841  0.00  0.00    +0.417 C 
ATOM     20  F   UNL     1       5.562  -5.781  22.299  0.00  0.00    -0.166 F 
ATOM     21  F   UNL     1       7.360  -5.785  21.077  0.00  0.00    -0.166 F 
ATOM     22  F   UNL     1       5.982  -4.106  20.979  0.00  0.00    -0.166 F 
ENDBRANCH  17  19
ENDBRANCH   1  13
TORSDOF 5
ENDMDL
