MODEL 1
REMARK VINA RESULT:      -6.3      0.000      0.000
REMARK  Name = 
REMARK  14 active torsions:
REMARK  status: ('A' for Active; 'I' for Inactive)
REMARK    1  A    between atoms: C_1  and  O_2
REMARK    2  A    between atoms: O_2  and  C_3
REMARK    3  A    between atoms: C_4  and  N_5
REMARK    4  A    between atoms: C_10  and  C_12
REMARK    5  A    between atoms: N_14  and  C_15
REMARK    6  A    between atoms: C_23  and  N_24
REMARK    7  A    between atoms: C_25  and  C_27
REMARK    8  A    between atoms: C_29  and  N_31
REMARK    9  A    between atoms: N_31  and  C_32
REMARK   10  A    between atoms: N_31  and  C_33
REMARK   11  A    between atoms: C_33  and  C_34
REMARK   12  A    between atoms: C_34  and  N_35
REMARK   13  A    between atoms: N_35  and  C_36
REMARK   14  A    between atoms: N_35  and  C_37
REMARK                            x       y       z     vdW  Elec       q    Type
REMARK                         _______ _______ _______ _____ _____    ______ ____
ROOT
ATOM      1  C   UNL     1       3.277  -2.633  26.725  0.00  0.00    +0.143 A 
ATOM      2  C   UNL     1       3.335  -3.722  25.833  0.00  0.00    +0.072 A 
ATOM      3  C   UNL     1       4.540  -4.353  25.433  0.00  0.00    +0.055 A 
ATOM      4  C   UNL     1       5.712  -3.921  26.096  0.00  0.00    +0.057 A 
ATOM      5  C   UNL     1       5.629  -2.892  27.043  0.00  0.00    +0.052 A 
ATOM      6  C   UNL     1       4.458  -2.165  27.294  0.00  0.00    +0.078 A 
ENDROOT
BRANCH   6   7
ATOM      7  N   UNL     1       4.516  -1.028  28.123  0.00  0.00    -0.281 N 
ATOM      8  H   UNL     1       4.529  -1.252  29.110  0.00  0.00    +0.155 HD
ATOM      9  C   UNL     1       5.346   0.085  27.942  0.00  0.00    +0.220 A 
ATOM     10  N   UNL     1       5.789   0.413  26.715  0.00  0.00    -0.214 NA
ATOM     11  C   UNL     1       6.736   1.360  26.613  0.00  0.00    +0.078 A 
ATOM     12  C   UNL     1       7.177   2.049  27.722  0.00  0.00    +0.048 A 
ATOM     13  C   UNL     1       6.599   1.711  28.922  0.00  0.00    +0.116 A 
ATOM     14  N   UNL     1       5.693   0.732  29.061  0.00  0.00    -0.223 NA
BRANCH  11  15
ATOM     15  C   UNL     1       7.307   1.584  25.274  0.00  0.00    +0.026 A 
ATOM     16  C   UNL     1       8.318   0.857  24.545  0.00  0.00    +0.009 A 
ATOM     17  C   UNL     1       9.093  -0.303  24.798  0.00  0.00    +0.010 A 
ATOM     18  C   UNL     1      10.019  -0.755  23.851  0.00  0.00    +0.001 A 
ATOM     19  C   UNL     1      10.193  -0.079  22.649  0.00  0.00    +0.002 A 
ATOM     20  C   UNL     1       9.450   1.068  22.366  0.00  0.00    +0.026 A 
ATOM     21  C   UNL     1       8.522   1.515  23.326  0.00  0.00    +0.049 A 
ATOM     22  N   UNL     1       7.673   2.597  23.308  0.00  0.00    -0.349 N 
ATOM     23  C   UNL     1       7.568   3.558  22.235  0.00  0.00    +0.149 C 
ATOM     24  C   UNL     1       6.942   2.650  24.466  0.00  0.00    +0.096 A 
ENDBRANCH  11  15
ENDBRANCH   6   7
BRANCH   4  25
ATOM     25  N   UNL     1       6.990  -4.392  25.715  0.00  0.00    -0.280 N 
ATOM     26  H   UNL     1       7.298  -4.066  24.812  0.00  0.00    +0.155 HD
ATOM     27  C   UNL     1       7.829  -5.198  26.461  0.00  0.00    +0.241 C 
ATOM     28  O   UNL     1       7.568  -5.773  27.511  0.00  0.00    -0.271 OA
BRANCH  27  29
ATOM     29  C   UNL     1       9.152  -5.395  25.807  0.00  0.00    +0.060 C 
ATOM     30  C   UNL     1       9.700  -4.397  25.099  0.00  0.00    +0.013 C 
ENDBRANCH  27  29
ENDBRANCH   4  25
BRANCH   1  32
ATOM     31  C   UNL     1       0.943  -2.764  26.208  0.00  0.00    +0.277 C 
ATOM     32  O   UNL     1       2.007  -2.150  26.927  0.00  0.00    -0.493 OA
ENDBRANCH   1  32
BRANCH   3  33
ATOM     33  N   UNL     1       4.530  -5.304  24.407  0.00  0.00    -0.330 N 
ATOM     34  C   UNL     1       4.568  -6.741  24.646  0.00  0.00    +0.129 C 
BRANCH  33  35
ATOM     35  C   UNL     1       4.251  -4.896  23.013  0.00  0.00    +0.120 C 
BRANCH  35  36
ATOM     36  C   UNL     1       5.318  -3.897  22.508  0.00  0.00    +0.102 C 
BRANCH  36  37
ATOM     37  N   UNL     1       6.728  -4.316  22.672  0.00  0.00    -0.307 NA
ATOM     38  C   UNL     1       7.595  -3.193  22.289  0.00  0.00    +0.104 C 
ATOM     39  C   UNL     1       7.050  -5.479  21.842  0.00  0.00    +0.104 C 
ENDBRANCH  36  37
ENDBRANCH  35  36
ENDBRANCH  33  35
ENDBRANCH   3  33
TORSDOF 9
ENDMDL
MODEL 2
REMARK VINA RESULT:      -6.2      2.394      7.625
REMARK  Name = 
REMARK  14 active torsions:
REMARK  status: ('A' for Active; 'I' for Inactive)
REMARK    1  A    between atoms: C_1  and  O_2
REMARK    2  A    between atoms: O_2  and  C_3
REMARK    3  A    between atoms: C_4  and  N_5
REMARK    4  A    between atoms: C_10  and  C_12
REMARK    5  A    between atoms: N_14  and  C_15
REMARK    6  A    between atoms: C_23  and  N_24
REMARK    7  A    between atoms: C_25  and  C_27
REMARK    8  A    between atoms: C_29  and  N_31
REMARK    9  A    between atoms: N_31  and  C_32
REMARK   10  A    between atoms: N_31  and  C_33
REMARK   11  A    between atoms: C_33  and  C_34
REMARK   12  A    between atoms: C_34  and  N_35
REMARK   13  A    between atoms: N_35  and  C_36
REMARK   14  A    between atoms: N_35  and  C_37
REMARK                            x       y       z     vdW  Elec       q    Type
REMARK                         _______ _______ _______ _____ _____    ______ ____
ROOT
ATOM      1  C   UNL     1       8.351  -4.195  24.151  0.00  0.00    +0.143 A 
ATOM      2  C   UNL     1       8.351  -3.076  23.295  0.00  0.00    +0.072 A 
ATOM      3  C   UNL     1       8.285  -1.734  23.747  0.00  0.00    +0.055 A 
ATOM      4  C   UNL     1       8.366  -1.551  25.146  0.00  0.00    +0.057 A 
ATOM      5  C   UNL     1       8.450  -2.669  25.986  0.00  0.00    +0.052 A 
ATOM      6  C   UNL     1       8.335  -3.989  25.529  0.00  0.00    +0.078 A 
ENDROOT
BRANCH   6   7
ATOM      7  N   UNL     1       8.242  -5.037  26.464  0.00  0.00    -0.281 N 
ATOM      8  H   UNL     1       8.905  -4.955  27.224  0.00  0.00    +0.155 HD
ATOM      9  C   UNL     1       7.061  -5.563  27.001  0.00  0.00    +0.220 A 
ATOM     10  N   UNL     1       5.905  -5.479  26.319  0.00  0.00    -0.214 NA
ATOM     11  C   UNL     1       4.768  -5.813  26.952  0.00  0.00    +0.078 A 
ATOM     12  C   UNL     1       4.788  -6.320  28.233  0.00  0.00    +0.048 A 
ATOM     13  C   UNL     1       6.024  -6.458  28.816  0.00  0.00    +0.116 A 
ATOM     14  N   UNL     1       7.170  -6.082  28.231  0.00  0.00    -0.223 NA
BRANCH  11  15
ATOM     15  C   UNL     1       3.510  -5.563  26.227  0.00  0.00    +0.026 A 
ATOM     16  C   UNL     1       2.749  -6.406  25.337  0.00  0.00    +0.009 A 
ATOM     17  C   UNL     1       2.884  -7.735  24.860  0.00  0.00    +0.010 A 
ATOM     18  C   UNL     1       1.941  -8.267  23.973  0.00  0.00    +0.001 A 
ATOM     19  C   UNL     1       0.858  -7.506  23.548  0.00  0.00    +0.002 A 
ATOM     20  C   UNL     1       0.695  -6.193  23.994  0.00  0.00    +0.026 A 
ATOM     21  C   UNL     1       1.649  -5.668  24.885  0.00  0.00    +0.049 A 
ATOM     22  N   UNL     1       1.732  -4.427  25.472  0.00  0.00    -0.349 N 
ATOM     23  C   UNL     1       0.799  -3.342  25.266  0.00  0.00    +0.149 C 
ATOM     24  C   UNL     1       2.839  -4.351  26.276  0.00  0.00    +0.096 A 
ENDBRANCH  11  15
ENDBRANCH   6   7
BRANCH   4  25
ATOM     25  N   UNL     1       8.205  -0.273  25.732  0.00  0.00    -0.280 N 
ATOM     26  H   UNL     1       9.026   0.310  25.682  0.00  0.00    +0.155 HD
ATOM     27  C   UNL     1       7.056   0.232  26.311  0.00  0.00    +0.241 C 
ATOM     28  O   UNL     1       6.021  -0.375  26.560  0.00  0.00    -0.271 OA
BRANCH  27  29
ATOM     29  C   UNL     1       7.206   1.658  26.712  0.00  0.00    +0.060 C 
ATOM     30  C   UNL     1       6.251   2.247  27.446  0.00  0.00    +0.013 C 
ENDBRANCH  27  29
ENDBRANCH   4  25
BRANCH   1  32
ATOM     31  C   UNL     1       7.304  -5.669  22.583  0.00  0.00    +0.277 C 
ATOM     32  O   UNL     1       8.366  -5.399  23.490  0.00  0.00    -0.493 OA
ENDBRANCH   1  32
BRANCH   3  33
ATOM     33  N   UNL     1       8.105  -0.691  22.833  0.00  0.00    -0.330 N 
ATOM     34  C   UNL     1       6.913   0.147  22.797  0.00  0.00    +0.129 C 
BRANCH  33  35
ATOM     35  C   UNL     1       9.231  -0.236  21.988  0.00  0.00    +0.120 C 
BRANCH  35  36
ATOM     36  C   UNL     1       9.666   1.196  22.377  0.00  0.00    +0.102 C 
BRANCH  36  37
ATOM     37  N   UNL     1       9.799   1.462  23.827  0.00  0.00    -0.307 NA
ATOM     38  C   UNL     1       9.560   2.893  24.063  0.00  0.00    +0.104 C 
ATOM     39  C   UNL     1      11.130   1.108  24.325  0.00  0.00    +0.104 C 
ENDBRANCH  36  37
ENDBRANCH  35  36
ENDBRANCH  33  35
ENDBRANCH   3  33
TORSDOF 9
ENDMDL
MODEL 3
REMARK VINA RESULT:      -6.1      2.628      4.920
REMARK  Name = 
REMARK  14 active torsions:
REMARK  status: ('A' for Active; 'I' for Inactive)
REMARK    1  A    between atoms: C_1  and  O_2
REMARK    2  A    between atoms: O_2  and  C_3
REMARK    3  A    between atoms: C_4  and  N_5
REMARK    4  A    between atoms: C_10  and  C_12
REMARK    5  A    between atoms: N_14  and  C_15
REMARK    6  A    between atoms: C_23  and  N_24
REMARK    7  A    between atoms: C_25  and  C_27
REMARK    8  A    between atoms: C_29  and  N_31
REMARK    9  A    between atoms: N_31  and  C_32
REMARK   10  A    between atoms: N_31  and  C_33
REMARK   11  A    between atoms: C_33  and  C_34
REMARK   12  A    between atoms: C_34  and  N_35
REMARK   13  A    between atoms: N_35  and  C_36
REMARK   14  A    between atoms: N_35  and  C_37
REMARK                            x       y       z     vdW  Elec       q    Type
REMARK                         _______ _______ _______ _____ _____    ______ ____
ROOT
ATOM      1  C   UNL     1       6.448  -4.252  23.466  0.00  0.00    +0.143 A 
ATOM      2  C   UNL     1       5.168  -4.657  23.893  0.00  0.00    +0.072 A 
ATOM      3  C   UNL     1       4.786  -4.763  25.254  0.00  0.00    +0.055 A 
ATOM      4  C   UNL     1       5.729  -4.294  26.198  0.00  0.00    +0.057 A 
ATOM      5  C   UNL     1       6.969  -3.815  25.754  0.00  0.00    +0.052 A 
ATOM      6  C   UNL     1       7.392  -3.884  24.421  0.00  0.00    +0.078 A 
ENDROOT
BRANCH   6   7
ATOM      7  N   UNL     1       8.723  -3.553  24.101  0.00  0.00    -0.281 N 
ATOM      8  H   UNL     1       9.194  -4.267  23.559  0.00  0.00    +0.155 HD
ATOM      9  C   UNL     1       9.178  -2.315  23.634  0.00  0.00    +0.220 A 
ATOM     10  N   UNL     1       8.503  -1.187  23.923  0.00  0.00    -0.214 NA
ATOM     11  C   UNL     1       8.858  -0.055  23.294  0.00  0.00    +0.078 A 
ATOM     12  C   UNL     1       9.944  -0.020  22.447  0.00  0.00    +0.048 A 
ATOM     13  C   UNL     1      10.631  -1.200  22.285  0.00  0.00    +0.116 A 
ATOM     14  N   UNL     1      10.267  -2.357  22.856  0.00  0.00    -0.223 NA
BRANCH  11  15
ATOM     15  C   UNL     1       8.001   1.122  23.518  0.00  0.00    +0.026 A 
ATOM     16  C   UNL     1       8.339   2.505  23.756  0.00  0.00    +0.009 A 
ATOM     17  C   UNL     1       9.550   3.238  23.835  0.00  0.00    +0.010 A 
ATOM     18  C   UNL     1       9.528   4.614  24.092  0.00  0.00    +0.001 A 
ATOM     19  C   UNL     1       8.323   5.283  24.272  0.00  0.00    +0.002 A 
ATOM     20  C   UNL     1       7.111   4.593  24.204  0.00  0.00    +0.026 A 
ATOM     21  C   UNL     1       7.145   3.210  23.946  0.00  0.00    +0.049 A 
ATOM     22  N   UNL     1       6.120   2.301  23.828  0.00  0.00    -0.349 N 
ATOM     23  C   UNL     1       4.714   2.604  23.968  0.00  0.00    +0.149 C 
ATOM     24  C   UNL     1       6.617   1.050  23.573  0.00  0.00    +0.096 A 
ENDBRANCH  11  15
ENDBRANCH   6   7
BRANCH   4  25
ATOM     25  N   UNL     1       5.516  -4.442  27.588  0.00  0.00    -0.280 N 
ATOM     26  H   UNL     1       4.968  -3.703  28.002  0.00  0.00    +0.155 HD
ATOM     27  C   UNL     1       5.949  -5.485  28.384  0.00  0.00    +0.241 C 
ATOM     28  O   UNL     1       6.716  -6.389  28.073  0.00  0.00    -0.271 OA
BRANCH  27  29
ATOM     29  C   UNL     1       5.437  -5.382  29.778  0.00  0.00    +0.060 C 
ATOM     30  C   UNL     1       4.163  -5.024  29.995  0.00  0.00    +0.013 C 
ENDBRANCH  27  29
ENDBRANCH   4  25
BRANCH   1  32
ATOM     31  C   UNL     1       6.491  -5.529  21.441  0.00  0.00    +0.277 C 
ATOM     32  O   UNL     1       6.609  -4.274  22.101  0.00  0.00    -0.493 OA
ENDBRANCH   1  32
BRANCH   3  33
ATOM     33  N   UNL     1       3.562  -5.345  25.599  0.00  0.00    -0.330 N 
ATOM     34  C   UNL     1       2.281  -4.665  25.454  0.00  0.00    +0.129 C 
BRANCH  33  35
ATOM     35  C   UNL     1       3.486  -6.787  25.924  0.00  0.00    +0.120 C 
BRANCH  35  36
ATOM     36  C   UNL     1       3.405  -7.637  24.635  0.00  0.00    +0.102 C 
BRANCH  36  37
ATOM     37  N   UNL     1       2.275  -8.589  24.555  0.00  0.00    -0.307 NA
ATOM     38  C   UNL     1       1.510  -8.303  23.333  0.00  0.00    +0.104 C 
ATOM     39  C   UNL     1       1.388  -8.480  25.716  0.00  0.00    +0.104 C 
ENDBRANCH  36  37
ENDBRANCH  35  36
ENDBRANCH  33  35
ENDBRANCH   3  33
TORSDOF 9
ENDMDL
MODEL 4
REMARK VINA RESULT:      -6.1      2.456      5.021
REMARK  Name = 
REMARK  14 active torsions:
REMARK  status: ('A' for Active; 'I' for Inactive)
REMARK    1  A    between atoms: C_1  and  O_2
REMARK    2  A    between atoms: O_2  and  C_3
REMARK    3  A    between atoms: C_4  and  N_5
REMARK    4  A    between atoms: C_10  and  C_12
REMARK    5  A    between atoms: N_14  and  C_15
REMARK    6  A    between atoms: C_23  and  N_24
REMARK    7  A    between atoms: C_25  and  C_27
REMARK    8  A    between atoms: C_29  and  N_31
REMARK    9  A    between atoms: N_31  and  C_32
REMARK   10  A    between atoms: N_31  and  C_33
REMARK   11  A    between atoms: C_33  and  C_34
REMARK   12  A    between atoms: C_34  and  N_35
REMARK   13  A    between atoms: N_35  and  C_36
REMARK   14  A    between atoms: N_35  and  C_37
REMARK                            x       y       z     vdW  Elec       q    Type
REMARK                         _______ _______ _______ _____ _____    ______ ____
ROOT
ATOM      1  C   UNL     1       7.817  -0.943  26.727  0.00  0.00    +0.143 A 
ATOM      2  C   UNL     1       6.733  -1.842  26.786  0.00  0.00    +0.072 A 
ATOM      3  C   UNL     1       6.438  -2.792  25.776  0.00  0.00    +0.055 A 
ATOM      4  C   UNL     1       7.390  -2.902  24.737  0.00  0.00    +0.057 A 
ATOM      5  C   UNL     1       8.509  -2.059  24.733  0.00  0.00    +0.052 A 
ATOM      6  C   UNL     1       8.689  -1.009  25.643  0.00  0.00    +0.078 A 
ENDROOT
BRANCH   6   7
ATOM      7  N   UNL     1       9.745  -0.098  25.447  0.00  0.00    -0.281 N 
ATOM      8  H   UNL     1      10.613  -0.545  25.181  0.00  0.00    +0.155 HD
ATOM      9  C   UNL     1       9.672   1.113  24.749  0.00  0.00    +0.220 A 
ATOM     10  N   UNL     1       8.501   1.767  24.637  0.00  0.00    -0.214 NA
ATOM     11  C   UNL     1       8.435   2.813  23.797  0.00  0.00    +0.078 A 
ATOM     12  C   UNL     1       9.556   3.269  23.137  0.00  0.00    +0.048 A 
ATOM     13  C   UNL     1      10.728   2.596  23.385  0.00  0.00    +0.116 A 
ATOM     14  N   UNL     1      10.813   1.516  24.175  0.00  0.00    -0.223 NA
BRANCH  11  15
ATOM     15  C   UNL     1       7.105   3.406  23.584  0.00  0.00    +0.026 A 
ATOM     16  C   UNL     1       6.716   4.681  23.031  0.00  0.00    +0.009 A 
ATOM     17  C   UNL     1       7.415   5.786  22.480  0.00  0.00    +0.010 A 
ATOM     18  C   UNL     1       6.714   6.907  22.021  0.00  0.00    +0.001 A 
ATOM     19  C   UNL     1       5.327   6.957  22.096  0.00  0.00    +0.002 A 
ATOM     20  C   UNL     1       4.606   5.890  22.634  0.00  0.00    +0.026 A 
ATOM     21  C   UNL     1       5.321   4.768  23.093  0.00  0.00    +0.049 A 
ATOM     22  N   UNL     1       4.872   3.597  23.659  0.00  0.00    -0.349 N 
ATOM     23  C   UNL     1       3.489   3.274  23.923  0.00  0.00    +0.149 C 
ATOM     24  C   UNL     1       5.927   2.776  23.958  0.00  0.00    +0.096 A 
ENDBRANCH  11  15
ENDBRANCH   6   7
BRANCH   4  25
ATOM     25  N   UNL     1       7.163  -3.734  23.615  0.00  0.00    -0.280 N 
ATOM     26  H   UNL     1       6.435  -3.406  22.999  0.00  0.00    +0.155 HD
ATOM     27  C   UNL     1       7.850  -4.888  23.290  0.00  0.00    +0.241 C 
ATOM     28  O   UNL     1       8.670  -5.484  23.979  0.00  0.00    -0.271 OA
BRANCH  27  29
ATOM     29  C   UNL     1       7.433  -5.441  21.972  0.00  0.00    +0.060 C 
ATOM     30  C   UNL     1       6.130  -5.552  21.678  0.00  0.00    +0.013 C 
ENDBRANCH  27  29
ENDBRANCH   4  25
BRANCH   1  32
ATOM     31  C   UNL     1       6.866   0.919  27.893  0.00  0.00    +0.277 C 
ATOM     32  O   UNL     1       7.877  -0.077  27.792  0.00  0.00    -0.493 OA
ENDBRANCH   1  32
BRANCH   3  33
ATOM     33  N   UNL     1       5.245  -3.520  25.821  0.00  0.00    -0.330 N 
ATOM     34  C   UNL     1       4.077  -3.196  25.012  0.00  0.00    +0.129 C 
BRANCH  33  35
ATOM     35  C   UNL     1       5.185  -4.812  26.540  0.00  0.00    +0.120 C 
BRANCH  35  36
ATOM     36  C   UNL     1       5.190  -5.995  25.545  0.00  0.00    +0.102 C 
BRANCH  36  37
ATOM     37  N   UNL     1       4.132  -7.011  25.739  0.00  0.00    -0.307 NA
ATOM     38  C   UNL     1       3.420  -7.193  24.467  0.00  0.00    +0.104 C 
ATOM     39  C   UNL     1       3.175  -6.610  26.774  0.00  0.00    +0.104 C 
ENDBRANCH  36  37
ENDBRANCH  35  36
ENDBRANCH  33  35
ENDBRANCH   3  33
TORSDOF 9
ENDMDL
MODEL 5
REMARK VINA RESULT:      -6.0      2.342      5.973
REMARK  Name = 
REMARK  14 active torsions:
REMARK  status: ('A' for Active; 'I' for Inactive)
REMARK    1  A    between atoms: C_1  and  O_2
REMARK    2  A    between atoms: O_2  and  C_3
REMARK    3  A    between atoms: C_4  and  N_5
REMARK    4  A    between atoms: C_10  and  C_12
REMARK    5  A    between atoms: N_14  and  C_15
REMARK    6  A    between atoms: C_23  and  N_24
REMARK    7  A    between atoms: C_25  and  C_27
REMARK    8  A    between atoms: C_29  and  N_31
REMARK    9  A    between atoms: N_31  and  C_32
REMARK   10  A    between atoms: N_31  and  C_33
REMARK   11  A    between atoms: C_33  and  C_34
REMARK   12  A    between atoms: C_34  and  N_35
REMARK   13  A    between atoms: N_35  and  C_36
REMARK   14  A    between atoms: N_35  and  C_37
REMARK                            x       y       z     vdW  Elec       q    Type
REMARK                         _______ _______ _______ _____ _____    ______ ____
ROOT
ATOM      1  C   UNL     1       9.756  -1.114  23.518  0.00  0.00    +0.143 A 
ATOM      2  C   UNL     1       9.797  -2.315  24.253  0.00  0.00    +0.072 A 
ATOM      3  C   UNL     1       8.717  -3.230  24.334  0.00  0.00    +0.055 A 
ATOM      4  C   UNL     1       7.608  -2.949  23.503  0.00  0.00    +0.057 A 
ATOM      5  C   UNL     1       7.613  -1.793  22.712  0.00  0.00    +0.052 A 
ATOM      6  C   UNL     1       8.613  -0.813  22.782  0.00  0.00    +0.078 A 
ENDROOT
BRANCH   6   7
ATOM      7  N   UNL     1       8.439   0.401  22.090  0.00  0.00    -0.281 N 
ATOM      8  H   UNL     1       8.109   0.277  21.141  0.00  0.00    +0.155 HD
ATOM      9  C   UNL     1       7.830   1.557  22.592  0.00  0.00    +0.220 A 
ATOM     10  N   UNL     1       7.810   1.799  23.915  0.00  0.00    -0.214 NA
ATOM     11  C   UNL     1       7.047   2.809  24.365  0.00  0.00    +0.078 A 
ATOM     12  C   UNL     1       6.377   3.639  23.493  0.00  0.00    +0.048 A 
ATOM     13  C   UNL     1       6.532   3.373  22.154  0.00  0.00    +0.116 A 
ATOM     14  N   UNL     1       7.241   2.340  21.678  0.00  0.00    -0.223 NA
BRANCH  11  15
ATOM     15  C   UNL     1       6.928   2.946  25.826  0.00  0.00    +0.026 A 
ATOM     16  C   UNL     1       7.004   4.111  26.675  0.00  0.00    +0.009 A 
ATOM     17  C   UNL     1       7.182   5.500  26.451  0.00  0.00    +0.010 A 
ATOM     18  C   UNL     1       7.213   6.392  27.531  0.00  0.00    +0.001 A 
ATOM     19  C   UNL     1       7.069   5.932  28.835  0.00  0.00    +0.002 A 
ATOM     20  C   UNL     1       6.894   4.572  29.093  0.00  0.00    +0.026 A 
ATOM     21  C   UNL     1       6.865   3.684  28.001  0.00  0.00    +0.049 A 
ATOM     22  N   UNL     1       6.710   2.318  27.967  0.00  0.00    -0.349 N 
ATOM     23  C   UNL     1       6.548   1.468  29.124  0.00  0.00    +0.149 C 
ATOM     24  C   UNL     1       6.746   1.865  26.675  0.00  0.00    +0.096 A 
ENDBRANCH  11  15
ENDBRANCH   6   7
BRANCH   4  25
ATOM     25  N   UNL     1       6.424  -3.722  23.567  0.00  0.00    -0.280 N 
ATOM     26  H   UNL     1       5.701  -3.321  24.144  0.00  0.00    +0.155 HD
ATOM     27  C   UNL     1       6.177  -4.910  22.907  0.00  0.00    +0.241 C 
ATOM     28  O   UNL     1       6.977  -5.588  22.272  0.00  0.00    -0.271 OA
BRANCH  27  29
ATOM     29  C   UNL     1       4.780  -5.385  23.102  0.00  0.00    +0.060 C 
ATOM     30  C   UNL     1       4.541  -6.453  23.876  0.00  0.00    +0.013 C 
ENDBRANCH  27  29
ENDBRANCH   4  25
BRANCH   1  32
ATOM     31  C   UNL     1      10.977   0.570  24.704  0.00  0.00    +0.277 C 
ATOM     32  O   UNL     1      10.898  -0.358  23.628  0.00  0.00    -0.493 OA
ENDBRANCH   1  32
BRANCH   3  33
ATOM     33  N   UNL     1       8.769  -4.305  25.227  0.00  0.00    -0.330 N 
ATOM     34  C   UNL     1       9.402  -5.579  24.914  0.00  0.00    +0.129 C 
BRANCH  33  35
ATOM     35  C   UNL     1       8.373  -4.120  26.641  0.00  0.00    +0.120 C 
BRANCH  35  36
ATOM     36  C   UNL     1       7.164  -5.017  26.995  0.00  0.00    +0.102 C 
BRANCH  36  37
ATOM     37  N   UNL     1       5.830  -4.464  26.674  0.00  0.00    -0.307 NA
ATOM     38  C   UNL     1       5.813  -3.041  27.042  0.00  0.00    +0.104 C 
ATOM     39  C   UNL     1       4.763  -5.162  27.395  0.00  0.00    +0.104 C 
ENDBRANCH  36  37
ENDBRANCH  35  36
ENDBRANCH  33  35
ENDBRANCH   3  33
TORSDOF 9
ENDMDL
MODEL 6
REMARK VINA RESULT:      -6.0      2.610      5.161
REMARK  Name = 
REMARK  14 active torsions:
REMARK  status: ('A' for Active; 'I' for Inactive)
REMARK    1  A    between atoms: C_1  and  O_2
REMARK    2  A    between atoms: O_2  and  C_3
REMARK    3  A    between atoms: C_4  and  N_5
REMARK    4  A    between atoms: C_10  and  C_12
REMARK    5  A    between atoms: N_14  and  C_15
REMARK    6  A    between atoms: C_23  and  N_24
REMARK    7  A    between atoms: C_25  and  C_27
REMARK    8  A    between atoms: C_29  and  N_31
REMARK    9  A    between atoms: N_31  and  C_32
REMARK   10  A    between atoms: N_31  and  C_33
REMARK   11  A    between atoms: C_33  and  C_34
REMARK   12  A    between atoms: C_34  and  N_35
REMARK   13  A    between atoms: N_35  and  C_36
REMARK   14  A    between atoms: N_35  and  C_37
REMARK                            x       y       z     vdW  Elec       q    Type
REMARK                         _______ _______ _______ _____ _____    ______ ____
ROOT
ATOM      1  C   UNL     1       8.215  -1.151  26.376  0.00  0.00    +0.143 A 
ATOM      2  C   UNL     1       7.119  -2.030  26.485  0.00  0.00    +0.072 A 
ATOM      3  C   UNL     1       6.693  -2.895  25.446  0.00  0.00    +0.055 A 
ATOM      4  C   UNL     1       7.528  -2.947  24.306  0.00  0.00    +0.057 A 
ATOM      5  C   UNL     1       8.663  -2.128  24.244  0.00  0.00    +0.052 A 
ATOM      6  C   UNL     1       8.967  -1.154  25.204  0.00  0.00    +0.078 A 
ENDROOT
BRANCH   6   7
ATOM      7  N   UNL     1      10.021  -0.252  24.963  0.00  0.00    -0.281 N 
ATOM      8  H   UNL     1      10.752  -0.638  24.378  0.00  0.00    +0.155 HD
ATOM      9  C   UNL     1       9.891   1.099  24.624  0.00  0.00    +0.220 A 
ATOM     10  N   UNL     1       8.796   1.792  24.985  0.00  0.00    -0.214 NA
ATOM     11  C   UNL     1       8.622   3.020  24.471  0.00  0.00    +0.078 A 
ATOM     12  C   UNL     1       9.582   3.601  23.670  0.00  0.00    +0.048 A 
ATOM     13  C   UNL     1      10.711   2.854  23.431  0.00  0.00    +0.116 A 
ATOM     14  N   UNL     1      10.887   1.605  23.885  0.00  0.00    -0.223 NA
BRANCH  11  15
ATOM     15  C   UNL     1       7.342   3.685  24.767  0.00  0.00    +0.026 A 
ATOM     16  C   UNL     1       6.104   3.723  24.026  0.00  0.00    +0.009 A 
ATOM     17  C   UNL     1       5.648   3.148  22.812  0.00  0.00    +0.010 A 
ATOM     18  C   UNL     1       4.347   3.394  22.358  0.00  0.00    +0.001 A 
ATOM     19  C   UNL     1       3.482   4.203  23.087  0.00  0.00    +0.002 A 
ATOM     20  C   UNL     1       3.897   4.788  24.284  0.00  0.00    +0.026 A 
ATOM     21  C   UNL     1       5.208   4.534  24.731  0.00  0.00    +0.049 A 
ATOM     22  N   UNL     1       5.866   4.974  25.856  0.00  0.00    -0.349 N 
ATOM     23  C   UNL     1       5.310   5.852  26.860  0.00  0.00    +0.149 C 
ATOM     24  C   UNL     1       7.142   4.475  25.889  0.00  0.00    +0.096 A 
ENDBRANCH  11  15
ENDBRANCH   6   7
BRANCH   4  25
ATOM     25  N   UNL     1       7.162  -3.688  23.158  0.00  0.00    -0.280 N 
ATOM     26  H   UNL     1       6.515  -3.211  22.548  0.00  0.00    +0.155 HD
ATOM     27  C   UNL     1       7.624  -4.941  22.801  0.00  0.00    +0.241 C 
ATOM     28  O   UNL     1       8.309  -5.700  23.476  0.00  0.00    -0.271 OA
BRANCH  27  29
ATOM     29  C   UNL     1       7.126  -5.366  21.464  0.00  0.00    +0.060 C 
ATOM     30  C   UNL     1       5.927  -5.955  21.357  0.00  0.00    +0.013 C 
ENDBRANCH  27  29
ENDBRANCH   4  25
BRANCH   1  32
ATOM     31  C   UNL     1       7.321   0.430  27.935  0.00  0.00    +0.277 C 
ATOM     32  O   UNL     1       8.410  -0.369  27.489  0.00  0.00    -0.493 OA
ENDBRANCH   1  32
BRANCH   3  33
ATOM     33  N   UNL     1       5.491  -3.600  25.565  0.00  0.00    -0.330 N 
ATOM     34  C   UNL     1       4.182  -2.992  25.367  0.00  0.00    +0.129 C 
BRANCH  33  35
ATOM     35  C   UNL     1       5.499  -5.076  25.679  0.00  0.00    +0.120 C 
BRANCH  35  36
ATOM     36  C   UNL     1       6.501  -5.537  26.763  0.00  0.00    +0.102 C 
BRANCH  36  37
ATOM     37  N   UNL     1       5.993  -6.530  27.736  0.00  0.00    -0.307 NA
ATOM     38  C   UNL     1       4.608  -6.867  27.378  0.00  0.00    +0.104 C 
ATOM     39  C   UNL     1       6.025  -6.015  29.107  0.00  0.00    +0.104 C 
ENDBRANCH  36  37
ENDBRANCH  35  36
ENDBRANCH  33  35
ENDBRANCH   3  33
TORSDOF 9
ENDMDL
MODEL 7
REMARK VINA RESULT:      -6.0      2.399      4.809
REMARK  Name = 
REMARK  14 active torsions:
REMARK  status: ('A' for Active; 'I' for Inactive)
REMARK    1  A    between atoms: C_1  and  O_2
REMARK    2  A    between atoms: O_2  and  C_3
REMARK    3  A    between atoms: C_4  and  N_5
REMARK    4  A    between atoms: C_10  and  C_12
REMARK    5  A    between atoms: N_14  and  C_15
REMARK    6  A    between atoms: C_23  and  N_24
REMARK    7  A    between atoms: C_25  and  C_27
REMARK    8  A    between atoms: C_29  and  N_31
REMARK    9  A    between atoms: N_31  and  C_32
REMARK   10  A    between atoms: N_31  and  C_33
REMARK   11  A    between atoms: C_33  and  C_34
REMARK   12  A    between atoms: C_34  and  N_35
REMARK   13  A    between atoms: N_35  and  C_36
REMARK   14  A    between atoms: N_35  and  C_37
REMARK                            x       y       z     vdW  Elec       q    Type
REMARK                         _______ _______ _______ _____ _____    ______ ____
ROOT
ATOM      1  C   UNL     1       6.555  -4.529  23.548  0.00  0.00    +0.143 A 
ATOM      2  C   UNL     1       5.277  -4.957  23.957  0.00  0.00    +0.072 A 
ATOM      3  C   UNL     1       4.866  -5.039  25.312  0.00  0.00    +0.055 A 
ATOM      4  C   UNL     1       5.775  -4.522  26.264  0.00  0.00    +0.057 A 
ATOM      5  C   UNL     1       7.012  -4.021  25.836  0.00  0.00    +0.052 A 
ATOM      6  C   UNL     1       7.467  -4.112  24.514  0.00  0.00    +0.078 A 
ENDROOT
BRANCH   6   7
ATOM      7  N   UNL     1       8.796  -3.754  24.216  0.00  0.00    -0.281 N 
ATOM      8  H   UNL     1       9.281  -4.445  23.658  0.00  0.00    +0.155 HD
ATOM      9  C   UNL     1       9.237  -2.496  23.790  0.00  0.00    +0.220 A 
ATOM     10  N   UNL     1       8.544  -1.387  24.105  0.00  0.00    -0.214 NA
ATOM     11  C   UNL     1       8.888  -0.232  23.513  0.00  0.00    +0.078 A 
ATOM     12  C   UNL     1       9.981  -0.157  22.677  0.00  0.00    +0.048 A 
ATOM     13  C   UNL     1      10.686  -1.322  22.487  0.00  0.00    +0.116 A 
ATOM     14  N   UNL     1      10.333  -2.500  23.021  0.00  0.00    -0.223 NA
BRANCH  11  15
ATOM     15  C   UNL     1       8.014   0.926  23.763  0.00  0.00    +0.026 A 
ATOM     16  C   UNL     1       8.324   2.325  23.935  0.00  0.00    +0.009 A 
ATOM     17  C   UNL     1       9.514   3.096  23.904  0.00  0.00    +0.010 A 
ATOM     18  C   UNL     1       9.467   4.478  24.120  0.00  0.00    +0.001 A 
ATOM     19  C   UNL     1       8.257   5.117  24.368  0.00  0.00    +0.002 A 
ATOM     20  C   UNL     1       7.066   4.390  24.409  0.00  0.00    +0.026 A 
ATOM     21  C   UNL     1       7.125   3.001  24.190  0.00  0.00    +0.049 A 
ATOM     22  N   UNL     1       6.123   2.059  24.175  0.00  0.00    -0.349 N 
ATOM     23  C   UNL     1       4.722   2.326  24.408  0.00  0.00    +0.149 C 
ATOM     24  C   UNL     1       6.640   0.816  23.921  0.00  0.00    +0.096 A 
ENDBRANCH  11  15
ENDBRANCH   6   7
BRANCH   4  25
ATOM     25  N   UNL     1       5.534  -4.641  27.653  0.00  0.00    -0.280 N 
ATOM     26  H   UNL     1       4.835  -4.005  28.006  0.00  0.00    +0.155 HD
ATOM     27  C   UNL     1       6.125  -5.540  28.520  0.00  0.00    +0.241 C 
ATOM     28  O   UNL     1       7.066  -6.290  28.286  0.00  0.00    -0.271 OA
BRANCH  27  29
ATOM     29  C   UNL     1       5.542  -5.471  29.888  0.00  0.00    +0.060 C 
ATOM     30  C   UNL     1       4.487  -4.679  30.123  0.00  0.00    +0.013 C 
ENDBRANCH  27  29
ENDBRANCH   4  25
BRANCH   1  32
ATOM     31  C   UNL     1       6.747  -5.861  21.569  0.00  0.00    +0.277 C 
ATOM     32  O   UNL     1       6.748  -4.580  22.189  0.00  0.00    -0.493 OA
ENDBRANCH   1  32
BRANCH   3  33
ATOM     33  N   UNL     1       3.650  -5.645  25.644  0.00  0.00    -0.330 N 
ATOM     34  C   UNL     1       3.516  -7.067  25.935  0.00  0.00    +0.129 C 
BRANCH  33  35
ATOM     35  C   UNL     1       2.460  -4.818  25.939  0.00  0.00    +0.120 C 
BRANCH  35  36
ATOM     36  C   UNL     1       2.649  -3.376  25.413  0.00  0.00    +0.102 C 
BRANCH  36  37
ATOM     37  N   UNL     1       2.539  -2.298  26.420  0.00  0.00    -0.307 NA
ATOM     38  C   UNL     1       3.834  -1.607  26.507  0.00  0.00    +0.104 C 
ATOM     39  C   UNL     1       2.182  -2.821  27.741  0.00  0.00    +0.104 C 
ENDBRANCH  36  37
ENDBRANCH  35  36
ENDBRANCH  33  35
ENDBRANCH   3  33
TORSDOF 9
ENDMDL
MODEL 8
REMARK VINA RESULT:      -5.9      3.165      5.868
REMARK  Name = 
REMARK  14 active torsions:
REMARK  status: ('A' for Active; 'I' for Inactive)
REMARK    1  A    between atoms: C_1  and  O_2
REMARK    2  A    between atoms: O_2  and  C_3
REMARK    3  A    between atoms: C_4  and  N_5
REMARK    4  A    between atoms: C_10  and  C_12
REMARK    5  A    between atoms: N_14  and  C_15
REMARK    6  A    between atoms: C_23  and  N_24
REMARK    7  A    between atoms: C_25  and  C_27
REMARK    8  A    between atoms: C_29  and  N_31
REMARK    9  A    between atoms: N_31  and  C_32
REMARK   10  A    between atoms: N_31  and  C_33
REMARK   11  A    between atoms: C_33  and  C_34
REMARK   12  A    between atoms: C_34  and  N_35
REMARK   13  A    between atoms: N_35  and  C_36
REMARK   14  A    between atoms: N_35  and  C_37
REMARK                            x       y       z     vdW  Elec       q    Type
REMARK                         _______ _______ _______ _____ _____    ______ ____
ROOT
ATOM      1  C   UNL     1       8.434   0.678  22.652  0.00  0.00    +0.143 A 
ATOM      2  C   UNL     1       7.451  -0.329  22.589  0.00  0.00    +0.072 A 
ATOM      3  C   UNL     1       7.410  -1.450  23.455  0.00  0.00    +0.055 A 
ATOM      4  C   UNL     1       8.347  -1.445  24.514  0.00  0.00    +0.057 A 
ATOM      5  C   UNL     1       9.268  -0.394  24.616  0.00  0.00    +0.052 A 
ATOM      6  C   UNL     1       9.405   0.610  23.648  0.00  0.00    +0.078 A 
ENDROOT
BRANCH   6   7
ATOM      7  N   UNL     1      10.480   1.515  23.739  0.00  0.00    -0.281 N 
ATOM      8  H   UNL     1      11.204   1.346  23.051  0.00  0.00    +0.155 HD
ATOM      9  C   UNL     1      10.383   2.901  23.905  0.00  0.00    +0.220 A 
ATOM     10  N   UNL     1       9.303   3.443  24.496  0.00  0.00    -0.214 NA
ATOM     11  C   UNL     1       9.159   4.778  24.455  0.00  0.00    +0.078 A 
ATOM     12  C   UNL     1      10.134   5.584  23.909  0.00  0.00    +0.048 A 
ATOM     13  C   UNL     1      11.246   4.947  23.413  0.00  0.00    +0.116 A 
ATOM     14  N   UNL     1      11.392   3.614  23.390  0.00  0.00    -0.223 NA
BRANCH  11  15
ATOM     15  C   UNL     1       7.893   5.322  24.975  0.00  0.00    +0.026 A 
ATOM     16  C   UNL     1       6.743   5.860  24.288  0.00  0.00    +0.009 A 
ATOM     17  C   UNL     1       6.385   6.040  22.928  0.00  0.00    +0.010 A 
ATOM     18  C   UNL     1       5.154   6.615  22.591  0.00  0.00    +0.001 A 
ATOM     19  C   UNL     1       4.264   7.017  23.580  0.00  0.00    +0.002 A 
ATOM     20  C   UNL     1       4.583   6.858  24.929  0.00  0.00    +0.026 A 
ATOM     21  C   UNL     1       5.824   6.279  25.257  0.00  0.00    +0.049 A 
ATOM     22  N   UNL     1       6.384   6.010  26.484  0.00  0.00    -0.349 N 
ATOM     23  C   UNL     1       5.775   6.298  27.762  0.00  0.00    +0.149 C 
ATOM     24  C   UNL     1       7.620   5.438  26.330  0.00  0.00    +0.096 A 
ENDBRANCH  11  15
ENDBRANCH   6   7
BRANCH   4  25
ATOM     25  N   UNL     1       8.482  -2.553  25.384  0.00  0.00    -0.280 N 
ATOM     26  H   UNL     1       7.926  -2.489  26.222  0.00  0.00    +0.155 HD
ATOM     27  C   UNL     1       9.253  -3.680  25.172  0.00  0.00    +0.241 C 
ATOM     28  O   UNL     1      10.071  -3.864  24.278  0.00  0.00    -0.271 OA
BRANCH  27  29
ATOM     29  C   UNL     1       9.060  -4.704  26.235  0.00  0.00    +0.060 C 
ATOM     30  C   UNL     1       7.861  -4.841  26.818  0.00  0.00    +0.013 C 
ENDBRANCH  27  29
ENDBRANCH   4  25
BRANCH   1  32
ATOM     31  C   UNL     1       7.229   2.561  21.797  0.00  0.00    +0.277 C 
ATOM     32  O   UNL     1       8.306   1.639  21.679  0.00  0.00    -0.493 OA
ENDBRANCH   1  32
BRANCH   3  33
ATOM     33  N   UNL     1       6.514  -2.496  23.213  0.00  0.00    -0.330 N 
ATOM     34  C   UNL     1       6.764  -3.559  22.248  0.00  0.00    +0.129 C 
BRANCH  33  35
ATOM     35  C   UNL     1       5.347  -2.700  24.099  0.00  0.00    +0.120 C 
BRANCH  35  36
ATOM     36  C   UNL     1       4.663  -4.055  23.804  0.00  0.00    +0.102 C 
BRANCH  36  37
ATOM     37  N   UNL     1       4.817  -5.100  24.840  0.00  0.00    -0.307 NA
ATOM     38  C   UNL     1       4.621  -6.414  24.211  0.00  0.00    +0.104 C 
ATOM     39  C   UNL     1       3.847  -4.936  25.926  0.00  0.00    +0.104 C 
ENDBRANCH  36  37
ENDBRANCH  35  36
ENDBRANCH  33  35
ENDBRANCH   3  33
TORSDOF 9
ENDMDL
MODEL 9
REMARK VINA RESULT:      -5.9      2.392      5.886
REMARK  Name = 
REMARK  14 active torsions:
REMARK  status: ('A' for Active; 'I' for Inactive)
REMARK    1  A    between atoms: C_1  and  O_2
REMARK    2  A    between atoms: O_2  and  C_3
REMARK    3  A    between atoms: C_4  and  N_5
REMARK    4  A    between atoms: C_10  and  C_12
REMARK    5  A    between atoms: N_14  and  C_15
REMARK    6  A    between atoms: C_23  and  N_24
REMARK    7  A    between atoms: C_25  and  C_27
REMARK    8  A    between atoms: C_29  and  N_31
REMARK    9  A    between atoms: N_31  and  C_32
REMARK   10  A    between atoms: N_31  and  C_33
REMARK   11  A    between atoms: C_33  and  C_34
REMARK   12  A    between atoms: C_34  and  N_35
REMARK   13  A    between atoms: N_35  and  C_36
REMARK   14  A    between atoms: N_35  and  C_37
REMARK                            x       y       z     vdW  Elec       q    Type
REMARK                         _______ _______ _______ _____ _____    ______ ____
ROOT
ATOM      1  C   UNL     1       9.371  -0.992  23.607  0.00  0.00    +0.143 A 
ATOM      2  C   UNL     1       9.484  -2.268  24.192  0.00  0.00    +0.072 A 
ATOM      3  C   UNL     1       8.393  -3.156  24.369  0.00  0.00    +0.055 A 
ATOM      4  C   UNL     1       7.170  -2.754  23.786  0.00  0.00    +0.057 A 
ATOM      5  C   UNL     1       7.090  -1.517  23.133  0.00  0.00    +0.052 A 
ATOM      6  C   UNL     1       8.132  -0.579  23.123  0.00  0.00    +0.078 A 
ENDROOT
BRANCH   6   7
ATOM      7  N   UNL     1       7.896   0.709  22.606  0.00  0.00    -0.281 N 
ATOM      8  H   UNL     1       7.888   0.738  21.594  0.00  0.00    +0.155 HD
ATOM      9  C   UNL     1       6.927   1.614  23.053  0.00  0.00    +0.220 A 
ATOM     10  N   UNL     1       6.474   1.560  24.318  0.00  0.00    -0.214 NA
ATOM     11  C   UNL     1       5.409   2.310  24.645  0.00  0.00    +0.078 A 
ATOM     12  C   UNL     1       4.848   3.185  23.740  0.00  0.00    +0.048 A 
ATOM     13  C   UNL     1       5.436   3.241  22.500  0.00  0.00    +0.116 A 
ATOM     14  N   UNL     1       6.464   2.465  22.128  0.00  0.00    -0.223 NA
BRANCH  11  15
ATOM     15  C   UNL     1       4.848   2.110  25.992  0.00  0.00    +0.026 A 
ATOM     16  C   UNL     1       5.490   1.793  27.245  0.00  0.00    +0.009 A 
ATOM     17  C   UNL     1       6.832   1.591  27.658  0.00  0.00    +0.010 A 
ATOM     18  C   UNL     1       7.122   1.285  28.992  0.00  0.00    +0.001 A 
ATOM     19  C   UNL     1       6.105   1.175  29.933  0.00  0.00    +0.002 A 
ATOM     20  C   UNL     1       4.773   1.365  29.563  0.00  0.00    +0.026 A 
ATOM     21  C   UNL     1       4.491   1.672  28.219  0.00  0.00    +0.049 A 
ATOM     22  N   UNL     1       3.290   1.904  27.591  0.00  0.00    -0.349 N 
ATOM     23  C   UNL     1       1.993   1.865  28.228  0.00  0.00    +0.149 C 
ATOM     24  C   UNL     1       3.488   2.167  26.261  0.00  0.00    +0.096 A 
ENDBRANCH  11  15
ENDBRANCH   6   7
BRANCH   4  25
ATOM     25  N   UNL     1       5.981  -3.496  23.981  0.00  0.00    -0.280 N 
ATOM     26  H   UNL     1       5.760  -3.673  24.949  0.00  0.00    +0.155 HD
ATOM     27  C   UNL     1       5.119  -3.947  23.000  0.00  0.00    +0.241 C 
ATOM     28  O   UNL     1       5.295  -3.924  21.787  0.00  0.00    -0.271 OA
BRANCH  27  29
ATOM     29  C   UNL     1       3.900  -4.584  23.569  0.00  0.00    +0.060 C 
ATOM     30  C   UNL     1       3.243  -3.987  24.573  0.00  0.00    +0.013 C 
ENDBRANCH  27  29
ENDBRANCH   4  25
BRANCH   1  32
ATOM     31  C   UNL     1      10.830   0.564  24.695  0.00  0.00    +0.277 C 
ATOM     32  O   UNL     1      10.549  -0.285  23.587  0.00  0.00    -0.493 OA
ENDBRANCH   1  32
BRANCH   3  33
ATOM     33  N   UNL     1       8.551  -4.325  25.121  0.00  0.00    -0.330 N 
ATOM     34  C   UNL     1       8.981  -5.595  24.549  0.00  0.00    +0.129 C 
BRANCH  33  35
ATOM     35  C   UNL     1       8.505  -4.273  26.599  0.00  0.00    +0.120 C 
BRANCH  35  36
ATOM     36  C   UNL     1       7.442  -5.253  27.150  0.00  0.00    +0.102 C 
BRANCH  36  37
ATOM     37  N   UNL     1       6.057  -5.042  26.675  0.00  0.00    -0.307 NA
ATOM     38  C   UNL     1       5.399  -4.079  27.570  0.00  0.00    +0.104 C 
ATOM     39  C   UNL     1       5.290  -6.289  26.661  0.00  0.00    +0.104 C 
ENDBRANCH  36  37
ENDBRANCH  35  36
ENDBRANCH  33  35
ENDBRANCH   3  33
TORSDOF 9
ENDMDL
