MODEL 1
REMARK VINA RESULT:      -6.6      0.000      0.000
REMARK  Name = 
REMARK  12 active torsions:
REMARK  status: ('A' for Active; 'I' for Inactive)
REMARK    1  A    between atoms: N_1  and  C_2
REMARK    2  A    between atoms: C_2  and  C_3
REMARK    3  A    between atoms: C_3  and  C_4
REMARK    4  A    between atoms: C_4  and  N_6
REMARK    5  A    between atoms: C_4  and  C_22
REMARK    6  A    between atoms: C_7  and  C_9
REMARK    7  A    between atoms: C_9  and  N_11
REMARK    8  A    between atoms: C_9  and  C_12
REMARK    9  A    between atoms: C_12  and  C_13
REMARK   10  A    between atoms: C_13  and  C_14
REMARK   11  A    between atoms: C_14  and  N_15
REMARK   12  A    between atoms: N_18  and  N_19
REMARK                            x       y       z     vdW  Elec       q    Type
REMARK                         _______ _______ _______ _____ _____    ______ ____
ROOT
ATOM      1  C   UNL     1       8.957  -4.173  24.431  0.00  0.00    +0.138 C 
ENDROOT
BRANCH   1   4
ATOM      2  N   UNL     1       8.730  -1.756  24.086  0.00  0.00    -0.303 N 
ATOM      3  H   UNL     1       7.816  -1.937  24.496  0.00  0.00    +0.149 HD
ATOM      4  C   UNL     1       9.544  -2.846  23.919  0.00  0.00    +0.230 C 
ATOM      5  O   UNL     1      10.653  -2.793  23.394  0.00  0.00    -0.274 OA
BRANCH   2   6
ATOM      6  C   UNL     1       9.052  -0.383  23.691  0.00  0.00    +0.160 C 
BRANCH   6   7
ATOM      7  C   UNL     1      10.039   0.248  24.699  0.00  0.00    +0.231 C 
ATOM      8  O   UNL     1      11.061   0.839  24.360  0.00  0.00    -0.274 OA
ATOM      9  N   UNL     1       9.717   0.137  26.022  0.00  0.00    -0.328 N 
ATOM     10  H   UNL     1      10.264   0.677  26.678  0.00  0.00    +0.145 HD
ATOM     11  H   UNL     1       8.751  -0.072  26.278  0.00  0.00    +0.145 HD
ENDBRANCH   6   7
BRANCH   6  12
ATOM     12  C   UNL     1       9.538  -0.246  22.241  0.00  0.00    +0.046 C 
BRANCH  12  13
ATOM     13  C   UNL     1       9.009   1.003  21.535  0.00  0.00    +0.080 C 
BRANCH  13  14
ATOM     14  N   UNL     1       9.936   2.125  21.633  0.00  0.00    -0.330 NA
ATOM     15  H   UNL     1      10.199   2.270  22.610  0.00  0.00    +0.118 HD
ATOM     16  H   UNL     1      10.802   1.890  21.147  0.00  0.00    +0.118 HD
ENDBRANCH  13  14
ENDBRANCH  12  13
ENDBRANCH   6  12
ENDBRANCH   2   6
ENDBRANCH   1   4
BRANCH   1  17
ATOM     17  N   UNL     1      10.052  -5.048  24.912  0.00  0.00    -0.320 NA
ATOM     18  H   UNL     1      10.246  -4.824  25.889  0.00  0.00    +0.119 HD
ATOM     19  H   UNL     1       9.715  -6.015  24.916  0.00  0.00    +0.119 HD
ENDBRANCH   1  17
BRANCH   1  20
ATOM     20  C   UNL     1       7.980  -3.941  25.584  0.00  0.00    +0.031 C 
BRANCH  20  21
ATOM     21  C   UNL     1       7.386  -5.234  26.154  0.00  0.00    +0.039 C 
BRANCH  21  22
ATOM     22  C   UNL     1       5.928  -5.376  25.720  0.00  0.00    +0.196 C 
BRANCH  22  23
ATOM     23  N   UNL     1       5.827  -5.373  24.278  0.00  0.00    -0.272 N 
ATOM     24  H   UNL     1       6.574  -4.862  23.801  0.00  0.00    +0.258 HD
ATOM     25  C   UNL     1       5.201  -6.312  23.519  0.00  0.00    +0.440 C 
ATOM     26  N   UNL     1       5.179  -6.179  22.171  0.00  0.00    +0.025 N 
ATOM     27  H   UNL     1       4.571  -6.839  21.716  0.00  0.00    +0.348 HD
ATOM     28  N   UNL     1       4.518  -7.296  24.013  0.00  0.00    -0.125 NA
ATOM     29  H   UNL     1       4.579  -7.282  25.033  0.00  0.00    +0.306 HD
BRANCH  26  30
ATOM     30  N   UNL     1       6.135  -5.593  21.446  0.00  0.00    +0.232 N 
ATOM     31  O   UNL     1       7.264  -6.032  21.669  0.00  0.00    +0.084 OA
ATOM     32  O   UNL     1       5.837  -4.690  20.656  0.00  0.00    -0.542 OA
ENDBRANCH  26  30
ENDBRANCH  22  23
ENDBRANCH  21  22
ENDBRANCH  20  21
ENDBRANCH   1  20
TORSDOF 12
ENDMDL
MODEL 2
REMARK VINA RESULT:      -6.5      2.484      6.573
REMARK  Name = 
REMARK  12 active torsions:
REMARK  status: ('A' for Active; 'I' for Inactive)
REMARK    1  A    between atoms: N_1  and  C_2
REMARK    2  A    between atoms: C_2  and  C_3
REMARK    3  A    between atoms: C_3  and  C_4
REMARK    4  A    between atoms: C_4  and  N_6
REMARK    5  A    between atoms: C_4  and  C_22
REMARK    6  A    between atoms: C_7  and  C_9
REMARK    7  A    between atoms: C_9  and  N_11
REMARK    8  A    between atoms: C_9  and  C_12
REMARK    9  A    between atoms: C_12  and  C_13
REMARK   10  A    between atoms: C_13  and  C_14
REMARK   11  A    between atoms: C_14  and  N_15
REMARK   12  A    between atoms: N_18  and  N_19
REMARK                            x       y       z     vdW  Elec       q    Type
REMARK                         _______ _______ _______ _____ _____    ______ ____
ROOT
ATOM      1  C   UNL     1       6.413   0.060  24.157  0.00  0.00    +0.138 C 
ENDROOT
BRANCH   1   4
ATOM      2  N   UNL     1       6.551  -2.381  23.960  0.00  0.00    -0.303 N 
ATOM      3  H   UNL     1       7.345  -2.136  23.371  0.00  0.00    +0.149 HD
ATOM      4  C   UNL     1       5.849  -1.331  24.495  0.00  0.00    +0.230 C 
ATOM      5  O   UNL     1       4.841  -1.468  25.184  0.00  0.00    -0.274 OA
BRANCH   2   6
ATOM      6  C   UNL     1       6.228  -3.798  24.133  0.00  0.00    +0.160 C 
BRANCH   6   7
ATOM      7  C   UNL     1       6.089  -4.490  22.757  0.00  0.00    +0.231 C 
ATOM      8  O   UNL     1       5.009  -4.668  22.200  0.00  0.00    -0.274 OA
ATOM      9  N   UNL     1       7.247  -4.894  22.156  0.00  0.00    -0.328 N 
ATOM     10  H   UNL     1       7.186  -5.201  21.195  0.00  0.00    +0.145 HD
ATOM     11  H   UNL     1       8.130  -4.484  22.462  0.00  0.00    +0.145 HD
ENDBRANCH   6   7
BRANCH   6  12
ATOM     12  C   UNL     1       7.188  -4.551  25.064  0.00  0.00    +0.046 C 
BRANCH  12  13
ATOM     13  C   UNL     1       8.467  -3.773  25.381  0.00  0.00    +0.080 C 
BRANCH  13  14
ATOM     14  N   UNL     1       9.463  -3.896  24.323  0.00  0.00    -0.330 NA
ATOM     15  H   UNL     1       9.491  -3.035  23.774  0.00  0.00    +0.118 HD
ATOM     16  H   UNL     1      10.390  -3.986  24.741  0.00  0.00    +0.118 HD
ENDBRANCH  13  14
ENDBRANCH  12  13
ENDBRANCH   6  12
ENDBRANCH   2   6
ENDBRANCH   1   4
BRANCH   1  17
ATOM     17  N   UNL     1       5.373   1.088  24.394  0.00  0.00    -0.320 NA
ATOM     18  H   UNL     1       4.482   0.621  24.565  0.00  0.00    +0.119 HD
ATOM     19  H   UNL     1       5.595   1.577  25.266  0.00  0.00    +0.119 HD
ENDBRANCH   1  17
BRANCH   1  20
ATOM     20  C   UNL     1       7.630   0.392  25.021  0.00  0.00    +0.031 C 
BRANCH  20  21
ATOM     21  C   UNL     1       8.008   1.877  25.001  0.00  0.00    +0.039 C 
BRANCH  21  22
ATOM     22  C   UNL     1       9.337   2.070  24.272  0.00  0.00    +0.196 C 
BRANCH  22  23
ATOM     23  N   UNL     1       9.627   0.924  23.439  0.00  0.00    -0.272 N 
ATOM     24  H   UNL     1       9.550   0.022  23.916  0.00  0.00    +0.258 HD
ATOM     25  C   UNL     1       9.505   0.868  22.086  0.00  0.00    +0.440 C 
ATOM     26  N   UNL     1       9.819  -0.275  21.431  0.00  0.00    +0.025 N 
ATOM     27  H   UNL     1       9.837  -0.168  20.431  0.00  0.00    +0.348 HD
ATOM     28  N   UNL     1       9.199   1.890  21.350  0.00  0.00    -0.125 NA
ATOM     29  H   UNL     1       9.012   2.701  21.943  0.00  0.00    +0.306 HD
BRANCH  26  30
ATOM     30  N   UNL     1       9.690  -1.505  21.936  0.00  0.00    +0.232 N 
ATOM     31  O   UNL     1      10.728  -1.948  22.429  0.00  0.00    +0.084 OA
ATOM     32  O   UNL     1       8.601  -2.084  21.865  0.00  0.00    -0.542 OA
ENDBRANCH  26  30
ENDBRANCH  22  23
ENDBRANCH  21  22
ENDBRANCH  20  21
ENDBRANCH   1  20
TORSDOF 12
ENDMDL
MODEL 3
REMARK VINA RESULT:      -6.5      2.550      3.544
REMARK  Name = 
REMARK  12 active torsions:
REMARK  status: ('A' for Active; 'I' for Inactive)
REMARK    1  A    between atoms: N_1  and  C_2
REMARK    2  A    between atoms: C_2  and  C_3
REMARK    3  A    between atoms: C_3  and  C_4
REMARK    4  A    between atoms: C_4  and  N_6
REMARK    5  A    between atoms: C_4  and  C_22
REMARK    6  A    between atoms: C_7  and  C_9
REMARK    7  A    between atoms: C_9  and  N_11
REMARK    8  A    between atoms: C_9  and  C_12
REMARK    9  A    between atoms: C_12  and  C_13
REMARK   10  A    between atoms: C_13  and  C_14
REMARK   11  A    between atoms: C_14  and  N_15
REMARK   12  A    between atoms: N_18  and  N_19
REMARK                            x       y       z     vdW  Elec       q    Type
REMARK                         _______ _______ _______ _____ _____    ______ ____
ROOT
ATOM      1  C   UNL     1       5.734  -2.534  23.761  0.00  0.00    +0.138 C 
ENDROOT
BRANCH   1   4
ATOM      2  N   UNL     1       7.678  -1.041  23.682  0.00  0.00    -0.303 N 
ATOM      3  H   UNL     1       8.130  -1.895  23.363  0.00  0.00    +0.149 HD
ATOM      4  C   UNL     1       6.346  -1.142  23.995  0.00  0.00    +0.230 C 
ATOM      5  O   UNL     1       5.679  -0.211  24.438  0.00  0.00    -0.274 OA
BRANCH   2   6
ATOM      6  C   UNL     1       8.493   0.169  23.808  0.00  0.00    +0.160 C 
BRANCH   6   7
ATOM      7  C   UNL     1       9.521   0.007  24.951  0.00  0.00    +0.231 C 
ATOM      8  O   UNL     1      10.736   0.038  24.773  0.00  0.00    -0.274 OA
ATOM      9  N   UNL     1       9.016  -0.162  26.209  0.00  0.00    -0.328 N 
ATOM     10  H   UNL     1       9.667  -0.110  26.980  0.00  0.00    +0.145 HD
ATOM     11  H   UNL     1       8.050   0.114  26.393  0.00  0.00    +0.145 HD
ENDBRANCH   6   7
BRANCH   6  12
ATOM     12  C   UNL     1       9.151   0.620  22.497  0.00  0.00    +0.046 C 
BRANCH  12  13
ATOM     13  C   UNL     1       9.309  -0.505  21.473  0.00  0.00    +0.080 C 
BRANCH  13  14
ATOM     14  N   UNL     1      10.286  -1.502  21.897  0.00  0.00    -0.330 NA
ATOM     15  H   UNL     1      10.241  -2.313  21.278  0.00  0.00    +0.118 HD
ATOM     16  H   UNL     1      11.226  -1.122  21.784  0.00  0.00    +0.118 HD
ENDBRANCH  13  14
ENDBRANCH  12  13
ENDBRANCH   6  12
ENDBRANCH   2   6
ENDBRANCH   1   4
BRANCH   1  17
ATOM     17  N   UNL     1       6.783  -3.463  23.278  0.00  0.00    -0.320 NA
ATOM     18  H   UNL     1       7.585  -3.407  23.907  0.00  0.00    +0.119 HD
ATOM     19  H   UNL     1       6.434  -4.421  23.369  0.00  0.00    +0.119 HD
ENDBRANCH   1  17
BRANCH   1  20
ATOM     20  C   UNL     1       5.137  -3.103  25.049  0.00  0.00    +0.031 C 
BRANCH  20  21
ATOM     21  C   UNL     1       4.562  -4.515  24.887  0.00  0.00    +0.039 C 
BRANCH  21  22
ATOM     22  C   UNL     1       5.314  -5.494  25.787  0.00  0.00    +0.196 C 
BRANCH  22  23
ATOM     23  N   UNL     1       6.742  -5.304  25.658  0.00  0.00    -0.272 N 
ATOM     24  H   UNL     1       7.020  -4.663  24.910  0.00  0.00    +0.258 HD
ATOM     25  C   UNL     1       7.661  -5.462  26.647  0.00  0.00    +0.440 C 
ATOM     26  N   UNL     1       8.974  -5.256  26.382  0.00  0.00    +0.025 N 
ATOM     27  H   UNL     1       9.581  -5.540  27.133  0.00  0.00    +0.348 HD
ATOM     28  N   UNL     1       7.374  -5.907  27.830  0.00  0.00    -0.125 NA
ATOM     29  H   UNL     1       6.367  -6.055  27.909  0.00  0.00    +0.306 HD
BRANCH  26  30
ATOM     30  N   UNL     1       9.444  -4.393  25.477  0.00  0.00    +0.232 N 
ATOM     31  O   UNL     1      10.363  -4.847  24.793  0.00  0.00    +0.084 OA
ATOM     32  O   UNL     1       8.959  -3.259  25.404  0.00  0.00    -0.542 OA
ENDBRANCH  26  30
ENDBRANCH  22  23
ENDBRANCH  21  22
ENDBRANCH  20  21
ENDBRANCH   1  20
TORSDOF 12
ENDMDL
MODEL 4
REMARK VINA RESULT:      -6.5      2.093      3.019
REMARK  Name = 
REMARK  12 active torsions:
REMARK  status: ('A' for Active; 'I' for Inactive)
REMARK    1  A    between atoms: N_1  and  C_2
REMARK    2  A    between atoms: C_2  and  C_3
REMARK    3  A    between atoms: C_3  and  C_4
REMARK    4  A    between atoms: C_4  and  N_6
REMARK    5  A    between atoms: C_4  and  C_22
REMARK    6  A    between atoms: C_7  and  C_9
REMARK    7  A    between atoms: C_9  and  N_11
REMARK    8  A    between atoms: C_9  and  C_12
REMARK    9  A    between atoms: C_12  and  C_13
REMARK   10  A    between atoms: C_13  and  C_14
REMARK   11  A    between atoms: C_14  and  N_15
REMARK   12  A    between atoms: N_18  and  N_19
REMARK                            x       y       z     vdW  Elec       q    Type
REMARK                         _______ _______ _______ _____ _____    ______ ____
ROOT
ATOM      1  C   UNL     1       6.726  -2.091  26.454  0.00  0.00    +0.138 C 
ENDROOT
BRANCH   1   4
ATOM      2  N   UNL     1       8.117  -1.253  24.615  0.00  0.00    -0.303 N 
ATOM      3  H   UNL     1       7.316  -1.565  24.070  0.00  0.00    +0.149 HD
ATOM      4  C   UNL     1       8.044  -1.459  25.969  0.00  0.00    +0.230 C 
ATOM      5  O   UNL     1       8.950  -1.181  26.749  0.00  0.00    -0.274 OA
BRANCH   2   6
ATOM      6  C   UNL     1       9.253  -0.666  23.903  0.00  0.00    +0.160 C 
BRANCH   6   7
ATOM      7  C   UNL     1       9.822  -1.672  22.876  0.00  0.00    +0.231 C 
ATOM      8  O   UNL     1      10.293  -2.762  23.192  0.00  0.00    -0.274 OA
ATOM      9  N   UNL     1       9.767  -1.303  21.562  0.00  0.00    -0.328 N 
ATOM     10  H   UNL     1       9.986  -2.009  20.874  0.00  0.00    +0.145 HD
ATOM     11  H   UNL     1       9.119  -0.564  21.285  0.00  0.00    +0.145 HD
ENDBRANCH   6   7
BRANCH   6  12
ATOM     12  C   UNL     1       8.959   0.701  23.271  0.00  0.00    +0.046 C 
BRANCH  12  13
ATOM     13  C   UNL     1       7.546   1.214  23.556  0.00  0.00    +0.080 C 
BRANCH  13  14
ATOM     14  N   UNL     1       6.535   0.504  22.781  0.00  0.00    -0.330 NA
ATOM     15  H   UNL     1       6.137  -0.250  23.344  0.00  0.00    +0.118 HD
ATOM     16  H   UNL     1       5.760   1.135  22.579  0.00  0.00    +0.118 HD
ENDBRANCH  13  14
ENDBRANCH  12  13
ENDBRANCH   6  12
ENDBRANCH   2   6
ENDBRANCH   1   4
BRANCH   1  17
ATOM     17  N   UNL     1       5.733  -2.072  25.354  0.00  0.00    -0.320 NA
ATOM     18  H   UNL     1       4.895  -1.587  25.676  0.00  0.00    +0.119 HD
ATOM     19  H   UNL     1       6.104  -1.496  24.593  0.00  0.00    +0.119 HD
ENDBRANCH   1  17
BRANCH   1  20
ATOM     20  C   UNL     1       6.933  -3.540  26.896  0.00  0.00    +0.031 C 
BRANCH  20  21
ATOM     21  C   UNL     1       5.746  -4.454  26.573  0.00  0.00    +0.039 C 
BRANCH  21  22
ATOM     22  C   UNL     1       6.176  -5.543  25.591  0.00  0.00    +0.196 C 
BRANCH  22  23
ATOM     23  N   UNL     1       6.289  -5.003  24.254  0.00  0.00    -0.272 N 
ATOM     24  H   UNL     1       5.497  -4.425  23.962  0.00  0.00    +0.258 HD
ATOM     25  C   UNL     1       7.448  -4.769  23.583  0.00  0.00    +0.440 C 
ATOM     26  N   UNL     1       7.405  -4.263  22.327  0.00  0.00    +0.025 N 
ATOM     27  H   UNL     1       8.300  -4.265  21.866  0.00  0.00    +0.348 HD
ATOM     28  N   UNL     1       8.618  -5.100  24.032  0.00  0.00    -0.125 NA
ATOM     29  H   UNL     1       8.529  -5.497  24.969  0.00  0.00    +0.306 HD
BRANCH  26  30
ATOM     30  N   UNL     1       6.455  -3.444  21.866  0.00  0.00    +0.232 N 
ATOM     31  O   UNL     1       6.397  -2.369  22.465  0.00  0.00    +0.084 OA
ATOM     32  O   UNL     1       5.734  -3.810  20.932  0.00  0.00    -0.542 OA
ENDBRANCH  26  30
ENDBRANCH  22  23
ENDBRANCH  21  22
ENDBRANCH  20  21
ENDBRANCH   1  20
TORSDOF 12
ENDMDL
MODEL 5
REMARK VINA RESULT:      -6.5      3.177      5.097
REMARK  Name = 
REMARK  12 active torsions:
REMARK  status: ('A' for Active; 'I' for Inactive)
REMARK    1  A    between atoms: N_1  and  C_2
REMARK    2  A    between atoms: C_2  and  C_3
REMARK    3  A    between atoms: C_3  and  C_4
REMARK    4  A    between atoms: C_4  and  N_6
REMARK    5  A    between atoms: C_4  and  C_22
REMARK    6  A    between atoms: C_7  and  C_9
REMARK    7  A    between atoms: C_9  and  N_11
REMARK    8  A    between atoms: C_9  and  C_12
REMARK    9  A    between atoms: C_12  and  C_13
REMARK   10  A    between atoms: C_13  and  C_14
REMARK   11  A    between atoms: C_14  and  N_15
REMARK   12  A    between atoms: N_18  and  N_19
REMARK                            x       y       z     vdW  Elec       q    Type
REMARK                         _______ _______ _______ _____ _____    ______ ____
ROOT
ATOM      1  C   UNL     1       6.192  -4.980  22.087  0.00  0.00    +0.138 C 
ENDROOT
BRANCH   1   4
ATOM      2  N   UNL     1       7.812  -3.771  23.477  0.00  0.00    -0.303 N 
ATOM      3  H   UNL     1       7.180  -2.999  23.272  0.00  0.00    +0.149 HD
ATOM      4  C   UNL     1       7.494  -4.978  22.909  0.00  0.00    +0.230 C 
ATOM      5  O   UNL     1       8.184  -5.987  23.025  0.00  0.00    -0.274 OA
BRANCH   2   6
ATOM      6  C   UNL     1       8.989  -3.503  24.305  0.00  0.00    +0.160 C 
BRANCH   6   7
ATOM      7  C   UNL     1       9.783  -2.304  23.739  0.00  0.00    +0.231 C 
ATOM      8  O   UNL     1      10.446  -2.363  22.706  0.00  0.00    -0.274 OA
ATOM      9  N   UNL     1       9.707  -1.133  24.439  0.00  0.00    -0.328 N 
ATOM     10  H   UNL     1      10.087  -0.306  24.001  0.00  0.00    +0.145 HD
ATOM     11  H   UNL     1       8.938  -1.002  25.098  0.00  0.00    +0.145 HD
ENDBRANCH   6   7
BRANCH   6  12
ATOM     12  C   UNL     1       8.679  -3.337  25.799  0.00  0.00    +0.046 C 
BRANCH  12  13
ATOM     13  C   UNL     1       9.004  -4.578  26.632  0.00  0.00    +0.080 C 
BRANCH  13  14
ATOM     14  N   UNL     1       8.179  -5.723  26.260  0.00  0.00    -0.330 NA
ATOM     15  H   UNL     1       8.590  -6.195  25.453  0.00  0.00    +0.118 HD
ATOM     16  H   UNL     1       8.192  -6.408  27.016  0.00  0.00    +0.118 HD
ENDBRANCH  13  14
ENDBRANCH  12  13
ENDBRANCH   6  12
ENDBRANCH   2   6
ENDBRANCH   1   4
BRANCH   1  17
ATOM     17  N   UNL     1       6.075  -6.258  21.347  0.00  0.00    -0.320 NA
ATOM     18  H   UNL     1       6.681  -6.951  21.789  0.00  0.00    +0.119 HD
ATOM     19  H   UNL     1       5.123  -6.615  21.465  0.00  0.00    +0.119 HD
ENDBRANCH   1  17
BRANCH   1  20
ATOM     20  C   UNL     1       4.966  -4.828  22.988  0.00  0.00    +0.031 C 
BRANCH  20  21
ATOM     21  C   UNL     1       4.874  -5.896  24.084  0.00  0.00    +0.039 C 
BRANCH  21  22
ATOM     22  C   UNL     1       4.488  -5.251  25.414  0.00  0.00    +0.196 C 
BRANCH  22  23
ATOM     23  N   UNL     1       5.125  -5.941  26.514  0.00  0.00    -0.272 N 
ATOM     24  H   UNL     1       5.968  -5.483  26.871  0.00  0.00    +0.258 HD
ATOM     25  C   UNL     1       4.513  -6.779  27.392  0.00  0.00    +0.440 C 
ATOM     26  N   UNL     1       5.237  -7.364  28.377  0.00  0.00    +0.025 N 
ATOM     27  H   UNL     1       4.728  -8.074  28.876  0.00  0.00    +0.348 HD
ATOM     28  N   UNL     1       3.275  -7.148  27.289  0.00  0.00    -0.125 NA
ATOM     29  H   UNL     1       2.836  -6.671  26.500  0.00  0.00    +0.306 HD
BRANCH  26  30
ATOM     30  N   UNL     1       6.311  -6.824  28.958  0.00  0.00    +0.232 N 
ATOM     31  O   UNL     1       7.067  -7.653  29.466  0.00  0.00    +0.084 OA
ATOM     32  O   UNL     1       6.454  -5.596  28.957  0.00  0.00    -0.542 OA
ENDBRANCH  26  30
ENDBRANCH  22  23
ENDBRANCH  21  22
ENDBRANCH  20  21
ENDBRANCH   1  20
TORSDOF 12
ENDMDL
MODEL 6
REMARK VINA RESULT:      -6.4      2.989      4.545
REMARK  Name = 
REMARK  12 active torsions:
REMARK  status: ('A' for Active; 'I' for Inactive)
REMARK    1  A    between atoms: N_1  and  C_2
REMARK    2  A    between atoms: C_2  and  C_3
REMARK    3  A    between atoms: C_3  and  C_4
REMARK    4  A    between atoms: C_4  and  N_6
REMARK    5  A    between atoms: C_4  and  C_22
REMARK    6  A    between atoms: C_7  and  C_9
REMARK    7  A    between atoms: C_9  and  N_11
REMARK    8  A    between atoms: C_9  and  C_12
REMARK    9  A    between atoms: C_12  and  C_13
REMARK   10  A    between atoms: C_13  and  C_14
REMARK   11  A    between atoms: C_14  and  N_15
REMARK   12  A    between atoms: N_18  and  N_19
REMARK                            x       y       z     vdW  Elec       q    Type
REMARK                         _______ _______ _______ _____ _____    ______ ____
ROOT
ATOM      1  C   UNL     1       9.438  -0.686  25.681  0.00  0.00    +0.138 C 
ENDROOT
BRANCH   1   4
ATOM      2  N   UNL     1       9.109   1.474  24.566  0.00  0.00    -0.303 N 
ATOM      3  H   UNL     1       8.145   1.298  24.842  0.00  0.00    +0.149 HD
ATOM      4  C   UNL     1      10.020   0.503  24.894  0.00  0.00    +0.230 C 
ATOM      5  O   UNL     1      11.207   0.552  24.585  0.00  0.00    -0.274 OA
BRANCH   2   6
ATOM      6  C   UNL     1       9.403   2.703  23.827  0.00  0.00    +0.160 C 
BRANCH   6   7
ATOM      7  C   UNL     1       8.907   2.584  22.367  0.00  0.00    +0.231 C 
ATOM      8  O   UNL     1       7.844   3.060  21.977  0.00  0.00    -0.274 OA
ATOM      9  N   UNL     1       9.725   1.924  21.495  0.00  0.00    -0.328 N 
ATOM     10  H   UNL     1       9.491   1.976  20.513  0.00  0.00    +0.145 HD
ATOM     11  H   UNL     1      10.710   1.805  21.736  0.00  0.00    +0.145 HD
ENDBRANCH   6   7
BRANCH   6  12
ATOM     12  C   UNL     1       8.896   3.981  24.508  0.00  0.00    +0.046 C 
BRANCH  12  13
ATOM     13  C   UNL     1       9.678   5.236  24.114  0.00  0.00    +0.080 C 
BRANCH  13  14
ATOM     14  N   UNL     1       9.052   5.950  23.008  0.00  0.00    -0.330 NA
ATOM     15  H   UNL     1       9.757   6.492  22.505  0.00  0.00    +0.118 HD
ATOM     16  H   UNL     1       8.690   5.276  22.332  0.00  0.00    +0.118 HD
ENDBRANCH  13  14
ENDBRANCH  12  13
ENDBRANCH   6  12
ENDBRANCH   2   6
ENDBRANCH   1   4
BRANCH   1  17
ATOM     17  N   UNL     1       8.697  -0.183  26.862  0.00  0.00    -0.320 NA
ATOM     18  H   UNL     1       9.017   0.763  27.072  0.00  0.00    +0.119 HD
ATOM     19  H   UNL     1       7.710  -0.086  26.606  0.00  0.00    +0.119 HD
ENDBRANCH   1  17
BRANCH   1  20
ATOM     20  C   UNL     1       8.479  -1.507  24.819  0.00  0.00    +0.031 C 
BRANCH  20  21
ATOM     21  C   UNL     1       9.189  -2.463  23.853  0.00  0.00    +0.039 C 
BRANCH  21  22
ATOM     22  C   UNL     1       8.372  -3.743  23.689  0.00  0.00    +0.196 C 
BRANCH  22  23
ATOM     23  N   UNL     1       8.033  -4.296  24.981  0.00  0.00    -0.272 N 
ATOM     24  H   UNL     1       7.033  -4.278  25.201  0.00  0.00    +0.258 HD
ATOM     25  C   UNL     1       8.754  -5.221  25.668  0.00  0.00    +0.440 C 
ATOM     26  N   UNL     1       8.318  -5.648  26.878  0.00  0.00    +0.025 N 
ATOM     27  H   UNL     1       8.991  -6.215  27.366  0.00  0.00    +0.348 HD
ATOM     28  N   UNL     1       9.911  -5.659  25.284  0.00  0.00    -0.125 NA
ATOM     29  H   UNL     1      10.153  -5.252  24.379  0.00  0.00    +0.306 HD
BRANCH  26  30
ATOM     30  N   UNL     1       7.035  -5.729  27.242  0.00  0.00    +0.232 N 
ATOM     31  O   UNL     1       6.814  -5.287  28.371  0.00  0.00    +0.084 OA
ATOM     32  O   UNL     1       6.210  -6.227  26.469  0.00  0.00    -0.542 OA
ENDBRANCH  26  30
ENDBRANCH  22  23
ENDBRANCH  21  22
ENDBRANCH  20  21
ENDBRANCH   1  20
TORSDOF 12
ENDMDL
MODEL 7
REMARK VINA RESULT:      -6.4      2.162      5.152
REMARK  Name = 
REMARK  12 active torsions:
REMARK  status: ('A' for Active; 'I' for Inactive)
REMARK    1  A    between atoms: N_1  and  C_2
REMARK    2  A    between atoms: C_2  and  C_3
REMARK    3  A    between atoms: C_3  and  C_4
REMARK    4  A    between atoms: C_4  and  N_6
REMARK    5  A    between atoms: C_4  and  C_22
REMARK    6  A    between atoms: C_7  and  C_9
REMARK    7  A    between atoms: C_9  and  N_11
REMARK    8  A    between atoms: C_9  and  C_12
REMARK    9  A    between atoms: C_12  and  C_13
REMARK   10  A    between atoms: C_13  and  C_14
REMARK   11  A    between atoms: C_14  and  N_15
REMARK   12  A    between atoms: N_18  and  N_19
REMARK                            x       y       z     vdW  Elec       q    Type
REMARK                         _______ _______ _______ _____ _____    ______ ____
ROOT
ATOM      1  C   UNL     1       9.360  -0.681  24.814  0.00  0.00    +0.138 C 
ENDROOT
BRANCH   1   4
ATOM      2  N   UNL     1       8.242  -2.748  25.519  0.00  0.00    -0.303 N 
ATOM      3  H   UNL     1       8.429  -2.999  24.551  0.00  0.00    +0.149 HD
ATOM      4  C   UNL     1       8.641  -1.494  25.906  0.00  0.00    +0.230 C 
ATOM      5  O   UNL     1       8.441  -1.032  27.026  0.00  0.00    -0.274 OA
BRANCH   2   6
ATOM      6  C   UNL     1       7.546  -3.719  26.365  0.00  0.00    +0.160 C 
BRANCH   6   7
ATOM      7  C   UNL     1       6.179  -4.089  25.744  0.00  0.00    +0.231 C 
ATOM      8  O   UNL     1       5.279  -3.273  25.562  0.00  0.00    -0.274 OA
ATOM      9  N   UNL     1       6.006  -5.394  25.379  0.00  0.00    -0.328 N 
ATOM     10  H   UNL     1       5.186  -5.617  24.832  0.00  0.00    +0.145 HD
ATOM     11  H   UNL     1       6.830  -5.983  25.248  0.00  0.00    +0.145 HD
ENDBRANCH   6   7
BRANCH   6  12
ATOM     12  C   UNL     1       8.379  -4.960  26.711  0.00  0.00    +0.046 C 
BRANCH  12  13
ATOM     13  C   UNL     1       9.707  -5.036  25.955  0.00  0.00    +0.080 C 
BRANCH  13  14
ATOM     14  N   UNL     1       9.544  -5.582  24.612  0.00  0.00    -0.330 NA
ATOM     15  H   UNL     1       9.016  -4.926  24.035  0.00  0.00    +0.118 HD
ATOM     16  H   UNL     1      10.460  -5.664  24.168  0.00  0.00    +0.118 HD
ENDBRANCH  13  14
ENDBRANCH  12  13
ENDBRANCH   6  12
ENDBRANCH   2   6
ENDBRANCH   1   4
BRANCH   1  17
ATOM     17  N   UNL     1      10.227   0.341  25.447  0.00  0.00    -0.320 NA
ATOM     18  H   UNL     1       9.728   0.752  26.236  0.00  0.00    +0.119 HD
ATOM     19  H   UNL     1      11.038  -0.132  25.854  0.00  0.00    +0.119 HD
ENDBRANCH   1  17
BRANCH   1  20
ATOM     20  C   UNL     1      10.230  -1.580  23.935  0.00  0.00    +0.031 C 
BRANCH  20  21
ATOM     21  C   UNL     1      10.096  -1.285  22.436  0.00  0.00    +0.039 C 
BRANCH  21  22
ATOM     22  C   UNL     1       8.673  -0.830  22.117  0.00  0.00    +0.196 C 
BRANCH  22  23
ATOM     23  N   UNL     1       7.805  -1.972  21.937  0.00  0.00    -0.272 N 
ATOM     24  H   UNL     1       8.279  -2.818  21.610  0.00  0.00    +0.258 HD
ATOM     25  C   UNL     1       6.627  -2.189  22.580  0.00  0.00    +0.440 C 
ATOM     26  N   UNL     1       5.910  -3.306  22.308  0.00  0.00    +0.025 N 
ATOM     27  H   UNL     1       4.993  -3.300  22.721  0.00  0.00    +0.348 HD
ATOM     28  N   UNL     1       6.076  -1.330  23.378  0.00  0.00    -0.125 NA
ATOM     29  H   UNL     1       6.686  -0.518  23.487  0.00  0.00    +0.306 HD
BRANCH  26  30
ATOM     30  N   UNL     1       6.434  -4.479  21.941  0.00  0.00    +0.232 N 
ATOM     31  O   UNL     1       5.895  -4.972  20.949  0.00  0.00    +0.084 OA
ATOM     32  O   UNL     1       7.363  -4.965  22.596  0.00  0.00    -0.542 OA
ENDBRANCH  26  30
ENDBRANCH  22  23
ENDBRANCH  21  22
ENDBRANCH  20  21
ENDBRANCH   1  20
TORSDOF 12
ENDMDL
MODEL 8
REMARK VINA RESULT:      -6.4      2.349      6.632
REMARK  Name = 
REMARK  12 active torsions:
REMARK  status: ('A' for Active; 'I' for Inactive)
REMARK    1  A    between atoms: N_1  and  C_2
REMARK    2  A    between atoms: C_2  and  C_3
REMARK    3  A    between atoms: C_3  and  C_4
REMARK    4  A    between atoms: C_4  and  N_6
REMARK    5  A    between atoms: C_4  and  C_22
REMARK    6  A    between atoms: C_7  and  C_9
REMARK    7  A    between atoms: C_9  and  N_11
REMARK    8  A    between atoms: C_9  and  C_12
REMARK    9  A    between atoms: C_12  and  C_13
REMARK   10  A    between atoms: C_13  and  C_14
REMARK   11  A    between atoms: C_14  and  N_15
REMARK   12  A    between atoms: N_18  and  N_19
REMARK                            x       y       z     vdW  Elec       q    Type
REMARK                         _______ _______ _______ _____ _____    ______ ____
ROOT
ATOM      1  C   UNL     1       7.608  -2.374  22.256  0.00  0.00    +0.138 C 
ENDROOT
BRANCH   1   4
ATOM      2  N   UNL     1       7.464  -3.897  24.173  0.00  0.00    -0.303 N 
ATOM      3  H   UNL     1       7.611  -3.028  24.681  0.00  0.00    +0.149 HD
ATOM      4  C   UNL     1       7.448  -3.804  22.805  0.00  0.00    +0.230 C 
ATOM      5  O   UNL     1       7.329  -4.771  22.058  0.00  0.00    -0.274 OA
BRANCH   2   6
ATOM      6  C   UNL     1       7.326  -5.135  24.943  0.00  0.00    +0.160 C 
BRANCH   6   7
ATOM      7  C   UNL     1       8.510  -5.289  25.926  0.00  0.00    +0.231 C 
ATOM      8  O   UNL     1       8.456  -4.944  27.104  0.00  0.00    -0.274 OA
ATOM      9  N   UNL     1       9.649  -5.855  25.428  0.00  0.00    -0.328 N 
ATOM     10  H   UNL     1      10.369  -6.106  26.091  0.00  0.00    +0.145 HD
ATOM     11  H   UNL     1       9.592  -6.404  24.569  0.00  0.00    +0.145 HD
ENDBRANCH   6   7
BRANCH   6  12
ATOM     12  C   UNL     1       5.969  -5.291  25.643  0.00  0.00    +0.046 C 
BRANCH  12  13
ATOM     13  C   UNL     1       5.237  -3.965  25.858  0.00  0.00    +0.080 C 
BRANCH  13  14
ATOM     14  N   UNL     1       5.907  -3.120  26.841  0.00  0.00    -0.330 NA
ATOM     15  H   UNL     1       5.235  -2.466  27.247  0.00  0.00    +0.118 HD
ATOM     16  H   UNL     1       6.233  -3.698  27.616  0.00  0.00    +0.118 HD
ENDBRANCH  13  14
ENDBRANCH  12  13
ENDBRANCH   6  12
ENDBRANCH   2   6
ENDBRANCH   1   4
BRANCH   1  17
ATOM     17  N   UNL     1       6.779  -1.441  23.054  0.00  0.00    -0.320 NA
ATOM     18  H   UNL     1       7.067  -0.484  22.844  0.00  0.00    +0.119 HD
ATOM     19  H   UNL     1       5.811  -1.510  22.729  0.00  0.00    +0.119 HD
ENDBRANCH   1  17
BRANCH   1  20
ATOM     20  C   UNL     1       9.064  -1.912  22.325  0.00  0.00    +0.031 C 
BRANCH  20  21
ATOM     21  C   UNL     1       9.347  -0.655  21.494  0.00  0.00    +0.039 C 
BRANCH  21  22
ATOM     22  C   UNL     1       9.764   0.495  22.409  0.00  0.00    +0.196 C 
BRANCH  22  23
ATOM     23  N   UNL     1       9.281   0.272  23.754  0.00  0.00    -0.272 N 
ATOM     24  H   UNL     1       8.472  -0.352  23.816  0.00  0.00    +0.258 HD
ATOM     25  C   UNL     1      10.015   0.374  24.894  0.00  0.00    +0.440 C 
ATOM     26  N   UNL     1       9.428   0.141  26.092  0.00  0.00    +0.025 N 
ATOM     27  H   UNL     1      10.012   0.385  26.875  0.00  0.00    +0.348 HD
ATOM     28  N   UNL     1      11.242   0.788  24.923  0.00  0.00    -0.125 NA
ATOM     29  H   UNL     1      11.572   0.960  23.971  0.00  0.00    +0.306 HD
BRANCH  26  30
ATOM     30  N   UNL     1       8.414  -0.704  26.295  0.00  0.00    +0.232 N 
ATOM     31  O   UNL     1       7.526  -0.247  27.015  0.00  0.00    +0.084 OA
ATOM     32  O   UNL     1       8.444  -1.829  25.784  0.00  0.00    -0.542 OA
ENDBRANCH  26  30
ENDBRANCH  22  23
ENDBRANCH  21  22
ENDBRANCH  20  21
ENDBRANCH   1  20
TORSDOF 12
ENDMDL
MODEL 9
REMARK VINA RESULT:      -6.4      3.029      4.111
REMARK  Name = 
REMARK  12 active torsions:
REMARK  status: ('A' for Active; 'I' for Inactive)
REMARK    1  A    between atoms: N_1  and  C_2
REMARK    2  A    between atoms: C_2  and  C_3
REMARK    3  A    between atoms: C_3  and  C_4
REMARK    4  A    between atoms: C_4  and  N_6
REMARK    5  A    between atoms: C_4  and  C_22
REMARK    6  A    between atoms: C_7  and  C_9
REMARK    7  A    between atoms: C_9  and  N_11
REMARK    8  A    between atoms: C_9  and  C_12
REMARK    9  A    between atoms: C_12  and  C_13
REMARK   10  A    between atoms: C_13  and  C_14
REMARK   11  A    between atoms: C_14  and  N_15
REMARK   12  A    between atoms: N_18  and  N_19
REMARK                            x       y       z     vdW  Elec       q    Type
REMARK                         _______ _______ _______ _____ _____    ______ ____
ROOT
ATOM      1  C   UNL     1       9.047  -2.403  22.634  0.00  0.00    +0.138 C 
ENDROOT
BRANCH   1   4
ATOM      2  N   UNL     1       8.277  -0.126  23.121  0.00  0.00    -0.303 N 
ATOM      3  H   UNL     1       7.693  -0.629  23.786  0.00  0.00    +0.149 HD
ATOM      4  C   UNL     1       9.103  -0.893  22.339  0.00  0.00    +0.230 C 
ATOM      5  O   UNL     1       9.828  -0.434  21.461  0.00  0.00    -0.274 OA
BRANCH   2   6
ATOM      6  C   UNL     1       8.145   1.331  23.046  0.00  0.00    +0.160 C 
BRANCH   6   7
ATOM      7  C   UNL     1       6.669   1.747  23.242  0.00  0.00    +0.231 C 
ATOM      8  O   UNL     1       5.950   1.280  24.122  0.00  0.00    -0.274 OA
ATOM      9  N   UNL     1       6.181   2.693  22.386  0.00  0.00    -0.328 N 
ATOM     10  H   UNL     1       5.276   3.087  22.599  0.00  0.00    +0.145 HD
ATOM     11  H   UNL     1       6.841   3.283  21.876  0.00  0.00    +0.145 HD
ENDBRANCH   6   7
BRANCH   6  12
ATOM     12  C   UNL     1       9.091   2.095  23.983  0.00  0.00    +0.046 C 
BRANCH  12  13
ATOM     13  C   UNL     1      10.219   2.823  23.250  0.00  0.00    +0.080 C 
BRANCH  13  14
ATOM     14  N   UNL     1      10.302   2.438  21.846  0.00  0.00    -0.330 NA
ATOM     15  H   UNL     1      10.178   1.428  21.758  0.00  0.00    +0.118 HD
ATOM     16  H   UNL     1       9.523   2.857  21.335  0.00  0.00    +0.118 HD
ENDBRANCH  13  14
ENDBRANCH  12  13
ENDBRANCH   6  12
ENDBRANCH   2   6
ENDBRANCH   1   4
BRANCH   1  17
ATOM     17  N   UNL     1      10.014  -2.735  23.707  0.00  0.00    -0.320 NA
ATOM     18  H   UNL     1      10.439  -3.639  23.498  0.00  0.00    +0.119 HD
ATOM     19  H   UNL     1      10.782  -2.059  23.670  0.00  0.00    +0.119 HD
ENDBRANCH   1  17
BRANCH   1  20
ATOM     20  C   UNL     1       7.651  -2.830  23.089  0.00  0.00    +0.031 C 
BRANCH  20  21
ATOM     21  C   UNL     1       7.158  -4.121  22.426  0.00  0.00    +0.039 C 
BRANCH  21  22
ATOM     22  C   UNL     1       7.704  -5.336  23.174  0.00  0.00    +0.196 C 
BRANCH  22  23
ATOM     23  N   UNL     1       7.681  -5.103  24.601  0.00  0.00    -0.272 N 
ATOM     24  H   UNL     1       6.746  -5.101  25.016  0.00  0.00    +0.258 HD
ATOM     25  C   UNL     1       8.692  -5.370  25.470  0.00  0.00    +0.440 C 
ATOM     26  N   UNL     1       8.535  -5.094  26.787  0.00  0.00    +0.025 N 
ATOM     27  H   UNL     1       9.385  -5.189  27.318  0.00  0.00    +0.348 HD
ATOM     28  N   UNL     1       9.864  -5.784  25.103  0.00  0.00    -0.125 NA
ATOM     29  H   UNL     1       9.879  -5.930  24.092  0.00  0.00    +0.306 HD
BRANCH  26  30
ATOM     30  N   UNL     1       7.371  -5.131  27.441  0.00  0.00    +0.232 N 
ATOM     31  O   UNL     1       7.215  -6.150  28.115  0.00  0.00    +0.084 OA
ATOM     32  O   UNL     1       6.571  -4.197  27.319  0.00  0.00    -0.542 OA
ENDBRANCH  26  30
ENDBRANCH  22  23
ENDBRANCH  21  22
ENDBRANCH  20  21
ENDBRANCH   1  20
TORSDOF 12
ENDMDL
