MODEL 1
REMARK VINA RESULT:      -5.4      0.000      0.000
REMARK  Name = 
REMARK  1 active torsions:
REMARK  status: ('A' for Active; 'I' for Inactive)
REMARK    1  A    between atoms: C_5  and  C_7
REMARK                            x       y       z     vdW  Elec       q    Type
REMARK                         _______ _______ _______ _____ _____    ______ ____
ROOT
ATOM      1  N   UNL     1       9.063  -3.647  25.353  0.00  0.00    -0.313 N 
ATOM      2  H   UNL     1       9.898  -3.370  25.852  0.00  0.00    +0.147 HD
ATOM      3  H   UNL     1       8.212  -3.605  25.898  0.00  0.00    +0.147 HD
ATOM      4  C   UNL     1       8.943  -3.088  24.135  0.00  0.00    +0.276 C 
ATOM      5  O   UNL     1      10.125  -2.688  23.612  0.00  0.00    -0.456 OA
ATOM      6  C   UNL     1       9.766  -1.900  22.479  0.00  0.00    +0.228 C 
ATOM      7  C   UNL     1       8.324  -2.315  22.211  0.00  0.00    +0.196 C 
ATOM      8  N   UNL     1       7.848  -2.881  23.486  0.00  0.00    -0.233 NA
ENDROOT
BRANCH   6   9
ATOM      9  C   UNL     1      10.003  -0.438  22.810  0.00  0.00    -0.005 A 
ATOM     10  C   UNL     1       9.756   0.540  21.832  0.00  0.00    +0.007 A 
ATOM     11  C   UNL     1       9.972   1.893  22.103  0.00  0.00    +0.000 A 
ATOM     12  C   UNL     1      10.450   2.287  23.351  0.00  0.00    +0.000 A 
ATOM     13  C   UNL     1      10.722   1.329  24.323  0.00  0.00    +0.000 A 
ATOM     14  C   UNL     1      10.506  -0.023  24.053  0.00  0.00    +0.007 A 
ENDBRANCH   6   9
TORSDOF 1
ENDMDL
MODEL 2
REMARK VINA RESULT:      -5.3      0.045      1.392
REMARK  Name = 
REMARK  1 active torsions:
REMARK  status: ('A' for Active; 'I' for Inactive)
REMARK    1  A    between atoms: C_5  and  C_7
REMARK                            x       y       z     vdW  Elec       q    Type
REMARK                         _______ _______ _______ _____ _____    ______ ____
ROOT
ATOM      1  N   UNL     1       9.068  -3.586  25.361  0.00  0.00    -0.313 N 
ATOM      2  H   UNL     1       9.907  -3.308  25.851  0.00  0.00    +0.147 HD
ATOM      3  H   UNL     1       8.219  -3.529  25.908  0.00  0.00    +0.147 HD
ATOM      4  C   UNL     1       8.946  -3.046  24.134  0.00  0.00    +0.276 C 
ATOM      5  O   UNL     1      10.129  -2.664  23.599  0.00  0.00    -0.456 OA
ATOM      6  C   UNL     1       9.770  -1.892  22.455  0.00  0.00    +0.228 C 
ATOM      7  C   UNL     1       8.325  -2.300  22.201  0.00  0.00    +0.196 C 
ATOM      8  N   UNL     1       7.850  -2.841  23.487  0.00  0.00    -0.233 NA
ENDROOT
BRANCH   6   9
ATOM      9  C   UNL     1      10.020  -0.427  22.761  0.00  0.00    -0.005 A 
ATOM     10  C   UNL     1      10.484  -0.056  24.033  0.00  0.00    +0.007 A 
ATOM     11  C   UNL     1      10.715   1.286  24.348  0.00  0.00    +0.000 A 
ATOM     12  C   UNL     1      10.475   2.276  23.398  0.00  0.00    +0.000 A 
ATOM     13  C   UNL     1       9.993   1.928  22.139  0.00  0.00    +0.000 A 
ATOM     14  C   UNL     1       9.761   0.588  21.825  0.00  0.00    +0.007 A 
ENDBRANCH   6   9
TORSDOF 1
ENDMDL
MODEL 3
REMARK VINA RESULT:      -5.2      1.820      2.705
REMARK  Name = 
REMARK  1 active torsions:
REMARK  status: ('A' for Active; 'I' for Inactive)
REMARK    1  A    between atoms: C_5  and  C_7
REMARK                            x       y       z     vdW  Elec       q    Type
REMARK                         _______ _______ _______ _____ _____    ______ ____
ROOT
ATOM      1  N   UNL     1      10.212  -5.699  25.655  0.00  0.00    -0.313 N 
ATOM      2  H   UNL     1      10.730  -5.700  24.787  0.00  0.00    +0.147 HD
ATOM      3  H   UNL     1      10.780  -5.792  26.487  0.00  0.00    +0.147 HD
ATOM      4  C   UNL     1       9.295  -4.718  25.743  0.00  0.00    +0.276 C 
ATOM      5  O   UNL     1       8.892  -4.253  24.538  0.00  0.00    -0.456 OA
ATOM      6  C   UNL     1       8.152  -3.072  24.841  0.00  0.00    +0.228 C 
ATOM      7  C   UNL     1       7.831  -3.234  26.321  0.00  0.00    +0.196 C 
ATOM      8  N   UNL     1       8.831  -4.193  26.826  0.00  0.00    -0.233 NA
ENDROOT
BRANCH   6   9
ATOM      9  C   UNL     1       8.985  -1.865  24.454  0.00  0.00    -0.005 A 
ATOM     10  C   UNL     1       9.595  -1.823  23.189  0.00  0.00    +0.007 A 
ATOM     11  C   UNL     1      10.375  -0.729  22.806  0.00  0.00    +0.000 A 
ATOM     12  C   UNL     1      10.566   0.333  23.687  0.00  0.00    +0.000 A 
ATOM     13  C   UNL     1       9.989   0.298  24.953  0.00  0.00    +0.000 A 
ATOM     14  C   UNL     1       9.210  -0.796  25.336  0.00  0.00    +0.007 A 
ENDBRANCH   6   9
TORSDOF 1
ENDMDL
MODEL 4
REMARK VINA RESULT:      -5.0      2.399      4.765
REMARK  Name = 
REMARK  1 active torsions:
REMARK  status: ('A' for Active; 'I' for Inactive)
REMARK    1  A    between atoms: C_5  and  C_7
REMARK                            x       y       z     vdW  Elec       q    Type
REMARK                         _______ _______ _______ _____ _____    ______ ____
ROOT
ATOM      1  N   UNL     1       8.718   1.545  21.063  0.00  0.00    -0.313 N 
ATOM      2  H   UNL     1       8.292   0.974  20.345  0.00  0.00    +0.147 HD
ATOM      3  H   UNL     1       8.098   2.221  21.489  0.00  0.00    +0.147 HD
ATOM      4  C   UNL     1       9.442   0.849  21.958  0.00  0.00    +0.276 C 
ATOM      5  O   UNL     1       9.873  -0.343  21.485  0.00  0.00    -0.456 OA
ATOM      6  C   UNL     1      10.368  -1.025  22.635  0.00  0.00    +0.228 C 
ATOM      7  C   UNL     1      10.571   0.098  23.644  0.00  0.00    +0.196 C 
ATOM      8  N   UNL     1       9.706   1.194  23.172  0.00  0.00    -0.233 NA
ENDROOT
BRANCH   6   9
ATOM      9  C   UNL     1       9.383  -2.113  23.018  0.00  0.00    -0.005 A 
ATOM     10  C   UNL     1       9.637  -2.910  24.145  0.00  0.00    +0.007 A 
ATOM     11  C   UNL     1       8.753  -3.926  24.519  0.00  0.00    +0.000 A 
ATOM     12  C   UNL     1       7.608  -4.166  23.762  0.00  0.00    +0.000 A 
ATOM     13  C   UNL     1       7.352  -3.400  22.629  0.00  0.00    +0.000 A 
ATOM     14  C   UNL     1       8.235  -2.386  22.255  0.00  0.00    +0.007 A 
ENDBRANCH   6   9
TORSDOF 1
ENDMDL
MODEL 5
REMARK VINA RESULT:      -4.9      1.054      1.054
REMARK  Name = 
REMARK  1 active torsions:
REMARK  status: ('A' for Active; 'I' for Inactive)
REMARK    1  A    between atoms: C_5  and  C_7
REMARK                            x       y       z     vdW  Elec       q    Type
REMARK                         _______ _______ _______ _____ _____    ______ ____
ROOT
ATOM      1  N   UNL     1       7.056  -2.335  25.696  0.00  0.00    -0.313 N 
ATOM      2  H   UNL     1       7.512  -1.835  26.447  0.00  0.00    +0.147 HD
ATOM      3  H   UNL     1       6.074  -2.120  25.578  0.00  0.00    +0.147 HD
ATOM      4  C   UNL     1       7.743  -2.328  24.539  0.00  0.00    +0.276 C 
ATOM      5  O   UNL     1       9.069  -2.115  24.706  0.00  0.00    -0.456 OA
ATOM      6  C   UNL     1       9.561  -1.877  23.390  0.00  0.00    +0.228 C 
ATOM      7  C   UNL     1       8.460  -2.441  22.501  0.00  0.00    +0.196 C 
ATOM      8  N   UNL     1       7.257  -2.462  23.352  0.00  0.00    -0.233 NA
ENDROOT
BRANCH   6   9
ATOM      9  C   UNL     1       9.863  -0.397  23.244  0.00  0.00    -0.005 A 
ATOM     10  C   UNL     1       9.593   0.245  22.025  0.00  0.00    +0.007 A 
ATOM     11  C   UNL     1       9.868   1.605  21.856  0.00  0.00    +0.000 A 
ATOM     12  C   UNL     1      10.428   2.338  22.900  0.00  0.00    +0.000 A 
ATOM     13  C   UNL     1      10.723   1.711  24.107  0.00  0.00    +0.000 A 
ATOM     14  C   UNL     1      10.450   0.353  24.276  0.00  0.00    +0.007 A 
ENDBRANCH   6   9
TORSDOF 1
ENDMDL
MODEL 6
REMARK VINA RESULT:      -4.7      2.453      3.598
REMARK  Name = 
REMARK  1 active torsions:
REMARK  status: ('A' for Active; 'I' for Inactive)
REMARK    1  A    between atoms: C_5  and  C_7
REMARK                            x       y       z     vdW  Elec       q    Type
REMARK                         _______ _______ _______ _____ _____    ______ ____
ROOT
ATOM      1  N   UNL     1       7.912  -5.649  27.147  0.00  0.00    -0.313 N 
ATOM      2  H   UNL     1       8.827  -5.288  27.383  0.00  0.00    +0.147 HD
ATOM      3  H   UNL     1       7.182  -5.415  27.806  0.00  0.00    +0.147 HD
ATOM      4  C   UNL     1       7.558  -5.442  25.866  0.00  0.00    +0.276 C 
ATOM      5  O   UNL     1       8.615  -5.262  25.040  0.00  0.00    -0.456 OA
ATOM      6  C   UNL     1       8.041  -4.799  23.820  0.00  0.00    +0.228 C 
ATOM      7  C   UNL     1       6.577  -5.198  23.953  0.00  0.00    +0.196 C 
ATOM      8  N   UNL     1       6.357  -5.366  25.400  0.00  0.00    -0.233 NA
ENDROOT
BRANCH   6   9
ATOM      9  C   UNL     1       8.332  -3.317  23.678  0.00  0.00    -0.005 A 
ATOM     10  C   UNL     1       9.599  -2.825  24.033  0.00  0.00    +0.007 A 
ATOM     11  C   UNL     1       9.895  -1.464  23.921  0.00  0.00    +0.000 A 
ATOM     12  C   UNL     1       8.925  -0.575  23.464  0.00  0.00    +0.000 A 
ATOM     13  C   UNL     1       7.657  -1.042  23.129  0.00  0.00    +0.000 A 
ATOM     14  C   UNL     1       7.361  -2.401  23.241  0.00  0.00    +0.007 A 
ENDBRANCH   6   9
TORSDOF 1
ENDMDL
MODEL 7
REMARK VINA RESULT:      -4.7      3.411      4.966
REMARK  Name = 
REMARK  1 active torsions:
REMARK  status: ('A' for Active; 'I' for Inactive)
REMARK    1  A    between atoms: C_5  and  C_7
REMARK                            x       y       z     vdW  Elec       q    Type
REMARK                         _______ _______ _______ _____ _____    ______ ____
ROOT
ATOM      1  N   UNL     1       6.574   3.348  21.897  0.00  0.00    -0.313 N 
ATOM      2  H   UNL     1       6.445   2.729  21.108  0.00  0.00    +0.147 HD
ATOM      3  H   UNL     1       5.783   3.404  22.526  0.00  0.00    +0.147 HD
ATOM      4  C   UNL     1       7.748   3.183  22.534  0.00  0.00    +0.276 C 
ATOM      5  O   UNL     1       8.703   2.621  21.758  0.00  0.00    -0.456 OA
ATOM      6  C   UNL     1       9.751   2.288  22.665  0.00  0.00    +0.228 C 
ATOM      7  C   UNL     1       9.436   3.143  23.887  0.00  0.00    +0.196 C 
ATOM      8  N   UNL     1       8.003   3.467  23.767  0.00  0.00    -0.233 NA
ENDROOT
BRANCH   6   9
ATOM      9  C   UNL     1       9.758   0.785  22.871  0.00  0.00    -0.005 A 
ATOM     10  C   UNL     1       9.838   0.267  24.173  0.00  0.00    +0.007 A 
ATOM     11  C   UNL     1       9.854  -1.113  24.395  0.00  0.00    +0.000 A 
ATOM     12  C   UNL     1       9.803  -1.993  23.316  0.00  0.00    +0.000 A 
ATOM     13  C   UNL     1       9.747  -1.496  22.018  0.00  0.00    +0.000 A 
ATOM     14  C   UNL     1       9.731  -0.118  21.795  0.00  0.00    +0.007 A 
ENDBRANCH   6   9
TORSDOF 1
ENDMDL
MODEL 8
REMARK VINA RESULT:      -4.7      3.417      4.790
REMARK  Name = 
REMARK  1 active torsions:
REMARK  status: ('A' for Active; 'I' for Inactive)
REMARK    1  A    between atoms: C_5  and  C_7
REMARK                            x       y       z     vdW  Elec       q    Type
REMARK                         _______ _______ _______ _____ _____    ______ ____
ROOT
ATOM      1  N   UNL     1       6.621   3.327  21.901  0.00  0.00    -0.313 N 
ATOM      2  H   UNL     1       6.384   2.647  21.191  0.00  0.00    +0.147 HD
ATOM      3  H   UNL     1       5.903   3.480  22.597  0.00  0.00    +0.147 HD
ATOM      4  C   UNL     1       7.846   3.160  22.430  0.00  0.00    +0.276 C 
ATOM      5  O   UNL     1       8.691   2.481  21.620  0.00  0.00    -0.456 OA
ATOM      6  C   UNL     1       9.813   2.178  22.445  0.00  0.00    +0.228 C 
ATOM      7  C   UNL     1       9.663   3.155  23.605  0.00  0.00    +0.196 C 
ATOM      8  N   UNL     1       8.240   3.540  23.598  0.00  0.00    -0.233 NA
ENDROOT
BRANCH   6   9
ATOM      9  C   UNL     1       9.777   0.701  22.791  0.00  0.00    -0.005 A 
ATOM     10  C   UNL     1       9.638  -0.245  21.764  0.00  0.00    +0.007 A 
ATOM     11  C   UNL     1       9.594  -1.612  22.050  0.00  0.00    +0.000 A 
ATOM     12  C   UNL     1       9.676  -2.050  23.370  0.00  0.00    +0.000 A 
ATOM     13  C   UNL     1       9.791  -1.124  24.403  0.00  0.00    +0.000 A 
ATOM     14  C   UNL     1       9.835   0.241  24.117  0.00  0.00    +0.007 A 
ENDBRANCH   6   9
TORSDOF 1
ENDMDL
MODEL 9
REMARK VINA RESULT:      -4.7      2.805      5.577
REMARK  Name = 
REMARK  1 active torsions:
REMARK  status: ('A' for Active; 'I' for Inactive)
REMARK    1  A    between atoms: C_5  and  C_7
REMARK                            x       y       z     vdW  Elec       q    Type
REMARK                         _______ _______ _______ _____ _____    ______ ____
ROOT
ATOM      1  N   UNL     1      10.505  -1.848  22.835  0.00  0.00    -0.313 N 
ATOM      2  H   UNL     1      10.794  -2.575  22.194  0.00  0.00    +0.147 HD
ATOM      3  H   UNL     1      10.290  -0.961  22.400  0.00  0.00    +0.147 HD
ATOM      4  C   UNL     1       9.575  -2.243  23.724  0.00  0.00    +0.276 C 
ATOM      5  O   UNL     1       9.565  -3.580  23.930  0.00  0.00    -0.456 OA
ATOM      6  C   UNL     1       8.369  -3.819  24.669  0.00  0.00    +0.228 C 
ATOM      7  C   UNL     1       8.016  -2.439  25.211  0.00  0.00    +0.196 C 
ATOM      8  N   UNL     1       8.717  -1.491  24.328  0.00  0.00    -0.233 NA
ENDROOT
BRANCH   6   9
ATOM      9  C   UNL     1       7.352  -4.470  23.751  0.00  0.00    -0.005 A 
ATOM     10  C   UNL     1       7.749  -5.532  22.923  0.00  0.00    +0.007 A 
ATOM     11  C   UNL     1       6.838  -6.147  22.061  0.00  0.00    +0.000 A 
ATOM     12  C   UNL     1       5.520  -5.699  22.005  0.00  0.00    +0.000 A 
ATOM     13  C   UNL     1       5.115  -4.632  22.802  0.00  0.00    +0.000 A 
ATOM     14  C   UNL     1       6.025  -4.017  23.663  0.00  0.00    +0.007 A 
ENDBRANCH   6   9
TORSDOF 1
ENDMDL
