MODEL 1
REMARK VINA RESULT:      -6.1      0.000      0.000
REMARK  Name = 
REMARK  3 active torsions:
REMARK  status: ('A' for Active; 'I' for Inactive)
REMARK    1  A    between atoms: N_1  and  S_2
REMARK    2  A    between atoms: S_2  and  C_5
REMARK    3  A    between atoms: C_11  and  O_12
REMARK                            x       y       z     vdW  Elec       q    Type
REMARK                         _______ _______ _______ _____ _____    ______ ____
ROOT
ATOM      1  C   UNL     1       8.929  -3.102  24.021  0.00  0.00    +0.233 A 
ATOM      2  S   UNL     1       8.428  -2.599  22.472  0.00  0.00    -0.047 S 
ATOM      3  C   UNL     1       9.176  -1.069  22.743  0.00  0.00    +0.044 A 
ATOM      4  C   UNL     1       9.262   0.037  21.880  0.00  0.00    +0.062 A 
ATOM      5  C   UNL     1       9.945   1.162  22.342  0.00  0.00    +0.118 A 
ATOM      6  C   UNL     1      10.512   1.205  23.607  0.00  0.00    +0.047 A 
ATOM      7  C   UNL     1      10.410   0.103  24.460  0.00  0.00    +0.032 A 
ATOM      8  C   UNL     1       9.736  -1.057  24.025  0.00  0.00    +0.081 A 
ATOM      9  N   UNL     1       9.573  -2.219  24.759  0.00  0.00    -0.221 NA
ENDROOT
BRANCH   1  10
ATOM     10  S   UNL     1       8.515  -4.754  24.518  0.00  0.00    +0.080 S 
ATOM     11  O   UNL     1       7.572  -4.625  25.607  0.00  0.00    -0.151 OA
ATOM     12  O   UNL     1       8.212  -5.500  23.317  0.00  0.00    -0.151 OA
BRANCH  10  13
ATOM     13  N   UNL     1       9.889  -5.467  25.196  0.00  0.00    -0.202 NA
ATOM     14  H   UNL     1       9.835  -6.483  25.113  0.00  0.00    +0.144 HD
ATOM     15  H   UNL     1      10.727  -5.079  24.765  0.00  0.00    +0.144 HD
ENDBRANCH  10  13
ENDBRANCH   1  10
BRANCH   5  16
ATOM     16  O   UNL     1      10.085   2.270  21.555  0.00  0.00    -0.507 OA
ATOM     17  H   UNL     1      10.982   2.628  21.667  0.00  0.00    +0.292 HD
ENDBRANCH   5  16
TORSDOF 3
ENDMDL
MODEL 2
REMARK VINA RESULT:      -5.9      1.006      1.112
REMARK  Name = 
REMARK  3 active torsions:
REMARK  status: ('A' for Active; 'I' for Inactive)
REMARK    1  A    between atoms: N_1  and  S_2
REMARK    2  A    between atoms: S_2  and  C_5
REMARK    3  A    between atoms: C_11  and  O_12
REMARK                            x       y       z     vdW  Elec       q    Type
REMARK                         _______ _______ _______ _____ _____    ______ ____
ROOT
ATOM      1  C   UNL     1       8.771  -2.969  23.852  0.00  0.00    +0.233 A 
ATOM      2  S   UNL     1       8.355  -2.395  22.303  0.00  0.00    -0.047 S 
ATOM      3  C   UNL     1       9.155  -0.909  22.655  0.00  0.00    +0.044 A 
ATOM      4  C   UNL     1       9.322   0.220  21.834  0.00  0.00    +0.062 A 
ATOM      5  C   UNL     1      10.033   1.299  22.361  0.00  0.00    +0.118 A 
ATOM      6  C   UNL     1      10.549   1.276  23.648  0.00  0.00    +0.047 A 
ATOM      7  C   UNL     1      10.366   0.152  24.459  0.00  0.00    +0.032 A 
ATOM      8  C   UNL     1       9.662  -0.962  23.958  0.00  0.00    +0.081 A 
ATOM      9  N   UNL     1       9.421  -2.139  24.645  0.00  0.00    -0.221 NA
ENDROOT
BRANCH   1  10
ATOM     10  S   UNL     1       8.269  -4.617  24.276  0.00  0.00    +0.080 S 
ATOM     11  O   UNL     1       7.366  -5.046  23.230  0.00  0.00    -0.151 OA
ATOM     12  O   UNL     1       9.464  -5.356  24.617  0.00  0.00    -0.151 OA
BRANCH  10  13
ATOM     13  N   UNL     1       7.328  -4.544  25.678  0.00  0.00    -0.202 NA
ATOM     14  H   UNL     1       7.778  -3.946  26.372  0.00  0.00    +0.144 HD
ATOM     15  H   UNL     1       6.385  -4.237  25.444  0.00  0.00    +0.144 HD
ENDBRANCH  10  13
ENDBRANCH   1  10
BRANCH   5  16
ATOM     16  O   UNL     1      10.251   2.424  21.619  0.00  0.00    -0.507 OA
ATOM     17  H   UNL     1       9.488   2.573  21.035  0.00  0.00    +0.292 HD
ENDBRANCH   5  16
TORSDOF 3
ENDMDL
MODEL 3
REMARK VINA RESULT:      -5.7      1.372      1.769
REMARK  Name = 
REMARK  3 active torsions:
REMARK  status: ('A' for Active; 'I' for Inactive)
REMARK    1  A    between atoms: N_1  and  S_2
REMARK    2  A    between atoms: S_2  and  C_5
REMARK    3  A    between atoms: C_11  and  O_12
REMARK                            x       y       z     vdW  Elec       q    Type
REMARK                         _______ _______ _______ _____ _____    ______ ____
ROOT
ATOM      1  C   UNL     1       9.103  -3.012  24.683  0.00  0.00    +0.233 A 
ATOM      2  S   UNL     1       8.764  -1.591  25.561  0.00  0.00    -0.047 S 
ATOM      3  C   UNL     1       9.133  -0.656  24.159  0.00  0.00    +0.044 A 
ATOM      4  C   UNL     1       9.083   0.739  23.990  0.00  0.00    +0.062 A 
ATOM      5  C   UNL     1       9.419   1.247  22.735  0.00  0.00    +0.118 A 
ATOM      6  C   UNL     1       9.800   0.419  21.689  0.00  0.00    +0.047 A 
ATOM      7  C   UNL     1       9.856  -0.965  21.873  0.00  0.00    +0.032 A 
ATOM      8  C   UNL     1       9.515  -1.517  23.125  0.00  0.00    +0.081 A 
ATOM      9  N   UNL     1       9.514  -2.865  23.439  0.00  0.00    -0.221 NA
ENDROOT
BRANCH   1  10
ATOM     10  S   UNL     1       8.904  -4.560  25.526  0.00  0.00    +0.080 S 
ATOM     11  O   UNL     1       8.831  -4.247  26.937  0.00  0.00    -0.151 OA
ATOM     12  O   UNL     1       7.862  -5.291  24.842  0.00  0.00    -0.151 OA
BRANCH  10  13
ATOM     13  N   UNL     1      10.326  -5.456  25.339  0.00  0.00    -0.202 NA
ATOM     14  H   UNL     1      11.091  -5.008  25.843  0.00  0.00    +0.144 HD
ATOM     15  H   UNL     1      10.167  -6.418  25.635  0.00  0.00    +0.144 HD
ENDBRANCH  10  13
ENDBRANCH   1  10
BRANCH   5  16
ATOM     16  O   UNL     1       9.379   2.589  22.489  0.00  0.00    -0.507 OA
ATOM     17  H   UNL     1       9.747   2.762  21.606  0.00  0.00    +0.292 HD
ENDBRANCH   5  16
TORSDOF 3
ENDMDL
MODEL 4
REMARK VINA RESULT:      -5.5      1.794      2.302
REMARK  Name = 
REMARK  3 active torsions:
REMARK  status: ('A' for Active; 'I' for Inactive)
REMARK    1  A    between atoms: N_1  and  S_2
REMARK    2  A    between atoms: S_2  and  C_5
REMARK    3  A    between atoms: C_11  and  O_12
REMARK                            x       y       z     vdW  Elec       q    Type
REMARK                         _______ _______ _______ _____ _____    ______ ____
ROOT
ATOM      1  C   UNL     1       8.366  -2.775  23.310  0.00  0.00    +0.233 A 
ATOM      2  S   UNL     1       9.002  -2.055  24.717  0.00  0.00    -0.047 S 
ATOM      3  C   UNL     1       9.438  -0.667  23.792  0.00  0.00    +0.044 A 
ATOM      4  C   UNL     1      10.050   0.524  24.222  0.00  0.00    +0.062 A 
ATOM      5  C   UNL     1      10.281   1.511  23.263  0.00  0.00    +0.118 A 
ATOM      6  C   UNL     1       9.936   1.331  21.932  0.00  0.00    +0.047 A 
ATOM      7  C   UNL     1       9.338   0.139  21.515  0.00  0.00    +0.032 A 
ATOM      8  C   UNL     1       9.079  -0.878  22.457  0.00  0.00    +0.081 A 
ATOM      9  N   UNL     1       8.483  -2.097  22.185  0.00  0.00    -0.221 NA
ENDROOT
BRANCH   1  10
ATOM     10  S   UNL     1       7.633  -4.382  23.473  0.00  0.00    +0.080 S 
ATOM     11  O   UNL     1       8.681  -5.259  23.948  0.00  0.00    -0.151 OA
ATOM     12  O   UNL     1       6.384  -4.214  24.183  0.00  0.00    -0.151 OA
BRANCH  10  13
ATOM     13  N   UNL     1       7.240  -4.949  21.930  0.00  0.00    -0.202 NA
ATOM     14  H   UNL     1       7.026  -5.946  21.967  0.00  0.00    +0.144 HD
ATOM     15  H   UNL     1       6.477  -4.395  21.544  0.00  0.00    +0.144 HD
ENDBRANCH  10  13
ENDBRANCH   1  10
BRANCH   5  16
ATOM     16  O   UNL     1      10.856   2.700  23.606  0.00  0.00    -0.507 OA
ATOM     17  H   UNL     1      10.159   3.363  23.743  0.00  0.00    +0.292 HD
ENDBRANCH   5  16
TORSDOF 3
ENDMDL
MODEL 5
REMARK VINA RESULT:      -5.3      2.041      2.285
REMARK  Name = 
REMARK  3 active torsions:
REMARK  status: ('A' for Active; 'I' for Inactive)
REMARK    1  A    between atoms: N_1  and  S_2
REMARK    2  A    between atoms: S_2  and  C_5
REMARK    3  A    between atoms: C_11  and  O_12
REMARK                            x       y       z     vdW  Elec       q    Type
REMARK                         _______ _______ _______ _____ _____    ______ ____
ROOT
ATOM      1  C   UNL     1       7.833  -2.731  23.051  0.00  0.00    +0.233 A 
ATOM      2  S   UNL     1       6.616  -1.587  23.388  0.00  0.00    -0.047 S 
ATOM      3  C   UNL     1       7.642  -0.340  22.782  0.00  0.00    +0.044 A 
ATOM      4  C   UNL     1       7.382   1.037  22.663  0.00  0.00    +0.062 A 
ATOM      5  C   UNL     1       8.387   1.836  22.119  0.00  0.00    +0.118 A 
ATOM      6  C   UNL     1       9.605   1.307  21.717  0.00  0.00    +0.047 A 
ATOM      7  C   UNL     1       9.855  -0.061  21.851  0.00  0.00    +0.032 A 
ATOM      8  C   UNL     1       8.860  -0.903  22.388  0.00  0.00    +0.081 A 
ATOM      9  N   UNL     1       8.969  -2.272  22.563  0.00  0.00    -0.221 NA
ENDROOT
BRANCH   1  10
ATOM     10  S   UNL     1       7.479  -4.431  23.413  0.00  0.00    +0.080 S 
ATOM     11  O   UNL     1       8.699  -4.993  23.949  0.00  0.00    -0.151 OA
ATOM     12  O   UNL     1       6.228  -4.464  24.138  0.00  0.00    -0.151 OA
BRANCH  10  13
ATOM     13  N   UNL     1       7.214  -5.243  21.954  0.00  0.00    -0.202 NA
ATOM     14  H   UNL     1       7.920  -5.968  21.823  0.00  0.00    +0.144 HD
ATOM     15  H   UNL     1       6.263  -5.609  21.932  0.00  0.00    +0.144 HD
ENDBRANCH  10  13
ENDBRANCH   1  10
BRANCH   5  16
ATOM     16  O   UNL     1       8.204   3.180  21.956  0.00  0.00    -0.507 OA
ATOM     17  H   UNL     1       9.063   3.599  21.780  0.00  0.00    +0.292 HD
ENDBRANCH   5  16
TORSDOF 3
ENDMDL
MODEL 6
REMARK VINA RESULT:      -5.2      2.182      2.597
REMARK  Name = 
REMARK  3 active torsions:
REMARK  status: ('A' for Active; 'I' for Inactive)
REMARK    1  A    between atoms: N_1  and  S_2
REMARK    2  A    between atoms: S_2  and  C_5
REMARK    3  A    between atoms: C_11  and  O_12
REMARK                            x       y       z     vdW  Elec       q    Type
REMARK                         _______ _______ _______ _____ _____    ______ ____
ROOT
ATOM      1  C   UNL     1       7.443  -4.066  25.531  0.00  0.00    +0.233 A 
ATOM      2  S   UNL     1       6.880  -4.157  23.925  0.00  0.00    -0.047 S 
ATOM      3  C   UNL     1       8.008  -2.932  23.476  0.00  0.00    +0.044 A 
ATOM      4  C   UNL     1       8.247  -2.373  22.209  0.00  0.00    +0.062 A 
ATOM      5  C   UNL     1       9.239  -1.397  22.112  0.00  0.00    +0.118 A 
ATOM      6  C   UNL     1       9.961  -0.977  23.220  0.00  0.00    +0.047 A 
ATOM      7  C   UNL     1       9.706  -1.532  24.477  0.00  0.00    +0.032 A 
ATOM      8  C   UNL     1       8.718  -2.529  24.612  0.00  0.00    +0.081 A 
ATOM      9  N   UNL     1       8.374  -3.170  25.790  0.00  0.00    -0.221 NA
ENDROOT
BRANCH   1  10
ATOM     10  S   UNL     1       6.707  -5.160  26.718  0.00  0.00    +0.080 S 
ATOM     11  O   UNL     1       6.059  -4.317  27.698  0.00  0.00    -0.151 OA
ATOM     12  O   UNL     1       5.992  -6.177  25.979  0.00  0.00    -0.151 OA
BRANCH  10  13
ATOM     13  N   UNL     1       7.945  -5.951  27.554  0.00  0.00    -0.202 NA
ATOM     14  H   UNL     1       8.293  -5.358  28.308  0.00  0.00    +0.144 HD
ATOM     15  H   UNL     1       7.614  -6.856  27.884  0.00  0.00    +0.144 HD
ENDBRANCH  10  13
ENDBRANCH   1  10
BRANCH   5  16
ATOM     16  O   UNL     1       9.541  -0.820  20.912  0.00  0.00    -0.507 OA
ATOM     17  H   UNL     1       9.187  -1.373  20.196  0.00  0.00    +0.292 HD
ENDBRANCH   5  16
TORSDOF 3
ENDMDL
MODEL 7
REMARK VINA RESULT:      -5.1      3.498      6.145
REMARK  Name = 
REMARK  3 active torsions:
REMARK  status: ('A' for Active; 'I' for Inactive)
REMARK    1  A    between atoms: N_1  and  S_2
REMARK    2  A    between atoms: S_2  and  C_5
REMARK    3  A    between atoms: C_11  and  O_12
REMARK                            x       y       z     vdW  Elec       q    Type
REMARK                         _______ _______ _______ _____ _____    ______ ____
ROOT
ATOM      1  C   UNL     1       8.422  -2.680  23.223  0.00  0.00    +0.233 A 
ATOM      2  S   UNL     1       8.004  -3.399  24.711  0.00  0.00    -0.047 S 
ATOM      3  C   UNL     1       6.935  -4.466  23.878  0.00  0.00    +0.044 A 
ATOM      4  C   UNL     1       6.132  -5.495  24.400  0.00  0.00    +0.062 A 
ATOM      5  C   UNL     1       5.363  -6.231  23.497  0.00  0.00    +0.118 A 
ATOM      6  C   UNL     1       5.372  -5.958  22.137  0.00  0.00    +0.047 A 
ATOM      7  C   UNL     1       6.166  -4.925  21.633  0.00  0.00    +0.032 A 
ATOM      8  C   UNL     1       6.966  -4.166  22.512  0.00  0.00    +0.081 A 
ATOM      9  N   UNL     1       7.805  -3.128  22.147  0.00  0.00    -0.221 NA
ENDROOT
BRANCH   1  10
ATOM     10  S   UNL     1       9.622  -1.375  23.255  0.00  0.00    +0.080 S 
ATOM     11  O   UNL     1       9.818  -1.038  24.648  0.00  0.00    -0.151 OA
ATOM     12  O   UNL     1      10.713  -1.774  22.395  0.00  0.00    -0.151 OA
BRANCH  10  13
ATOM     13  N   UNL     1       8.933   0.001  22.555  0.00  0.00    -0.202 NA
ATOM     14  H   UNL     1       7.915  -0.077  22.557  0.00  0.00    +0.144 HD
ATOM     15  H   UNL     1       9.267   0.835  23.035  0.00  0.00    +0.144 HD
ENDBRANCH  10  13
ENDBRANCH   1  10
BRANCH   5  16
ATOM     16  O   UNL     1       4.570  -7.257  23.925  0.00  0.00    -0.507 OA
ATOM     17  H   UNL     1       5.126  -7.936  24.341  0.00  0.00    +0.292 HD
ENDBRANCH   5  16
TORSDOF 3
ENDMDL
MODEL 8
REMARK VINA RESULT:      -5.0      2.755      5.815
REMARK  Name = 
REMARK  3 active torsions:
REMARK  status: ('A' for Active; 'I' for Inactive)
REMARK    1  A    between atoms: N_1  and  S_2
REMARK    2  A    between atoms: S_2  and  C_5
REMARK    3  A    between atoms: C_11  and  O_12
REMARK                            x       y       z     vdW  Elec       q    Type
REMARK                         _______ _______ _______ _____ _____    ______ ____
ROOT
ATOM      1  C   UNL     1       8.805   0.357  23.153  0.00  0.00    +0.233 A 
ATOM      2  S   UNL     1       9.945  -0.375  24.186  0.00  0.00    -0.047 S 
ATOM      3  C   UNL     1       9.176  -1.897  23.932  0.00  0.00    +0.044 A 
ATOM      4  C   UNL     1       9.524  -3.159  24.446  0.00  0.00    +0.062 A 
ATOM      5  C   UNL     1       8.736  -4.246  24.068  0.00  0.00    +0.118 A 
ATOM      6  C   UNL     1       7.642  -4.100  23.228  0.00  0.00    +0.047 A 
ATOM      7  C   UNL     1       7.299  -2.838  22.734  0.00  0.00    +0.032 A 
ATOM      8  C   UNL     1       8.077  -1.716  23.085  0.00  0.00    +0.081 A 
ATOM      9  N   UNL     1       7.860  -0.418  22.658  0.00  0.00    -0.221 NA
ENDROOT
BRANCH   1  10
ATOM     10  S   UNL     1       8.969   2.099  22.858  0.00  0.00    +0.080 S 
ATOM     11  O   UNL     1       7.750   2.514  22.200  0.00  0.00    -0.151 OA
ATOM     12  O   UNL     1       9.426   2.702  24.090  0.00  0.00    -0.151 OA
BRANCH  10  13
ATOM     13  N   UNL     1      10.196   2.334  21.719  0.00  0.00    -0.202 NA
ATOM     14  H   UNL     1       9.917   1.947  20.818  0.00  0.00    +0.144 HD
ATOM     15  H   UNL     1      10.432   3.324  21.668  0.00  0.00    +0.144 HD
ENDBRANCH  10  13
ENDBRANCH   1  10
BRANCH   5  16
ATOM     16  O   UNL     1       9.021  -5.506  24.512  0.00  0.00    -0.507 OA
ATOM     17  H   UNL     1       9.941  -5.722  24.287  0.00  0.00    +0.292 HD
ENDBRANCH   5  16
TORSDOF 3
ENDMDL
MODEL 9
REMARK VINA RESULT:      -5.0      2.733      5.784
REMARK  Name = 
REMARK  3 active torsions:
REMARK  status: ('A' for Active; 'I' for Inactive)
REMARK    1  A    between atoms: N_1  and  S_2
REMARK    2  A    between atoms: S_2  and  C_5
REMARK    3  A    between atoms: C_11  and  O_12
REMARK                            x       y       z     vdW  Elec       q    Type
REMARK                         _______ _______ _______ _____ _____    ______ ____
ROOT
ATOM      1  C   UNL     1       8.678  -2.120  23.784  0.00  0.00    +0.233 A 
ATOM      2  S   UNL     1       7.323  -2.937  23.151  0.00  0.00    -0.047 S 
ATOM      3  C   UNL     1       7.286  -3.933  24.559  0.00  0.00    +0.044 A 
ATOM      4  C   UNL     1       6.382  -4.957  24.892  0.00  0.00    +0.062 A 
ATOM      5  C   UNL     1       6.566  -5.605  26.114  0.00  0.00    +0.118 A 
ATOM      6  C   UNL     1       7.604  -5.269  26.970  0.00  0.00    +0.047 A 
ATOM      7  C   UNL     1       8.502  -4.256  26.623  0.00  0.00    +0.032 A 
ATOM      8  C   UNL     1       8.343  -3.571  25.400  0.00  0.00    +0.081 A 
ATOM      9  N   UNL     1       9.149  -2.544  24.940  0.00  0.00    -0.221 NA
ENDROOT
BRANCH   1  10
ATOM     10  S   UNL     1       9.356  -0.793  22.820  0.00  0.00    +0.080 S 
ATOM     11  O   UNL     1       8.236   0.029  22.419  0.00  0.00    -0.151 OA
ATOM     12  O   UNL     1      10.482  -0.261  23.555  0.00  0.00    -0.151 OA
BRANCH  10  13
ATOM     13  N   UNL     1       9.976  -1.438  21.386  0.00  0.00    -0.202 NA
ATOM     14  H   UNL     1       9.237  -1.510  20.686  0.00  0.00    +0.144 HD
ATOM     15  H   UNL     1      10.766  -0.878  21.070  0.00  0.00    +0.144 HD
ENDBRANCH  10  13
ENDBRANCH   1  10
BRANCH   5  16
ATOM     16  O   UNL     1       5.719  -6.598  26.515  0.00  0.00    -0.507 OA
ATOM     17  H   UNL     1       6.239  -7.319  26.908  0.00  0.00    +0.292 HD
ENDBRANCH   5  16
TORSDOF 3
ENDMDL
