MODEL 1
REMARK VINA RESULT:      -6.0      0.000      0.000
REMARK  Name = 
REMARK  6 active torsions:
REMARK  status: ('A' for Active; 'I' for Inactive)
REMARK    1  A    between atoms: N_1  and  CA_2
REMARK    2  A    between atoms: CA_2  and  C_4
REMARK    3  A    between atoms: CA_2  and  C_15
REMARK    4  A    between atoms: C_4  and  C_5
REMARK    5  A    between atoms: C_11  and  O_12
REMARK    6  A    between atoms: C_15  and  O_16
REMARK                            x       y       z     vdW  Elec       q    Type
REMARK                         _______ _______ _______ _____ _____    ______ ____
ROOT
ATOM      1  C   UNL     1       9.439   2.612  23.757  0.00  0.00    -0.020 A 
ATOM      2  C   UNL     1      10.436   3.641  23.669  0.00  0.00    +0.006 A 
ATOM      3  C   UNL     1      11.821   3.648  23.396  0.00  0.00    +0.055 A 
ATOM      4  C   UNL     1      12.507   4.864  23.413  0.00  0.00    +0.118 A 
ATOM      5  C   UNL     1      11.855   6.060  23.679  0.00  0.00    +0.047 A 
ATOM      6  C   UNL     1      10.482   6.080  23.933  0.00  0.00    +0.030 A 
ATOM      7  C   UNL     1       9.802   4.857  23.927  0.00  0.00    +0.047 A 
ATOM      8  N   UNL     1       8.471   4.585  24.136  0.00  0.00    -0.360 N 
ATOM      9  H   UNL     1       7.766   5.286  24.324  0.00  0.00    +0.165 HD
ATOM     10  C   UNL     1       8.243   3.239  24.043  0.00  0.00    +0.087 A 
ENDROOT
BRANCH   4  11
ATOM     11  O   UNL     1      13.851   4.918  23.171  0.00  0.00    -0.507 OA
ATOM     12  H   UNL     1      14.050   5.736  22.686  0.00  0.00    +0.292 HD
ENDBRANCH   4  11
BRANCH   1  13
ATOM     13  C   UNL     1       9.639   1.139  23.561  0.00  0.00    +0.067 C 
BRANCH  13  14
ATOM     14  CA  UNL     1       9.795   0.728  22.089  0.00  0.00    +0.165 C 
BRANCH  14  15
ATOM     15  N   UNL     1       8.955   1.543  21.144  0.00  0.00    -0.318 NA
ATOM     16  H1  UNL     1       9.541   2.298  20.774  0.00  0.00    +0.119 HD
ATOM     17  H2  UNL     1       8.800   0.955  20.315  0.00  0.00    +0.119 HD
ENDBRANCH  14  15
BRANCH  14  18
ATOM     18  C   UNL     1       9.386  -0.746  21.939  0.00  0.00    +0.322 C 
ATOM     19  OXT UNL     1       8.280  -1.203  22.181  0.00  0.00    -0.249 OA
BRANCH  18  20
ATOM     20  O   UNL     1      10.425  -1.502  21.495  0.00  0.00    -0.480 OA
ATOM     21  H   UNL     1      10.060  -2.038  20.745  0.00  0.00    +0.295 HD
ENDBRANCH  18  20
ENDBRANCH  14  18
ENDBRANCH  13  14
ENDBRANCH   1  13
TORSDOF 6
ENDMDL
MODEL 2
REMARK VINA RESULT:      -5.9      3.593      4.674
REMARK  Name = 
REMARK  6 active torsions:
REMARK  status: ('A' for Active; 'I' for Inactive)
REMARK    1  A    between atoms: N_1  and  CA_2
REMARK    2  A    between atoms: CA_2  and  C_4
REMARK    3  A    between atoms: CA_2  and  C_15
REMARK    4  A    between atoms: C_4  and  C_5
REMARK    5  A    between atoms: C_11  and  O_12
REMARK    6  A    between atoms: C_15  and  O_16
REMARK                            x       y       z     vdW  Elec       q    Type
REMARK                         _______ _______ _______ _____ _____    ______ ____
ROOT
ATOM      1  C   UNL     1       9.366  -1.391  24.683  0.00  0.00    -0.020 A 
ATOM      2  C   UNL     1       9.466  -0.088  24.091  0.00  0.00    +0.006 A 
ATOM      3  C   UNL     1       9.920   0.395  22.844  0.00  0.00    +0.055 A 
ATOM      4  C   UNL     1       9.896   1.770  22.602  0.00  0.00    +0.118 A 
ATOM      5  C   UNL     1       9.424   2.665  23.552  0.00  0.00    +0.047 A 
ATOM      6  C   UNL     1       8.952   2.210  24.785  0.00  0.00    +0.030 A 
ATOM      7  C   UNL     1       8.990   0.832  25.027  0.00  0.00    +0.047 A 
ATOM      8  N   UNL     1       8.593   0.117  26.132  0.00  0.00    -0.360 N 
ATOM      9  H   UNL     1       8.184   0.527  26.962  0.00  0.00    +0.165 HD
ATOM     10  C   UNL     1       8.820  -1.219  25.939  0.00  0.00    +0.087 A 
ENDROOT
BRANCH   4  11
ATOM     11  O   UNL     1      10.340   2.285  21.416  0.00  0.00    -0.507 OA
ATOM     12  H   UNL     1       9.592   2.347  20.801  0.00  0.00    +0.292 HD
ENDBRANCH   4  11
BRANCH   1  13
ATOM     13  C   UNL     1       9.758  -2.699  24.063  0.00  0.00    +0.067 C 
BRANCH  13  14
ATOM     14  CA  UNL     1       9.232  -3.925  24.825  0.00  0.00    +0.165 C 
BRANCH  14  15
ATOM     15  N   UNL     1      10.225  -5.052  24.910  0.00  0.00    -0.318 NA
ATOM     16  H1  UNL     1      11.161  -4.641  24.977  0.00  0.00    +0.119 HD
ATOM     17  H2  UNL     1      10.100  -5.476  25.839  0.00  0.00    +0.119 HD
ENDBRANCH  14  15
BRANCH  14  18
ATOM     18  C   UNL     1       7.974  -4.450  24.114  0.00  0.00    +0.322 C 
ATOM     19  OXT UNL     1       6.854  -3.975  24.214  0.00  0.00    -0.249 OA
BRANCH  18  20
ATOM     20  O   UNL     1       8.261  -5.532  23.343  0.00  0.00    -0.480 OA
ATOM     21  H   UNL     1       7.522  -6.174  23.503  0.00  0.00    +0.295 HD
ENDBRANCH  18  20
ENDBRANCH  14  18
ENDBRANCH  13  14
ENDBRANCH   1  13
TORSDOF 6
ENDMDL
MODEL 3
REMARK VINA RESULT:      -5.8      4.379      6.104
REMARK  Name = 
REMARK  6 active torsions:
REMARK  status: ('A' for Active; 'I' for Inactive)
REMARK    1  A    between atoms: N_1  and  CA_2
REMARK    2  A    between atoms: CA_2  and  C_4
REMARK    3  A    between atoms: CA_2  and  C_15
REMARK    4  A    between atoms: C_4  and  C_5
REMARK    5  A    between atoms: C_11  and  O_12
REMARK    6  A    between atoms: C_15  and  O_16
REMARK                            x       y       z     vdW  Elec       q    Type
REMARK                         _______ _______ _______ _____ _____    ______ ____
ROOT
ATOM      1  C   UNL     1       8.092  -2.322  25.824  0.00  0.00    -0.020 A 
ATOM      2  C   UNL     1       8.876  -1.691  24.801  0.00  0.00    +0.006 A 
ATOM      3  C   UNL     1       9.178  -2.005  23.458  0.00  0.00    +0.055 A 
ATOM      4  C   UNL     1      10.017  -1.153  22.737  0.00  0.00    +0.118 A 
ATOM      5  C   UNL     1      10.546  -0.003  23.307  0.00  0.00    +0.047 A 
ATOM      6  C   UNL     1      10.245   0.338  24.627  0.00  0.00    +0.030 A 
ATOM      7  C   UNL     1       9.414  -0.525  25.349  0.00  0.00    +0.047 A 
ATOM      8  N   UNL     1       8.956  -0.437  26.642  0.00  0.00    -0.360 N 
ATOM      9  H   UNL     1       9.171   0.323  27.275  0.00  0.00    +0.165 HD
ATOM     10  C   UNL     1       8.167  -1.514  26.940  0.00  0.00    +0.087 A 
ENDROOT
BRANCH   4  11
ATOM     11  O   UNL     1      10.351  -1.424  21.440  0.00  0.00    -0.507 OA
ATOM     12  H   UNL     1      11.106  -0.868  21.187  0.00  0.00    +0.292 HD
ENDBRANCH   4  11
BRANCH   1  13
ATOM     13  C   UNL     1       7.321  -3.603  25.711  0.00  0.00    +0.067 C 
BRANCH  13  14
ATOM     14  CA  UNL     1       8.165  -4.858  25.987  0.00  0.00    +0.165 C 
BRANCH  14  15
ATOM     15  N   UNL     1       9.229  -4.649  27.029  0.00  0.00    -0.318 NA
ATOM     16  H1  UNL     1       8.795  -4.771  27.949  0.00  0.00    +0.119 HD
ATOM     17  H2  UNL     1       9.855  -5.464  26.968  0.00  0.00    +0.119 HD
ENDBRANCH  14  15
BRANCH  14  18
ATOM     18  C   UNL     1       8.853  -5.290  24.682  0.00  0.00    +0.322 C 
ATOM     19  OXT UNL     1       8.298  -5.443  23.606  0.00  0.00    -0.249 OA
BRANCH  18  20
ATOM     20  O   UNL     1      10.184  -5.489  24.871  0.00  0.00    -0.480 OA
ATOM     21  H   UNL     1      10.395  -6.334  24.396  0.00  0.00    +0.295 HD
ENDBRANCH  18  20
ENDBRANCH  14  18
ENDBRANCH  13  14
ENDBRANCH   1  13
TORSDOF 6
ENDMDL
MODEL 4
REMARK VINA RESULT:      -5.8      3.768      7.715
REMARK  Name = 
REMARK  6 active torsions:
REMARK  status: ('A' for Active; 'I' for Inactive)
REMARK    1  A    between atoms: N_1  and  CA_2
REMARK    2  A    between atoms: CA_2  and  C_4
REMARK    3  A    between atoms: CA_2  and  C_15
REMARK    4  A    between atoms: C_4  and  C_5
REMARK    5  A    between atoms: C_11  and  O_12
REMARK    6  A    between atoms: C_15  and  O_16
REMARK                            x       y       z     vdW  Elec       q    Type
REMARK                         _______ _______ _______ _____ _____    ______ ____
ROOT
ATOM      1  C   UNL     1       8.299  -1.659  23.433  0.00  0.00    -0.020 A 
ATOM      2  C   UNL     1       7.801  -2.933  23.001  0.00  0.00    +0.006 A 
ATOM      3  C   UNL     1       6.962  -3.356  21.947  0.00  0.00    +0.055 A 
ATOM      4  C   UNL     1       6.656  -4.713  21.829  0.00  0.00    +0.118 A 
ATOM      5  C   UNL     1       7.167  -5.651  22.716  0.00  0.00    +0.047 A 
ATOM      6  C   UNL     1       8.013  -5.259  23.755  0.00  0.00    +0.030 A 
ATOM      7  C   UNL     1       8.308  -3.897  23.875  0.00  0.00    +0.047 A 
ATOM      8  N   UNL     1       9.102  -3.240  24.785  0.00  0.00    -0.360 N 
ATOM      9  H   UNL     1       9.618  -3.695  25.527  0.00  0.00    +0.165 HD
ATOM     10  C   UNL     1       9.100  -1.895  24.533  0.00  0.00    +0.087 A 
ENDROOT
BRANCH   4  11
ATOM     11  O   UNL     1       5.836  -5.167  20.835  0.00  0.00    -0.507 OA
ATOM     12  H   UNL     1       6.372  -5.637  20.176  0.00  0.00    +0.292 HD
ENDBRANCH   4  11
BRANCH   1  13
ATOM     13  C   UNL     1       8.028  -0.322  22.810  0.00  0.00    +0.067 C 
BRANCH  13  14
ATOM     14  CA  UNL     1       9.052   0.078  21.738  0.00  0.00    +0.165 C 
BRANCH  14  15
ATOM     15  N   UNL     1       9.906  -1.066  21.265  0.00  0.00    -0.318 NA
ATOM     16  H1  UNL     1      10.525  -1.335  22.036  0.00  0.00    +0.119 HD
ATOM     17  H2  UNL     1       9.281  -1.879  21.186  0.00  0.00    +0.119 HD
ENDBRANCH  14  15
BRANCH  14  18
ATOM     18  C   UNL     1       9.980   1.159  22.316  0.00  0.00    +0.322 C 
ATOM     19  OXT UNL     1      10.601   1.073  23.363  0.00  0.00    -0.249 OA
BRANCH  18  20
ATOM     20  O   UNL     1      10.028   2.250  21.507  0.00  0.00    -0.480 OA
ATOM     21  H   UNL     1       9.092   2.410  21.223  0.00  0.00    +0.295 HD
ENDBRANCH  18  20
ENDBRANCH  14  18
ENDBRANCH  13  14
ENDBRANCH   1  13
TORSDOF 6
ENDMDL
MODEL 5
REMARK VINA RESULT:      -5.7      3.671      5.093
REMARK  Name = 
REMARK  6 active torsions:
REMARK  status: ('A' for Active; 'I' for Inactive)
REMARK    1  A    between atoms: N_1  and  CA_2
REMARK    2  A    between atoms: CA_2  and  C_4
REMARK    3  A    between atoms: CA_2  and  C_15
REMARK    4  A    between atoms: C_4  and  C_5
REMARK    5  A    between atoms: C_11  and  O_12
REMARK    6  A    between atoms: C_15  and  O_16
REMARK                            x       y       z     vdW  Elec       q    Type
REMARK                         _______ _______ _______ _____ _____    ______ ____
ROOT
ATOM      1  C   UNL     1       9.302  -1.514  23.659  0.00  0.00    -0.020 A 
ATOM      2  C   UNL     1       9.335  -0.080  23.685  0.00  0.00    +0.006 A 
ATOM      3  C   UNL     1       9.027   0.894  24.660  0.00  0.00    +0.055 A 
ATOM      4  C   UNL     1       9.156   2.245  24.331  0.00  0.00    +0.118 A 
ATOM      5  C   UNL     1       9.591   2.646  23.075  0.00  0.00    +0.047 A 
ATOM      6  C   UNL     1       9.919   1.701  22.101  0.00  0.00    +0.030 A 
ATOM      7  C   UNL     1       9.777   0.350  22.433  0.00  0.00    +0.047 A 
ATOM      8  N   UNL     1      10.027  -0.776  21.684  0.00  0.00    -0.360 N 
ATOM      9  H   UNL     1      10.382  -0.766  20.736  0.00  0.00    +0.165 HD
ATOM     10  C   UNL     1       9.740  -1.901  22.408  0.00  0.00    +0.087 A 
ENDROOT
BRANCH   4  11
ATOM     11  O   UNL     1       8.854   3.223  25.236  0.00  0.00    -0.507 OA
ATOM     12  H   UNL     1       8.479   2.811  26.030  0.00  0.00    +0.292 HD
ENDBRANCH   4  11
BRANCH   1  13
ATOM     13  C   UNL     1       8.891  -2.430  24.773  0.00  0.00    +0.067 C 
BRANCH  13  14
ATOM     14  CA  UNL     1       9.066  -3.920  24.442  0.00  0.00    +0.165 C 
BRANCH  14  15
ATOM     15  N   UNL     1       7.822  -4.567  23.899  0.00  0.00    -0.318 NA
ATOM     16  H1  UNL     1       7.780  -5.523  24.266  0.00  0.00    +0.119 HD
ATOM     17  H2  UNL     1       7.031  -4.112  24.373  0.00  0.00    +0.119 HD
ENDBRANCH  14  15
BRANCH  14  18
ATOM     18  C   UNL     1       9.473  -4.669  25.722  0.00  0.00    +0.322 C 
ATOM     19  OXT UNL     1       9.008  -4.474  26.834  0.00  0.00    -0.249 OA
BRANCH  18  20
ATOM     20  O   UNL     1      10.435  -5.594  25.466  0.00  0.00    -0.480 OA
ATOM     21  H   UNL     1      11.297  -5.129  25.621  0.00  0.00    +0.295 HD
ENDBRANCH  18  20
ENDBRANCH  14  18
ENDBRANCH  13  14
ENDBRANCH   1  13
TORSDOF 6
ENDMDL
MODEL 6
REMARK VINA RESULT:      -5.7      4.505      6.494
REMARK  Name = 
REMARK  6 active torsions:
REMARK  status: ('A' for Active; 'I' for Inactive)
REMARK    1  A    between atoms: N_1  and  CA_2
REMARK    2  A    between atoms: CA_2  and  C_4
REMARK    3  A    between atoms: CA_2  and  C_15
REMARK    4  A    between atoms: C_4  and  C_5
REMARK    5  A    between atoms: C_11  and  O_12
REMARK    6  A    between atoms: C_15  and  O_16
REMARK                            x       y       z     vdW  Elec       q    Type
REMARK                         _______ _______ _______ _____ _____    ______ ____
ROOT
ATOM      1  C   UNL     1       7.663  -3.051  24.011  0.00  0.00    -0.020 A 
ATOM      2  C   UNL     1       8.587  -1.958  23.908  0.00  0.00    +0.006 A 
ATOM      3  C   UNL     1       9.297  -1.178  24.847  0.00  0.00    +0.055 A 
ATOM      4  C   UNL     1      10.118  -0.147  24.386  0.00  0.00    +0.118 A 
ATOM      5  C   UNL     1      10.259   0.115  23.030  0.00  0.00    +0.047 A 
ATOM      6  C   UNL     1       9.582  -0.655  22.082  0.00  0.00    +0.030 A 
ATOM      7  C   UNL     1       8.751  -1.678  22.550  0.00  0.00    +0.047 A 
ATOM      8  N   UNL     1       7.981  -2.580  21.855  0.00  0.00    -0.360 N 
ATOM      9  H   UNL     1       7.925  -2.626  20.846  0.00  0.00    +0.165 HD
ATOM     10  C   UNL     1       7.319  -3.406  22.722  0.00  0.00    +0.087 A 
ENDROOT
BRANCH   4  11
ATOM     11  O   UNL     1      10.812   0.645  25.257  0.00  0.00    -0.507 OA
ATOM     12  H   UNL     1      10.225   0.896  25.988  0.00  0.00    +0.292 HD
ENDBRANCH   4  11
BRANCH   1  13
ATOM     13  C   UNL     1       7.172  -3.706  25.267  0.00  0.00    +0.067 C 
BRANCH  13  14
ATOM     14  CA  UNL     1       7.745  -5.113  25.495  0.00  0.00    +0.165 C 
BRANCH  14  15
ATOM     15  N   UNL     1       7.120  -5.837  26.655  0.00  0.00    -0.318 NA
ATOM     16  H1  UNL     1       7.560  -5.491  27.514  0.00  0.00    +0.119 HD
ATOM     17  H2  UNL     1       6.160  -5.477  26.736  0.00  0.00    +0.119 HD
ENDBRANCH  14  15
BRANCH  14  18
ATOM     18  C   UNL     1       9.255  -4.996  25.764  0.00  0.00    +0.322 C 
ATOM     19  OXT UNL     1      10.132  -5.073  24.919  0.00  0.00    -0.249 OA
BRANCH  18  20
ATOM     20  O   UNL     1       9.505  -4.795  27.085  0.00  0.00    -0.480 OA
ATOM     21  H   UNL     1       9.004  -5.507  27.560  0.00  0.00    +0.295 HD
ENDBRANCH  18  20
ENDBRANCH  14  18
ENDBRANCH  13  14
ENDBRANCH   1  13
TORSDOF 6
ENDMDL
MODEL 7
REMARK VINA RESULT:      -5.6      3.600      6.961
REMARK  Name = 
REMARK  6 active torsions:
REMARK  status: ('A' for Active; 'I' for Inactive)
REMARK    1  A    between atoms: N_1  and  CA_2
REMARK    2  A    between atoms: CA_2  and  C_4
REMARK    3  A    between atoms: CA_2  and  C_15
REMARK    4  A    between atoms: C_4  and  C_5
REMARK    5  A    between atoms: C_11  and  O_12
REMARK    6  A    between atoms: C_15  and  O_16
REMARK                            x       y       z     vdW  Elec       q    Type
REMARK                         _______ _______ _______ _____ _____    ______ ____
ROOT
ATOM      1  C   UNL     1       8.529  -1.274  23.111  0.00  0.00    -0.020 A 
ATOM      2  C   UNL     1       8.598  -2.506  23.844  0.00  0.00    +0.006 A 
ATOM      3  C   UNL     1       9.655  -3.338  24.273  0.00  0.00    +0.055 A 
ATOM      4  C   UNL     1       9.353  -4.511  24.969  0.00  0.00    +0.118 A 
ATOM      5  C   UNL     1       8.042  -4.865  25.256  0.00  0.00    +0.047 A 
ATOM      6  C   UNL     1       6.981  -4.048  24.859  0.00  0.00    +0.030 A 
ATOM      7  C   UNL     1       7.289  -2.881  24.152  0.00  0.00    +0.047 A 
ATOM      8  N   UNL     1       6.460  -1.906  23.650  0.00  0.00    -0.360 N 
ATOM      9  H   UNL     1       5.452  -1.906  23.746  0.00  0.00    +0.165 HD
ATOM     10  C   UNL     1       7.193  -0.939  23.018  0.00  0.00    +0.087 A 
ENDROOT
BRANCH   4  11
ATOM     11  O   UNL     1      10.341  -5.355  25.390  0.00  0.00    -0.507 OA
ATOM     12  H   UNL     1      11.017  -4.839  25.857  0.00  0.00    +0.292 HD
ENDBRANCH   4  11
BRANCH   1  13
ATOM     13  C   UNL     1       9.678  -0.483  22.561  0.00  0.00    +0.067 C 
BRANCH  13  14
ATOM     14  CA  UNL     1       9.558   1.029  22.805  0.00  0.00    +0.165 C 
BRANCH  14  15
ATOM     15  N   UNL     1       9.828   1.860  21.581  0.00  0.00    -0.318 NA
ATOM     16  H1  UNL     1       8.944   1.964  21.072  0.00  0.00    +0.119 HD
ATOM     17  H2  UNL     1      10.007   2.816  21.915  0.00  0.00    +0.119 HD
ENDBRANCH  14  15
BRANCH  14  18
ATOM     18  C   UNL     1      10.568   1.438  23.891  0.00  0.00    +0.322 C 
ATOM     19  OXT UNL     1      10.962   0.722  24.797  0.00  0.00    -0.249 OA
BRANCH  18  20
ATOM     20  O   UNL     1      10.978   2.723  23.721  0.00  0.00    -0.480 OA
ATOM     21  H   UNL     1      11.233   2.795  22.766  0.00  0.00    +0.295 HD
ENDBRANCH  18  20
ENDBRANCH  14  18
ENDBRANCH  13  14
ENDBRANCH   1  13
TORSDOF 6
ENDMDL
MODEL 8
REMARK VINA RESULT:      -5.6      4.591      5.911
REMARK  Name = 
REMARK  6 active torsions:
REMARK  status: ('A' for Active; 'I' for Inactive)
REMARK    1  A    between atoms: N_1  and  CA_2
REMARK    2  A    between atoms: CA_2  and  C_4
REMARK    3  A    between atoms: CA_2  and  C_15
REMARK    4  A    between atoms: C_4  and  C_5
REMARK    5  A    between atoms: C_11  and  O_12
REMARK    6  A    between atoms: C_15  and  O_16
REMARK                            x       y       z     vdW  Elec       q    Type
REMARK                         _______ _______ _______ _____ _____    ______ ____
ROOT
ATOM      1  C   UNL     1       8.855  -1.815  23.443  0.00  0.00    -0.020 A 
ATOM      2  C   UNL     1       8.304  -0.578  22.966  0.00  0.00    +0.006 A 
ATOM      3  C   UNL     1       7.101   0.121  23.207  0.00  0.00    +0.055 A 
ATOM      4  C   UNL     1       6.873   1.324  22.536  0.00  0.00    +0.118 A 
ATOM      5  C   UNL     1       7.805   1.848  21.651  0.00  0.00    +0.047 A 
ATOM      6  C   UNL     1       9.009   1.184  21.411  0.00  0.00    +0.030 A 
ATOM      7  C   UNL     1       9.228  -0.027  22.077  0.00  0.00    +0.047 A 
ATOM      8  N   UNL     1      10.308  -0.877  22.035  0.00  0.00    -0.360 N 
ATOM      9  H   UNL     1      11.142  -0.716  21.486  0.00  0.00    +0.165 HD
ATOM     10  C   UNL     1      10.091  -1.957  22.847  0.00  0.00    +0.087 A 
ENDROOT
BRANCH   4  11
ATOM     11  O   UNL     1       5.717   2.028  22.725  0.00  0.00    -0.507 OA
ATOM     12  H   UNL     1       5.115   1.502  23.275  0.00  0.00    +0.292 HD
ENDBRANCH   4  11
BRANCH   1  13
ATOM     13  C   UNL     1       8.228  -2.769  24.416  0.00  0.00    +0.067 C 
BRANCH  13  14
ATOM     14  CA  UNL     1       8.694  -4.223  24.240  0.00  0.00    +0.165 C 
BRANCH  14  15
ATOM     15  N   UNL     1       7.583  -5.171  23.880  0.00  0.00    -0.318 NA
ATOM     16  H1  UNL     1       7.865  -6.111  24.177  0.00  0.00    +0.119 HD
ATOM     17  H2  UNL     1       6.806  -4.959  24.520  0.00  0.00    +0.119 HD
ENDBRANCH  14  15
BRANCH  14  18
ATOM     18  C   UNL     1       9.324  -4.705  25.557  0.00  0.00    +0.322 C 
ATOM     19  OXT UNL     1       9.043  -4.291  26.670  0.00  0.00    -0.249 OA
BRANCH  18  20
ATOM     20  O   UNL     1      10.257  -5.668  25.332  0.00  0.00    -0.480 OA
ATOM     21  H   UNL     1       9.748  -6.462  25.026  0.00  0.00    +0.295 HD
ENDBRANCH  18  20
ENDBRANCH  14  18
ENDBRANCH  13  14
ENDBRANCH   1  13
TORSDOF 6
ENDMDL
MODEL 9
REMARK VINA RESULT:      -5.5      3.619      5.259
REMARK  Name = 
REMARK  6 active torsions:
REMARK  status: ('A' for Active; 'I' for Inactive)
REMARK    1  A    between atoms: N_1  and  CA_2
REMARK    2  A    between atoms: CA_2  and  C_4
REMARK    3  A    between atoms: CA_2  and  C_15
REMARK    4  A    between atoms: C_4  and  C_5
REMARK    5  A    between atoms: C_11  and  O_12
REMARK    6  A    between atoms: C_15  and  O_16
REMARK                            x       y       z     vdW  Elec       q    Type
REMARK                         _______ _______ _______ _____ _____    ______ ____
ROOT
ATOM      1  C   UNL     1       8.472  -2.073  23.479  0.00  0.00    -0.020 A 
ATOM      2  C   UNL     1       9.078  -0.781  23.333  0.00  0.00    +0.006 A 
ATOM      3  C   UNL     1       9.303   0.082  22.239  0.00  0.00    +0.055 A 
ATOM      4  C   UNL     1       9.962   1.294  22.458  0.00  0.00    +0.118 A 
ATOM      5  C   UNL     1      10.386   1.669  23.725  0.00  0.00    +0.047 A 
ATOM      6  C   UNL     1      10.158   0.841  24.825  0.00  0.00    +0.030 A 
ATOM      7  C   UNL     1       9.508  -0.377  24.598  0.00  0.00    +0.047 A 
ATOM      8  N   UNL     1       9.155  -1.369  25.482  0.00  0.00    -0.360 N 
ATOM      9  H   UNL     1       9.324  -1.335  26.479  0.00  0.00    +0.165 HD
ATOM     10  C   UNL     1       8.538  -2.396  24.820  0.00  0.00    +0.087 A 
ENDROOT
BRANCH   4  11
ATOM     11  O   UNL     1      10.217   2.154  21.427  0.00  0.00    -0.507 OA
ATOM     12  H   UNL     1      11.147   2.429  21.469  0.00  0.00    +0.292 HD
ENDBRANCH   4  11
BRANCH   1  13
ATOM     13  C   UNL     1       7.864  -2.915  22.398  0.00  0.00    +0.067 C 
BRANCH  13  14
ATOM     14  CA  UNL     1       7.112  -4.147  22.924  0.00  0.00    +0.165 C 
BRANCH  14  15
ATOM     15  N   UNL     1       7.945  -5.399  22.942  0.00  0.00    -0.318 NA
ATOM     16  H1  UNL     1       7.511  -6.055  23.600  0.00  0.00    +0.119 HD
ATOM     17  H2  UNL     1       7.793  -5.859  22.035  0.00  0.00    +0.119 HD
ENDBRANCH  14  15
BRANCH  14  18
ATOM     18  C   UNL     1       5.888  -4.402  22.029  0.00  0.00    +0.322 C 
ATOM     19  OXT UNL     1       5.390  -5.493  21.804  0.00  0.00    -0.249 OA
BRANCH  18  20
ATOM     20  O   UNL     1       5.414  -3.241  21.502  0.00  0.00    -0.480 OA
ATOM     21  H   UNL     1       6.218  -2.715  21.257  0.00  0.00    +0.295 HD
ENDBRANCH  18  20
ENDBRANCH  14  18
ENDBRANCH  13  14
ENDBRANCH   1  13
TORSDOF 6
ENDMDL
