MODEL 1
REMARK VINA RESULT:      -4.7      0.000      0.000
REMARK  Name = 
REMARK  4 active torsions:
REMARK  status: ('A' for Active; 'I' for Inactive)
REMARK    1  A    between atoms: N_1  and  C_2
REMARK    2  A    between atoms: C_2  and  C_3
REMARK    3  A    between atoms: C_3  and  C_4
REMARK    4  A    between atoms: C_7  and  O_8
REMARK                            x       y       z     vdW  Elec       q    Type
REMARK                         _______ _______ _______ _____ _____    ______ ____
ROOT
ATOM      1  C   UNL     1       9.832  -1.470  23.397  0.00  0.00    -0.046 A 
ATOM      2  C   UNL     1      10.267  -0.333  24.089  0.00  0.00    +0.007 A 
ATOM      3  C   UNL     1      10.318   0.907  23.448  0.00  0.00    +0.045 A 
ATOM      4  C   UNL     1       9.940   1.008  22.116  0.00  0.00    +0.117 A 
ATOM      5  C   UNL     1       9.501  -0.108  21.412  0.00  0.00    +0.045 A 
ATOM      6  C   UNL     1       9.448  -1.347  22.054  0.00  0.00    +0.007 A 
ENDROOT
BRANCH   4   7
ATOM      7  O   UNL     1      10.021   2.235  21.524  0.00  0.00    -0.507 OA
ATOM      8  H   UNL     1       9.887   2.914  22.205  0.00  0.00    +0.292 HD
ENDBRANCH   4   7
BRANCH   1   9
ATOM      9  C   UNL     1       9.812  -2.818  24.079  0.00  0.00    +0.050 C 
BRANCH   9  10
ATOM     10  C   UNL     1       8.481  -3.542  23.851  0.00  0.00    +0.082 C 
BRANCH  10  11
ATOM     11  N   UNL     1       8.622  -4.985  24.049  0.00  0.00    -0.330 NA
ATOM     12  H   UNL     1       9.481  -5.309  23.607  0.00  0.00    +0.118 HD
ATOM     13  H   UNL     1       8.728  -5.176  25.045  0.00  0.00    +0.118 HD
ENDBRANCH  10  11
ENDBRANCH   9  10
ENDBRANCH   1   9
TORSDOF 4
ENDMDL
MODEL 2
REMARK VINA RESULT:      -4.5      1.211      2.127
REMARK  Name = 
REMARK  4 active torsions:
REMARK  status: ('A' for Active; 'I' for Inactive)
REMARK    1  A    between atoms: N_1  and  C_2
REMARK    2  A    between atoms: C_2  and  C_3
REMARK    3  A    between atoms: C_3  and  C_4
REMARK    4  A    between atoms: C_7  and  O_8
REMARK                            x       y       z     vdW  Elec       q    Type
REMARK                         _______ _______ _______ _____ _____    ______ ____
ROOT
ATOM      1  C   UNL     1      10.220  -0.420  22.949  0.00  0.00    -0.046 A 
ATOM      2  C   UNL     1       9.797   0.327  21.842  0.00  0.00    +0.007 A 
ATOM      3  C   UNL     1       9.803   1.722  21.888  0.00  0.00    +0.045 A 
ATOM      4  C   UNL     1      10.224   2.370  23.042  0.00  0.00    +0.117 A 
ATOM      5  C   UNL     1      10.652   1.648  24.151  0.00  0.00    +0.045 A 
ATOM      6  C   UNL     1      10.648   0.252  24.103  0.00  0.00    +0.007 A 
ENDROOT
BRANCH   4   7
ATOM      7  O   UNL     1      10.198   3.734  23.050  0.00  0.00    -0.507 OA
ATOM      8  H   UNL     1      10.473   4.053  22.175  0.00  0.00    +0.292 HD
ENDBRANCH   4   7
BRANCH   1   9
ATOM      9  C   UNL     1      10.179  -1.930  22.913  0.00  0.00    +0.050 C 
BRANCH   9  10
ATOM     10  C   UNL     1       9.403  -2.499  24.106  0.00  0.00    +0.082 C 
BRANCH  10  11
ATOM     11  N   UNL     1       9.845  -3.856  24.428  0.00  0.00    -0.330 NA
ATOM     12  H   UNL     1      10.864  -3.889  24.443  0.00  0.00    +0.118 HD
ATOM     13  H   UNL     1       9.541  -4.091  25.372  0.00  0.00    +0.118 HD
ENDBRANCH  10  11
ENDBRANCH   9  10
ENDBRANCH   1   9
TORSDOF 4
ENDMDL
MODEL 3
REMARK VINA RESULT:      -4.5      4.009      5.361
REMARK  Name = 
REMARK  4 active torsions:
REMARK  status: ('A' for Active; 'I' for Inactive)
REMARK    1  A    between atoms: N_1  and  C_2
REMARK    2  A    between atoms: C_2  and  C_3
REMARK    3  A    between atoms: C_3  and  C_4
REMARK    4  A    between atoms: C_7  and  O_8
REMARK                            x       y       z     vdW  Elec       q    Type
REMARK                         _______ _______ _______ _____ _____    ______ ____
ROOT
ATOM      1  C   UNL     1      10.074   2.045  23.158  0.00  0.00    -0.046 A 
ATOM      2  C   UNL     1       9.472   1.787  21.919  0.00  0.00    +0.007 A 
ATOM      3  C   UNL     1       9.400   0.482  21.427  0.00  0.00    +0.045 A 
ATOM      4  C   UNL     1       9.935  -0.563  22.169  0.00  0.00    +0.117 A 
ATOM      5  C   UNL     1      10.532  -0.329  23.403  0.00  0.00    +0.045 A 
ATOM      6  C   UNL     1      10.602   0.976  23.896  0.00  0.00    +0.007 A 
ENDROOT
BRANCH   4   7
ATOM      7  O   UNL     1       9.858  -1.819  21.644  0.00  0.00    -0.507 OA
ATOM      8  H   UNL     1       9.398  -2.391  22.280  0.00  0.00    +0.292 HD
ENDBRANCH   4   7
BRANCH   1   9
ATOM      9  C   UNL     1      10.185   3.460  23.673  0.00  0.00    +0.050 C 
BRANCH   9  10
ATOM     10  C   UNL     1      11.555   4.067  23.355  0.00  0.00    +0.082 C 
BRANCH  10  11
ATOM     11  N   UNL     1      11.437   5.477  22.982  0.00  0.00    -0.330 NA
ATOM     12  H   UNL     1      12.080   5.684  22.218  0.00  0.00    +0.118 HD
ATOM     13  H   UNL     1      10.501   5.648  22.617  0.00  0.00    +0.118 HD
ENDBRANCH  10  11
ENDBRANCH   9  10
ENDBRANCH   1   9
TORSDOF 4
ENDMDL
MODEL 4
REMARK VINA RESULT:      -4.5      4.001      5.195
REMARK  Name = 
REMARK  4 active torsions:
REMARK  status: ('A' for Active; 'I' for Inactive)
REMARK    1  A    between atoms: N_1  and  C_2
REMARK    2  A    between atoms: C_2  and  C_3
REMARK    3  A    between atoms: C_3  and  C_4
REMARK    4  A    between atoms: C_7  and  O_8
REMARK                            x       y       z     vdW  Elec       q    Type
REMARK                         _______ _______ _______ _____ _____    ______ ____
ROOT
ATOM      1  C   UNL     1      10.118   2.004  23.132  0.00  0.00    -0.046 A 
ATOM      2  C   UNL     1      10.602   0.909  23.861  0.00  0.00    +0.007 A 
ATOM      3  C   UNL     1      10.486  -0.386  23.350  0.00  0.00    +0.045 A 
ATOM      4  C   UNL     1       9.881  -0.587  22.117  0.00  0.00    +0.117 A 
ATOM      5  C   UNL     1       9.398   0.486  21.375  0.00  0.00    +0.045 A 
ATOM      6  C   UNL     1       9.517   1.781  21.885  0.00  0.00    +0.007 A 
ENDROOT
BRANCH   4   7
ATOM      7  O   UNL     1       9.774  -1.869  21.663  0.00  0.00    -0.507 OA
ATOM      8  H   UNL     1      10.526  -2.380  22.004  0.00  0.00    +0.292 HD
ENDBRANCH   4   7
BRANCH   1   9
ATOM      9  C   UNL     1      10.210   3.400  23.700  0.00  0.00    +0.050 C 
BRANCH   9  10
ATOM     10  C   UNL     1      11.546   4.063  23.346  0.00  0.00    +0.082 C 
BRANCH  10  11
ATOM     11  N   UNL     1      11.368   5.483  23.040  0.00  0.00    -0.330 NA
ATOM     12  H   UNL     1      12.001   5.753  22.288  0.00  0.00    +0.118 HD
ATOM     13  H   UNL     1      10.425   5.632  22.684  0.00  0.00    +0.118 HD
ENDBRANCH  10  11
ENDBRANCH   9  10
ENDBRANCH   1   9
TORSDOF 4
ENDMDL
MODEL 5
REMARK VINA RESULT:      -4.3      2.263      3.049
REMARK  Name = 
REMARK  4 active torsions:
REMARK  status: ('A' for Active; 'I' for Inactive)
REMARK    1  A    between atoms: N_1  and  C_2
REMARK    2  A    between atoms: C_2  and  C_3
REMARK    3  A    between atoms: C_3  and  C_4
REMARK    4  A    between atoms: C_7  and  O_8
REMARK                            x       y       z     vdW  Elec       q    Type
REMARK                         _______ _______ _______ _____ _____    ______ ____
ROOT
ATOM      1  C   UNL     1       8.289  -3.784  24.145  0.00  0.00    -0.046 A 
ATOM      2  C   UNL     1       9.541  -3.199  24.374  0.00  0.00    +0.007 A 
ATOM      3  C   UNL     1      10.050  -2.251  23.485  0.00  0.00    +0.045 A 
ATOM      4  C   UNL     1       9.313  -1.892  22.365  0.00  0.00    +0.117 A 
ATOM      5  C   UNL     1       8.066  -2.458  22.120  0.00  0.00    +0.045 A 
ATOM      6  C   UNL     1       7.555  -3.405  23.011  0.00  0.00    +0.007 A 
ENDROOT
BRANCH   4   7
ATOM      7  O   UNL     1       9.855  -0.975  21.514  0.00  0.00    -0.507 OA
ATOM      8  H   UNL     1      10.264  -1.448  20.771  0.00  0.00    +0.292 HD
ENDBRANCH   4   7
BRANCH   1   9
ATOM      9  C   UNL     1       7.754  -4.837  25.086  0.00  0.00    +0.050 C 
BRANCH   9  10
ATOM     10  C   UNL     1       8.585  -4.916  26.371  0.00  0.00    +0.082 C 
BRANCH  10  11
ATOM     11  N   UNL     1       7.911  -5.721  27.390  0.00  0.00    -0.330 NA
ATOM     12  H   UNL     1       8.523  -5.833  28.197  0.00  0.00    +0.118 HD
ATOM     13  H   UNL     1       7.091  -5.215  27.725  0.00  0.00    +0.118 HD
ENDBRANCH  10  11
ENDBRANCH   9  10
ENDBRANCH   1   9
TORSDOF 4
ENDMDL
MODEL 6
REMARK VINA RESULT:      -4.2      3.918      5.208
REMARK  Name = 
REMARK  4 active torsions:
REMARK  status: ('A' for Active; 'I' for Inactive)
REMARK    1  A    between atoms: N_1  and  C_2
REMARK    2  A    between atoms: C_2  and  C_3
REMARK    3  A    between atoms: C_3  and  C_4
REMARK    4  A    between atoms: C_7  and  O_8
REMARK                            x       y       z     vdW  Elec       q    Type
REMARK                         _______ _______ _______ _____ _____    ______ ____
ROOT
ATOM      1  C   UNL     1       9.201   2.038  22.961  0.00  0.00    -0.046 A 
ATOM      2  C   UNL     1       8.991   1.359  21.754  0.00  0.00    +0.007 A 
ATOM      3  C   UNL     1       9.492   0.068  21.574  0.00  0.00    +0.045 A 
ATOM      4  C   UNL     1      10.205  -0.542  22.598  0.00  0.00    +0.117 A 
ATOM      5  C   UNL     1      10.421   0.113  23.806  0.00  0.00    +0.045 A 
ATOM      6  C   UNL     1       9.918   1.404  23.986  0.00  0.00    +0.007 A 
ENDROOT
BRANCH   4   7
ATOM      7  O   UNL     1      10.690  -1.797  22.374  0.00  0.00    -0.507 OA
ATOM      8  H   UNL     1      10.913  -2.198  23.230  0.00  0.00    +0.292 HD
ENDBRANCH   4   7
BRANCH   1   9
ATOM      9  C   UNL     1       8.692   3.449  23.143  0.00  0.00    +0.050 C 
BRANCH   9  10
ATOM     10  C   UNL     1       7.428   3.700  22.314  0.00  0.00    +0.082 C 
BRANCH  10  11
ATOM     11  N   UNL     1       7.369   5.085  21.844  0.00  0.00    -0.330 NA
ATOM     12  H   UNL     1       8.308   5.410  21.619  0.00  0.00    +0.118 HD
ATOM     13  H   UNL     1       6.841   5.119  20.973  0.00  0.00    +0.118 HD
ENDBRANCH  10  11
ENDBRANCH   9  10
ENDBRANCH   1   9
TORSDOF 4
ENDMDL
MODEL 7
REMARK VINA RESULT:      -4.2      3.993      5.836
REMARK  Name = 
REMARK  4 active torsions:
REMARK  status: ('A' for Active; 'I' for Inactive)
REMARK    1  A    between atoms: N_1  and  C_2
REMARK    2  A    between atoms: C_2  and  C_3
REMARK    3  A    between atoms: C_3  and  C_4
REMARK    4  A    between atoms: C_7  and  O_8
REMARK                            x       y       z     vdW  Elec       q    Type
REMARK                         _______ _______ _______ _____ _____    ______ ____
ROOT
ATOM      1  C   UNL     1       8.188  -3.705  24.114  0.00  0.00    -0.046 A 
ATOM      2  C   UNL     1       6.938  -4.153  24.561  0.00  0.00    +0.007 A 
ATOM      3  C   UNL     1       6.835  -4.906  25.733  0.00  0.00    +0.045 A 
ATOM      4  C   UNL     1       7.980  -5.217  26.453  0.00  0.00    +0.117 A 
ATOM      5  C   UNL     1       9.231  -4.779  26.030  0.00  0.00    +0.045 A 
ATOM      6  C   UNL     1       9.333  -4.024  24.859  0.00  0.00    +0.007 A 
ENDROOT
BRANCH   4   7
ATOM      7  O   UNL     1       7.836  -5.969  27.582  0.00  0.00    -0.507 OA
ATOM      8  H   UNL     1       6.960  -5.790  27.961  0.00  0.00    +0.292 HD
ENDBRANCH   4   7
BRANCH   1   9
ATOM      9  C   UNL     1       8.304  -2.923  22.828  0.00  0.00    +0.050 C 
BRANCH   9  10
ATOM     10  C   UNL     1       9.269  -1.741  22.975  0.00  0.00    +0.082 C 
BRANCH  10  11
ATOM     11  N   UNL     1      10.175  -1.651  21.830  0.00  0.00    -0.330 NA
ATOM     12  H   UNL     1       9.787  -1.013  21.136  0.00  0.00    +0.118 HD
ATOM     13  H   UNL     1      11.056  -1.236  22.134  0.00  0.00    +0.118 HD
ENDBRANCH  10  11
ENDBRANCH   9  10
ENDBRANCH   1   9
TORSDOF 4
ENDMDL
MODEL 8
REMARK VINA RESULT:      -4.2      3.555      4.942
REMARK  Name = 
REMARK  4 active torsions:
REMARK  status: ('A' for Active; 'I' for Inactive)
REMARK    1  A    between atoms: N_1  and  C_2
REMARK    2  A    between atoms: C_2  and  C_3
REMARK    3  A    between atoms: C_3  and  C_4
REMARK    4  A    between atoms: C_7  and  O_8
REMARK                            x       y       z     vdW  Elec       q    Type
REMARK                         _______ _______ _______ _____ _____    ______ ____
ROOT
ATOM      1  C   UNL     1       9.140  -1.548  22.384  0.00  0.00    -0.046 A 
ATOM      2  C   UNL     1       7.943  -2.252  22.197  0.00  0.00    +0.007 A 
ATOM      3  C   UNL     1       7.636  -3.348  23.005  0.00  0.00    +0.045 A 
ATOM      4  C   UNL     1       8.526  -3.745  23.994  0.00  0.00    +0.117 A 
ATOM      5  C   UNL     1       9.718  -3.058  24.199  0.00  0.00    +0.045 A 
ATOM      6  C   UNL     1      10.024  -1.960  23.392  0.00  0.00    +0.007 A 
ENDROOT
BRANCH   4   7
ATOM      7  O   UNL     1       8.194  -4.831  24.749  0.00  0.00    -0.507 OA
ATOM      8  H   UNL     1       7.561  -5.372  24.250  0.00  0.00    +0.292 HD
ENDBRANCH   4   7
BRANCH   1   9
ATOM      9  C   UNL     1       9.491  -0.385  21.486  0.00  0.00    +0.050 C 
BRANCH   9  10
ATOM     10  C   UNL     1      10.006   0.811  22.294  0.00  0.00    +0.082 C 
BRANCH  10  11
ATOM     11  N   UNL     1       9.804   2.066  21.569  0.00  0.00    -0.330 NA
ATOM     12  H   UNL     1      10.456   2.119  20.788  0.00  0.00    +0.118 HD
ATOM     13  H   UNL     1       8.870   2.068  21.159  0.00  0.00    +0.118 HD
ENDBRANCH  10  11
ENDBRANCH   9  10
ENDBRANCH   1   9
TORSDOF 4
ENDMDL
MODEL 9
REMARK VINA RESULT:      -4.1      3.554      4.896
REMARK  Name = 
REMARK  4 active torsions:
REMARK  status: ('A' for Active; 'I' for Inactive)
REMARK    1  A    between atoms: N_1  and  C_2
REMARK    2  A    between atoms: C_2  and  C_3
REMARK    3  A    between atoms: C_3  and  C_4
REMARK    4  A    between atoms: C_7  and  O_8
REMARK                            x       y       z     vdW  Elec       q    Type
REMARK                         _______ _______ _______ _____ _____    ______ ____
ROOT
ATOM      1  C   UNL     1       9.967   0.682  22.637  0.00  0.00    -0.046 A 
ATOM      2  C   UNL     1       9.796  -0.371  21.727  0.00  0.00    +0.007 A 
ATOM      3  C   UNL     1       9.741  -1.691  22.178  0.00  0.00    +0.045 A 
ATOM      4  C   UNL     1       9.864  -1.960  23.535  0.00  0.00    +0.117 A 
ATOM      5  C   UNL     1      10.031  -0.931  24.455  0.00  0.00    +0.045 A 
ATOM      6  C   UNL     1      10.083   0.390  24.004  0.00  0.00    +0.007 A 
ENDROOT
BRANCH   4   7
ATOM      7  O   UNL     1       9.821  -3.265  23.930  0.00  0.00    -0.507 OA
ATOM      8  H   UNL     1       9.084  -3.702  23.473  0.00  0.00    +0.292 HD
ENDBRANCH   4   7
BRANCH   1   9
ATOM      9  C   UNL     1      10.064   2.107  22.146  0.00  0.00    +0.050 C 
BRANCH   9  10
ATOM     10  C   UNL     1       9.699   3.106  23.249  0.00  0.00    +0.082 C 
BRANCH  10  11
ATOM     11  N   UNL     1       8.585   3.963  22.841  0.00  0.00    -0.330 NA
ATOM     12  H   UNL     1       8.599   4.082  21.829  0.00  0.00    +0.118 HD
ATOM     13  H   UNL     1       7.707   3.494  23.059  0.00  0.00    +0.118 HD
ENDBRANCH  10  11
ENDBRANCH   9  10
ENDBRANCH   1   9
TORSDOF 4
ENDMDL
