MODEL 1
REMARK VINA RESULT:      -4.8      0.000      0.000
REMARK  Name = 
REMARK  0 active torsions:
REMARK  status: ('A' for Active; 'I' for Inactive)
REMARK                            x       y       z     vdW  Elec       q    Type
REMARK                         _______ _______ _______ _____ _____    ______ ____
ROOT
ATOM      1  O   UNL     1      10.666   2.969  23.356  0.00  0.00    -0.265 OA
ATOM      2  C   UNL     1      10.203   2.033  22.733  0.00  0.00    +0.284 A 
ATOM      3  C   UNL     1      10.087   0.668  23.210  0.00  0.00    +0.062 A 
ATOM      4  C   UNL     1      10.450   0.069  24.507  0.00  0.00    +0.059 C 
ATOM      5  C   UNL     1       9.767  -1.311  24.645  0.00  0.00    +0.086 C 
ATOM      6  N   UNL     1       9.840  -2.110  23.407  0.00  0.00    -0.309 NA
ATOM      7  H   UNL     1       9.399  -3.016  23.557  0.00  0.00    +0.122 HD
ATOM      8  C   UNL     1       9.171  -1.436  22.274  0.00  0.00    +0.159 C 
ATOM      9  C   UNL     1       9.499   0.018  22.210  0.00  0.00    +0.155 A 
ATOM     10  O   UNL     1       9.205   0.765  21.086  0.00  0.00    -0.380 OA
ATOM     11  N   UNL     1       9.680   2.044  21.464  0.00  0.00    -0.184 N 
ATOM     12  H   UNL     1       9.583   2.838  20.852  0.00  0.00    +0.211 HD
ENDROOT
TORSDOF 0
ENDMDL
MODEL 2
REMARK VINA RESULT:      -4.6      1.858      3.239
REMARK  Name = 
REMARK  0 active torsions:
REMARK  status: ('A' for Active; 'I' for Inactive)
REMARK                            x       y       z     vdW  Elec       q    Type
REMARK                         _______ _______ _______ _____ _____    ______ ____
ROOT
ATOM      1  O   UNL     1      10.462  -2.573  23.372  0.00  0.00    -0.265 OA
ATOM      2  C   UNL     1      10.092  -1.622  22.710  0.00  0.00    +0.284 A 
ATOM      3  C   UNL     1      10.150  -0.231  23.114  0.00  0.00    +0.062 A 
ATOM      4  C   UNL     1      10.660   0.392  24.349  0.00  0.00    +0.059 C 
ATOM      5  C   UNL     1      10.855   1.908  24.117  0.00  0.00    +0.086 C 
ATOM      6  N   UNL     1       9.734   2.521  23.381  0.00  0.00    -0.309 NA
ATOM      7  H   UNL     1       9.898   3.521  23.277  0.00  0.00    +0.122 HD
ATOM      8  C   UNL     1       9.561   1.924  22.040  0.00  0.00    +0.159 C 
ATOM      9  C   UNL     1       9.674   0.437  22.066  0.00  0.00    +0.155 A 
ATOM     10  O   UNL     1       9.277  -0.326  20.986  0.00  0.00    -0.380 OA
ATOM     11  N   UNL     1       9.556  -1.635  21.446  0.00  0.00    -0.184 N 
ATOM     12  H   UNL     1       9.397  -2.439  20.860  0.00  0.00    +0.211 HD
ENDROOT
TORSDOF 0
ENDMDL
MODEL 3
REMARK VINA RESULT:      -4.6      4.440      6.106
REMARK  Name = 
REMARK  0 active torsions:
REMARK  status: ('A' for Active; 'I' for Inactive)
REMARK                            x       y       z     vdW  Elec       q    Type
REMARK                         _______ _______ _______ _____ _____    ______ ____
ROOT
ATOM      1  O   UNL     1       7.589  -5.871  26.649  0.00  0.00    -0.265 OA
ATOM      2  C   UNL     1       8.404  -5.314  25.939  0.00  0.00    +0.284 A 
ATOM      3  C   UNL     1       8.245  -4.011  25.323  0.00  0.00    +0.062 A 
ATOM      4  C   UNL     1       7.135  -3.043  25.395  0.00  0.00    +0.059 C 
ATOM      5  C   UNL     1       7.623  -1.664  24.892  0.00  0.00    +0.086 C 
ATOM      6  N   UNL     1       8.452  -1.761  23.676  0.00  0.00    -0.309 NA
ATOM      7  H   UNL     1       8.725  -0.828  23.373  0.00  0.00    +0.122 HD
ATOM      8  C   UNL     1       9.670  -2.567  23.901  0.00  0.00    +0.159 C 
ATOM      9  C   UNL     1       9.390  -3.808  24.678  0.00  0.00    +0.155 A 
ATOM     10  O   UNL     1      10.323  -4.823  24.759  0.00  0.00    -0.380 OA
ATOM     11  N   UNL     1       9.646  -5.766  25.569  0.00  0.00    -0.184 N 
ATOM     12  H   UNL     1      10.085  -6.631  25.841  0.00  0.00    +0.211 HD
ENDROOT
TORSDOF 0
ENDMDL
MODEL 4
REMARK VINA RESULT:      -4.5      6.051      7.059
REMARK  Name = 
REMARK  0 active torsions:
REMARK  status: ('A' for Active; 'I' for Inactive)
REMARK                            x       y       z     vdW  Elec       q    Type
REMARK                         _______ _______ _______ _____ _____    ______ ____
ROOT
ATOM      1  O   UNL     1      10.113  -4.933  24.943  0.00  0.00    -0.265 OA
ATOM      2  C   UNL     1       8.985  -5.171  25.332  0.00  0.00    +0.284 A 
ATOM      3  C   UNL     1       7.761  -4.901  24.603  0.00  0.00    +0.062 A 
ATOM      4  C   UNL     1       7.545  -4.322  23.265  0.00  0.00    +0.059 C 
ATOM      5  C   UNL     1       6.098  -4.614  22.805  0.00  0.00    +0.086 C 
ATOM      6  N   UNL     1       5.106  -4.407  23.877  0.00  0.00    -0.309 NA
ATOM      7  H   UNL     1       4.170  -4.587  23.518  0.00  0.00    +0.122 HD
ATOM      8  C   UNL     1       5.351  -5.291  25.036  0.00  0.00    +0.159 C 
ATOM      9  C   UNL     1       6.796  -5.356  25.400  0.00  0.00    +0.155 A 
ATOM     10  O   UNL     1       7.204  -5.897  26.603  0.00  0.00    -0.380 OA
ATOM     11  N   UNL     1       8.609  -5.750  26.518  0.00  0.00    -0.184 N 
ATOM     12  H   UNL     1       9.214  -6.084  27.251  0.00  0.00    +0.211 HD
ENDROOT
TORSDOF 0
ENDMDL
MODEL 5
REMARK VINA RESULT:      -4.4      5.895      7.474
REMARK  Name = 
REMARK  0 active torsions:
REMARK  status: ('A' for Active; 'I' for Inactive)
REMARK                            x       y       z     vdW  Elec       q    Type
REMARK                         _______ _______ _______ _____ _____    ______ ____
ROOT
ATOM      1  O   UNL     1       4.895  -5.876  24.869  0.00  0.00    -0.265 OA
ATOM      2  C   UNL     1       5.913  -5.786  25.529  0.00  0.00    +0.284 A 
ATOM      3  C   UNL     1       7.150  -5.160  25.102  0.00  0.00    +0.062 A 
ATOM      4  C   UNL     1       7.498  -4.478  23.841  0.00  0.00    +0.059 C 
ATOM      5  C   UNL     1       8.790  -3.654  24.043  0.00  0.00    +0.086 C 
ATOM      6  N   UNL     1       9.820  -4.384  24.806  0.00  0.00    -0.309 NA
ATOM      7  H   UNL     1      10.657  -3.810  24.889  0.00  0.00    +0.122 HD
ATOM      8  C   UNL     1       9.352  -4.746  26.161  0.00  0.00    +0.159 C 
ATOM      9  C   UNL     1       7.957  -5.272  26.153  0.00  0.00    +0.155 A 
ATOM     10  O   UNL     1       7.433  -5.916  27.257  0.00  0.00    -0.380 OA
ATOM     11  N   UNL     1       6.128  -6.232  26.808  0.00  0.00    -0.184 N 
ATOM     12  H   UNL     1       5.467  -6.695  27.412  0.00  0.00    +0.211 HD
ENDROOT
TORSDOF 0
ENDMDL
MODEL 6
REMARK VINA RESULT:      -4.3      6.071      6.971
REMARK  Name = 
REMARK  0 active torsions:
REMARK  status: ('A' for Active; 'I' for Inactive)
REMARK                            x       y       z     vdW  Elec       q    Type
REMARK                         _______ _______ _______ _____ _____    ______ ____
ROOT
ATOM      1  O   UNL     1       7.591  -5.632  27.519  0.00  0.00    -0.265 OA
ATOM      2  C   UNL     1       7.948  -5.460  26.369  0.00  0.00    +0.284 A 
ATOM      3  C   UNL     1       7.099  -5.048  25.268  0.00  0.00    +0.062 A 
ATOM      4  C   UNL     1       5.661  -4.720  25.233  0.00  0.00    +0.059 C 
ATOM      5  C   UNL     1       5.339  -3.968  23.921  0.00  0.00    +0.086 C 
ATOM      6  N   UNL     1       5.997  -4.564  22.744  0.00  0.00    -0.309 NA
ATOM      7  H   UNL     1       5.733  -4.049  21.906  0.00  0.00    +0.122 HD
ATOM      8  C   UNL     1       7.470  -4.550  22.869  0.00  0.00    +0.159 C 
ATOM      9  C   UNL     1       7.925  -4.960  24.229  0.00  0.00    +0.155 A 
ATOM     10  O   UNL     1       9.247  -5.275  24.473  0.00  0.00    -0.380 OA
ATOM     11  N   UNL     1       9.212  -5.595  25.852  0.00  0.00    -0.184 N 
ATOM     12  H   UNL     1      10.050  -5.848  26.349  0.00  0.00    +0.211 HD
ENDROOT
TORSDOF 0
ENDMDL
MODEL 7
REMARK VINA RESULT:      -4.3      2.310      3.011
REMARK  Name = 
REMARK  0 active torsions:
REMARK  status: ('A' for Active; 'I' for Inactive)
REMARK                            x       y       z     vdW  Elec       q    Type
REMARK                         _______ _______ _______ _____ _____    ______ ____
ROOT
ATOM      1  O   UNL     1       9.093  -0.741  26.473  0.00  0.00    -0.265 OA
ATOM      2  C   UNL     1       9.414  -0.208  25.428  0.00  0.00    +0.284 A 
ATOM      3  C   UNL     1       9.378  -0.823  24.115  0.00  0.00    +0.062 A 
ATOM      4  C   UNL     1       8.952  -2.170  23.694  0.00  0.00    +0.059 C 
ATOM      5  C   UNL     1       8.736  -2.186  22.163  0.00  0.00    +0.086 C 
ATOM      6  N   UNL     1       9.802  -1.479  21.430  0.00  0.00    -0.309 NA
ATOM      7  H   UNL     1       9.628  -1.540  20.428  0.00  0.00    +0.122 HD
ATOM      8  C   UNL     1       9.884  -0.053  21.814  0.00  0.00    +0.159 C 
ATOM      9  C   UNL     1       9.779   0.140  23.288  0.00  0.00    +0.155 A 
ATOM     10  O   UNL     1      10.103   1.349  23.873  0.00  0.00    -0.380 OA
ATOM     11  N   UNL     1       9.861   1.076  25.241  0.00  0.00    -0.184 N 
ATOM     12  H   UNL     1       9.983   1.787  25.943  0.00  0.00    +0.211 HD
ENDROOT
TORSDOF 0
ENDMDL
MODEL 8
REMARK VINA RESULT:      -4.3      1.969      3.401
REMARK  Name = 
REMARK  0 active torsions:
REMARK  status: ('A' for Active; 'I' for Inactive)
REMARK                            x       y       z     vdW  Elec       q    Type
REMARK                         _______ _______ _______ _____ _____    ______ ____
ROOT
ATOM      1  O   UNL     1       9.314  -0.511  26.257  0.00  0.00    -0.265 OA
ATOM      2  C   UNL     1       9.401  -0.630  25.050  0.00  0.00    +0.284 A 
ATOM      3  C   UNL     1       9.552   0.454  24.098  0.00  0.00    +0.062 A 
ATOM      4  C   UNL     1       9.659   1.910  24.307  0.00  0.00    +0.059 C 
ATOM      5  C   UNL     1      10.197   2.575  23.019  0.00  0.00    +0.086 C 
ATOM      6  N   UNL     1       9.569   2.041  21.796  0.00  0.00    -0.309 NA
ATOM      7  H   UNL     1       9.937   2.528  20.981  0.00  0.00    +0.122 HD
ATOM      8  C   UNL     1       9.814   0.592  21.638  0.00  0.00    +0.159 C 
ATOM      9  C   UNL     1       9.638  -0.153  22.917  0.00  0.00    +0.155 A 
ATOM     10  O   UNL     1       9.550  -1.531  22.933  0.00  0.00    -0.380 OA
ATOM     11  N   UNL     1       9.392  -1.789  24.316  0.00  0.00    -0.184 N 
ATOM     12  H   UNL     1       9.326  -2.731  24.666  0.00  0.00    +0.211 HD
ENDROOT
TORSDOF 0
ENDMDL
MODEL 9
REMARK VINA RESULT:      -4.3      2.272      3.612
REMARK  Name = 
REMARK  0 active torsions:
REMARK  status: ('A' for Active; 'I' for Inactive)
REMARK                            x       y       z     vdW  Elec       q    Type
REMARK                         _______ _______ _______ _____ _____    ______ ____
ROOT
ATOM      1  O   UNL     1       8.840  -0.818  25.800  0.00  0.00    -0.265 OA
ATOM      2  C   UNL     1       9.484  -0.082  25.078  0.00  0.00    +0.284 A 
ATOM      3  C   UNL     1       9.051   0.447  23.799  0.00  0.00    +0.062 A 
ATOM      4  C   UNL     1       7.783   0.275  23.067  0.00  0.00    +0.059 C 
ATOM      5  C   UNL     1       7.678   1.351  21.962  0.00  0.00    +0.086 C 
ATOM      6  N   UNL     1       8.943   1.541  21.228  0.00  0.00    -0.309 NA
ATOM      7  H   UNL     1       8.815   2.239  20.498  0.00  0.00    +0.122 HD
ATOM      8  C   UNL     1      10.038   1.979  22.120  0.00  0.00    +0.159 C 
ATOM      9  C   UNL     1      10.060   1.218  23.401  0.00  0.00    +0.155 A 
ATOM     10  O   UNL     1      11.151   1.277  24.246  0.00  0.00    -0.380 OA
ATOM     11  N   UNL     1      10.740   0.425  25.300  0.00  0.00    -0.184 N 
ATOM     12  H   UNL     1      11.323   0.277  26.107  0.00  0.00    +0.211 HD
ENDROOT
TORSDOF 0
ENDMDL
