MODEL 1
REMARK VINA RESULT:      -6.8      0.000      0.000
REMARK  Name = 
REMARK  3 active torsions:
REMARK  status: ('A' for Active; 'I' for Inactive)
REMARK    1  A    between atoms: N_3  and  C_4
REMARK    2  A    between atoms: C_4  and  C_5
REMARK    3  A    between atoms: C_5  and  C_6
REMARK                            x       y       z     vdW  Elec       q    Type
REMARK                         _______ _______ _______ _____ _____    ______ ____
ROOT
ATOM      1  O   UNL     1       6.206  -1.791  23.961  0.00  0.00    -0.270 OA
ATOM      2  C   UNL     1       7.321  -1.597  23.518  0.00  0.00    +0.254 C 
ATOM      3  C   UNL     1       7.738  -0.346  22.891  0.00  0.00    +0.049 A 
ATOM      4  C   UNL     1       9.062  -0.488  22.512  0.00  0.00    +0.049 A 
ATOM      5  C   UNL     1       9.756   0.539  21.901  0.00  0.00    +0.014 A 
ATOM      6  C   UNL     1       9.062   1.734  21.673  0.00  0.00    +0.001 A 
ATOM      7  C   UNL     1       7.712   1.872  22.055  0.00  0.00    +0.001 A 
ATOM      8  C   UNL     1       9.482  -1.841  22.887  0.00  0.00    +0.254 C 
ATOM      9  O   UNL     1      10.591  -2.299  22.688  0.00  0.00    -0.270 OA
ATOM     10  C   UNL     1       7.032   0.820  22.673  0.00  0.00    +0.014 A 
ATOM     11  N   UNL     1       8.405  -2.433  23.492  0.00  0.00    -0.234 N 
ENDROOT
BRANCH  11  12
ATOM     12  C   UNL     1       8.392  -3.798  24.003  0.00  0.00    +0.125 C 
BRANCH  12  13
ATOM     13  C   UNL     1       9.022  -3.900  25.394  0.00  0.00    +0.097 C 
BRANCH  13  14
ATOM     14  C   UNL     1       8.085  -4.462  26.397  0.00  0.00    +0.150 A 
ATOM     15  N   UNL     1       8.208  -5.711  26.936  0.00  0.00    -0.243 N 
ATOM     16  H   UNL     1       8.885  -6.440  26.754  0.00  0.00    +0.192 HD
ATOM     17  N   UNL     1       7.254  -5.907  27.855  0.00  0.00    -0.047 NA
ATOM     18  N   UNL     1       6.550  -4.785  27.868  0.00  0.00    -0.023 NA
ATOM     19  N   UNL     1       7.052  -3.877  26.966  0.00  0.00    -0.114 NA
ENDBRANCH  13  14
ENDBRANCH  12  13
ENDBRANCH  11  12
TORSDOF 3
ENDMDL
MODEL 2
REMARK VINA RESULT:      -6.7      0.212      2.071
REMARK  Name = 
REMARK  3 active torsions:
REMARK  status: ('A' for Active; 'I' for Inactive)
REMARK    1  A    between atoms: N_3  and  C_4
REMARK    2  A    between atoms: C_4  and  C_5
REMARK    3  A    between atoms: C_5  and  C_6
REMARK                            x       y       z     vdW  Elec       q    Type
REMARK                         _______ _______ _______ _____ _____    ______ ____
ROOT
ATOM      1  O   UNL     1      10.539  -2.112  22.462  0.00  0.00    -0.270 OA
ATOM      2  C   UNL     1       9.423  -1.707  22.720  0.00  0.00    +0.254 C 
ATOM      3  C   UNL     1       8.961  -0.355  22.420  0.00  0.00    +0.049 A 
ATOM      4  C   UNL     1       7.649  -0.254  22.851  0.00  0.00    +0.049 A 
ATOM      5  C   UNL     1       6.920   0.910  22.692  0.00  0.00    +0.014 A 
ATOM      6  C   UNL     1       7.566   1.991  22.080  0.00  0.00    +0.001 A 
ATOM      7  C   UNL     1       8.904   1.887  21.648  0.00  0.00    +0.001 A 
ATOM      8  C   UNL     1       7.282  -1.544  23.441  0.00  0.00    +0.254 C 
ATOM      9  O   UNL     1       6.196  -1.796  23.928  0.00  0.00    -0.270 OA
ATOM     10  C   UNL     1       9.620   0.699  21.818  0.00  0.00    +0.014 A 
ATOM     11  N   UNL     1       8.375  -2.360  23.313  0.00  0.00    -0.234 N 
ENDROOT
BRANCH  11  12
ATOM     12  C   UNL     1       8.439  -3.736  23.790  0.00  0.00    +0.125 C 
BRANCH  12  13
ATOM     13  C   UNL     1       9.112  -3.841  25.161  0.00  0.00    +0.097 C 
BRANCH  13  14
ATOM     14  C   UNL     1       8.203  -4.394  26.193  0.00  0.00    +0.150 A 
ATOM     15  N   UNL     1       8.345  -5.635  26.746  0.00  0.00    -0.243 N 
ATOM     16  H   UNL     1       9.022  -6.364  26.557  0.00  0.00    +0.192 HD
ATOM     17  N   UNL     1       7.416  -5.824  27.690  0.00  0.00    -0.047 NA
ATOM     18  N   UNL     1       6.706  -4.705  27.706  0.00  0.00    -0.023 NA
ATOM     19  N   UNL     1       7.181  -3.807  26.779  0.00  0.00    -0.114 NA
ENDBRANCH  13  14
ENDBRANCH  12  13
ENDBRANCH  11  12
TORSDOF 3
ENDMDL
MODEL 3
REMARK VINA RESULT:      -6.6      1.720      2.312
REMARK  Name = 
REMARK  3 active torsions:
REMARK  status: ('A' for Active; 'I' for Inactive)
REMARK    1  A    between atoms: N_3  and  C_4
REMARK    2  A    between atoms: C_4  and  C_5
REMARK    3  A    between atoms: C_5  and  C_6
REMARK                            x       y       z     vdW  Elec       q    Type
REMARK                         _______ _______ _______ _____ _____    ______ ____
ROOT
ATOM      1  O   UNL     1       9.893  -2.167  21.907  0.00  0.00    -0.270 OA
ATOM      2  C   UNL     1       9.714  -1.532  22.928  0.00  0.00    +0.254 C 
ATOM      3  C   UNL     1       9.708  -0.073  22.985  0.00  0.00    +0.049 A 
ATOM      4  C   UNL     1       9.476   0.294  24.299  0.00  0.00    +0.049 A 
ATOM      5  C   UNL     1       9.396   1.621  24.679  0.00  0.00    +0.014 A 
ATOM      6  C   UNL     1       9.565   2.585  23.677  0.00  0.00    +0.001 A 
ATOM      7  C   UNL     1       9.808   2.207  22.341  0.00  0.00    +0.001 A 
ATOM      8  C   UNL     1       9.349  -0.938  25.082  0.00  0.00    +0.254 C 
ATOM      9  O   UNL     1       9.150  -0.976  26.281  0.00  0.00    -0.270 OA
ATOM     10  C   UNL     1       9.883   0.859  21.981  0.00  0.00    +0.014 A 
ATOM     11  N   UNL     1       9.484  -1.979  24.201  0.00  0.00    -0.234 N 
ENDROOT
BRANCH  11  12
ATOM     12  C   UNL     1       9.439  -3.387  24.574  0.00  0.00    +0.125 C 
BRANCH  12  13
ATOM     13  C   UNL     1       8.062  -4.007  24.325  0.00  0.00    +0.097 C 
BRANCH  13  14
ATOM     14  C   UNL     1       7.602  -4.834  25.466  0.00  0.00    +0.150 A 
ATOM     15  N   UNL     1       8.350  -5.069  26.585  0.00  0.00    -0.243 N 
ATOM     16  H   UNL     1       9.289  -4.773  26.821  0.00  0.00    +0.192 HD
ATOM     17  N   UNL     1       7.645  -5.794  27.462  0.00  0.00    -0.047 NA
ATOM     18  N   UNL     1       6.476  -6.005  26.875  0.00  0.00    -0.023 NA
ATOM     19  N   UNL     1       6.434  -5.417  25.633  0.00  0.00    -0.114 NA
ENDBRANCH  13  14
ENDBRANCH  12  13
ENDBRANCH  11  12
TORSDOF 3
ENDMDL
MODEL 4
REMARK VINA RESULT:      -6.4      2.857      3.715
REMARK  Name = 
REMARK  3 active torsions:
REMARK  status: ('A' for Active; 'I' for Inactive)
REMARK    1  A    between atoms: N_3  and  C_4
REMARK    2  A    between atoms: C_4  and  C_5
REMARK    3  A    between atoms: C_5  and  C_6
REMARK                            x       y       z     vdW  Elec       q    Type
REMARK                         _______ _______ _______ _____ _____    ______ ____
ROOT
ATOM      1  O   UNL     1       9.172  -2.115  21.611  0.00  0.00    -0.270 OA
ATOM      2  C   UNL     1       9.230  -1.528  22.673  0.00  0.00    +0.254 C 
ATOM      3  C   UNL     1       9.569  -0.114  22.802  0.00  0.00    +0.049 A 
ATOM      4  C   UNL     1       9.536   0.205  24.148  0.00  0.00    +0.049 A 
ATOM      5  C   UNL     1       9.799   1.486  24.598  0.00  0.00    +0.014 A 
ATOM      6  C   UNL     1      10.106   2.452  23.632  0.00  0.00    +0.001 A 
ATOM      7  C   UNL     1      10.146   2.122  22.262  0.00  0.00    +0.001 A 
ATOM      8  C   UNL     1       9.188  -1.017  24.879  0.00  0.00    +0.254 C 
ATOM      9  O   UNL     1       9.084  -1.091  26.088  0.00  0.00    -0.270 OA
ATOM     10  C   UNL     1       9.874   0.821  21.832  0.00  0.00    +0.014 A 
ATOM     11  N   UNL     1       9.006  -1.997  23.940  0.00  0.00    -0.234 N 
ENDROOT
BRANCH  11  12
ATOM     12  C   UNL     1       8.663  -3.381  24.247  0.00  0.00    +0.125 C 
BRANCH  12  13
ATOM     13  C   UNL     1       7.151  -3.595  24.336  0.00  0.00    +0.097 C 
BRANCH  13  14
ATOM     14  C   UNL     1       6.557  -3.977  23.033  0.00  0.00    +0.150 A 
ATOM     15  N   UNL     1       6.029  -3.082  22.146  0.00  0.00    -0.243 N 
ATOM     16  H   UNL     1       5.925  -2.077  22.212  0.00  0.00    +0.192 HD
ATOM     17  N   UNL     1       5.631  -3.717  21.038  0.00  0.00    -0.047 NA
ATOM     18  N   UNL     1       5.909  -4.995  21.253  0.00  0.00    -0.023 NA
ATOM     19  N   UNL     1       6.484  -5.173  22.489  0.00  0.00    -0.114 NA
ENDBRANCH  13  14
ENDBRANCH  12  13
ENDBRANCH  11  12
TORSDOF 3
ENDMDL
MODEL 5
REMARK VINA RESULT:      -6.4      2.870      3.498
REMARK  Name = 
REMARK  3 active torsions:
REMARK  status: ('A' for Active; 'I' for Inactive)
REMARK    1  A    between atoms: N_3  and  C_4
REMARK    2  A    between atoms: C_4  and  C_5
REMARK    3  A    between atoms: C_5  and  C_6
REMARK                            x       y       z     vdW  Elec       q    Type
REMARK                         _______ _______ _______ _____ _____    ______ ____
ROOT
ATOM      1  O   UNL     1       9.068  -1.122  26.091  0.00  0.00    -0.270 OA
ATOM      2  C   UNL     1       9.220  -1.039  24.888  0.00  0.00    +0.254 C 
ATOM      3  C   UNL     1       9.531   0.207  24.193  0.00  0.00    +0.049 A 
ATOM      4  C   UNL     1       9.632  -0.080  22.843  0.00  0.00    +0.049 A 
ATOM      5  C   UNL     1       9.936   0.898  21.913  0.00  0.00    +0.014 A 
ATOM      6  C   UNL     1      10.134   2.198  22.394  0.00  0.00    +0.001 A 
ATOM      7  C   UNL     1      10.023   2.487  23.770  0.00  0.00    +0.001 A 
ATOM      8  C   UNL     1       9.369  -1.513  22.679  0.00  0.00    +0.254 C 
ATOM      9  O   UNL     1       9.369  -2.096  21.611  0.00  0.00    -0.270 OA
ATOM     10  C   UNL     1       9.717   1.481  24.690  0.00  0.00    +0.014 A 
ATOM     11  N   UNL     1       9.150  -2.018  23.933  0.00  0.00    -0.234 N 
ENDROOT
BRANCH  11  12
ATOM     12  C   UNL     1       8.834  -3.412  24.217  0.00  0.00    +0.125 C 
BRANCH  12  13
ATOM     13  C   UNL     1       7.329  -3.643  24.370  0.00  0.00    +0.097 C 
BRANCH  13  14
ATOM     14  C   UNL     1       6.677  -3.977  23.081  0.00  0.00    +0.150 A 
ATOM     15  N   UNL     1       6.021  -3.066  22.302  0.00  0.00    -0.243 N 
ATOM     16  H   UNL     1       5.846  -2.080  22.452  0.00  0.00    +0.192 HD
ATOM     17  N   UNL     1       5.596  -3.650  21.176  0.00  0.00    -0.047 NA
ATOM     18  N   UNL     1       5.985  -4.913  21.273  0.00  0.00    -0.023 NA
ATOM     19  N   UNL     1       6.656  -5.133  22.452  0.00  0.00    -0.114 NA
ENDBRANCH  13  14
ENDBRANCH  12  13
ENDBRANCH  11  12
TORSDOF 3
ENDMDL
MODEL 6
REMARK VINA RESULT:      -6.3      2.486      2.966
REMARK  Name = 
REMARK  3 active torsions:
REMARK  status: ('A' for Active; 'I' for Inactive)
REMARK    1  A    between atoms: N_3  and  C_4
REMARK    2  A    between atoms: C_4  and  C_5
REMARK    3  A    between atoms: C_5  and  C_6
REMARK                            x       y       z     vdW  Elec       q    Type
REMARK                         _______ _______ _______ _____ _____    ______ ____
ROOT
ATOM      1  O   UNL     1       6.047  -1.367  23.458  0.00  0.00    -0.270 OA
ATOM      2  C   UNL     1       7.240  -1.327  23.226  0.00  0.00    +0.254 C 
ATOM      3  C   UNL     1       7.933  -0.134  22.746  0.00  0.00    +0.049 A 
ATOM      4  C   UNL     1       9.270  -0.458  22.597  0.00  0.00    +0.049 A 
ATOM      5  C   UNL     1      10.199   0.472  22.168  0.00  0.00    +0.014 A 
ATOM      6  C   UNL     1       9.730   1.760  21.883  0.00  0.00    +0.001 A 
ATOM      7  C   UNL     1       8.365   2.084  22.029  0.00  0.00    +0.001 A 
ATOM      8  C   UNL     1       9.424  -1.867  22.971  0.00  0.00    +0.254 C 
ATOM      9  O   UNL     1      10.476  -2.476  22.945  0.00  0.00    -0.270 OA
ATOM     10  C   UNL     1       7.446   1.127  22.466  0.00  0.00    +0.014 A 
ATOM     11  N   UNL     1       8.184  -2.310  23.349  0.00  0.00    -0.234 N 
ENDROOT
BRANCH  11  12
ATOM     12  C   UNL     1       7.891  -3.671  23.781  0.00  0.00    +0.125 C 
BRANCH  12  13
ATOM     13  C   UNL     1       7.421  -4.556  22.623  0.00  0.00    +0.097 C 
BRANCH  13  14
ATOM     14  C   UNL     1       5.984  -4.905  22.728  0.00  0.00    +0.150 A 
ATOM     15  N   UNL     1       5.020  -4.037  23.156  0.00  0.00    -0.243 N 
ATOM     16  H   UNL     1       5.095  -3.081  23.480  0.00  0.00    +0.192 HD
ATOM     17  N   UNL     1       3.817  -4.618  23.081  0.00  0.00    -0.047 NA
ATOM     18  N   UNL     1       4.049  -5.838  22.618  0.00  0.00    -0.023 NA
ATOM     19  N   UNL     1       5.392  -6.032  22.395  0.00  0.00    -0.114 NA
ENDBRANCH  13  14
ENDBRANCH  12  13
ENDBRANCH  11  12
TORSDOF 3
ENDMDL
MODEL 7
REMARK VINA RESULT:      -6.2      2.102      2.752
REMARK  Name = 
REMARK  3 active torsions:
REMARK  status: ('A' for Active; 'I' for Inactive)
REMARK    1  A    between atoms: N_3  and  C_4
REMARK    2  A    between atoms: C_4  and  C_5
REMARK    3  A    between atoms: C_5  and  C_6
REMARK                            x       y       z     vdW  Elec       q    Type
REMARK                         _______ _______ _______ _____ _____    ______ ____
ROOT
ATOM      1  O   UNL     1       9.011  -1.069  26.817  0.00  0.00    -0.270 OA
ATOM      2  C   UNL     1       8.712  -1.582  25.756  0.00  0.00    +0.254 C 
ATOM      3  C   UNL     1       9.221  -1.129  24.464  0.00  0.00    +0.049 A 
ATOM      4  C   UNL     1       8.671  -1.943  23.489  0.00  0.00    +0.049 A 
ATOM      5  C   UNL     1       8.974  -1.777  22.150  0.00  0.00    +0.014 A 
ATOM      6  C   UNL     1       9.859  -0.744  21.817  0.00  0.00    +0.001 A 
ATOM      7  C   UNL     1      10.410   0.087  22.813  0.00  0.00    +0.001 A 
ATOM      8  C   UNL     1       7.799  -2.908  24.164  0.00  0.00    +0.254 C 
ATOM      9  O   UNL     1       7.151  -3.767  23.597  0.00  0.00    -0.270 OA
ATOM     10  C   UNL     1      10.091  -0.101  24.160  0.00  0.00    +0.014 A 
ATOM     11  N   UNL     1       7.886  -2.645  25.506  0.00  0.00    -0.234 N 
ENDROOT
BRANCH  11  12
ATOM     12  C   UNL     1       7.156  -3.369  26.538  0.00  0.00    +0.125 C 
BRANCH  12  13
ATOM     13  C   UNL     1       7.832  -4.692  26.904  0.00  0.00    +0.097 C 
BRANCH  13  14
ATOM     14  C   UNL     1       6.870  -5.691  27.428  0.00  0.00    +0.150 A 
ATOM     15  N   UNL     1       5.881  -6.260  26.678  0.00  0.00    -0.243 N 
ATOM     16  H   UNL     1       5.619  -6.105  25.712  0.00  0.00    +0.192 HD
ATOM     17  N   UNL     1       5.219  -7.166  27.407  0.00  0.00    -0.047 NA
ATOM     18  N   UNL     1       5.799  -7.142  28.598  0.00  0.00    -0.023 NA
ATOM     19  N   UNL     1       6.826  -6.229  28.628  0.00  0.00    -0.114 NA
ENDBRANCH  13  14
ENDBRANCH  12  13
ENDBRANCH  11  12
TORSDOF 3
ENDMDL
MODEL 8
REMARK VINA RESULT:      -6.2      2.788      6.207
REMARK  Name = 
REMARK  3 active torsions:
REMARK  status: ('A' for Active; 'I' for Inactive)
REMARK    1  A    between atoms: N_3  and  C_4
REMARK    2  A    between atoms: C_4  and  C_5
REMARK    3  A    between atoms: C_5  and  C_6
REMARK                            x       y       z     vdW  Elec       q    Type
REMARK                         _______ _______ _______ _____ _____    ______ ____
ROOT
ATOM      1  O   UNL     1       7.622  -3.589  22.247  0.00  0.00    -0.270 OA
ATOM      2  C   UNL     1       7.680  -3.940  23.409  0.00  0.00    +0.254 C 
ATOM      3  C   UNL     1       6.673  -4.777  24.055  0.00  0.00    +0.049 A 
ATOM      4  C   UNL     1       7.069  -4.972  25.368  0.00  0.00    +0.049 A 
ATOM      5  C   UNL     1       6.325  -5.742  26.243  0.00  0.00    +0.014 A 
ATOM      6  C   UNL     1       5.147  -6.316  25.749  0.00  0.00    +0.001 A 
ATOM      7  C   UNL     1       4.744  -6.109  24.414  0.00  0.00    +0.001 A 
ATOM      8  C   UNL     1       8.326  -4.244  25.558  0.00  0.00    +0.254 C 
ATOM      9  O   UNL     1       8.944  -4.197  26.605  0.00  0.00    -0.270 OA
ATOM     10  C   UNL     1       5.513  -5.328  23.548  0.00  0.00    +0.014 A 
ATOM     11  N   UNL     1       8.635  -3.671  24.353  0.00  0.00    -0.234 N 
ENDROOT
BRANCH  11  12
ATOM     12  C   UNL     1       9.807  -2.839  24.111  0.00  0.00    +0.125 C 
BRANCH  12  13
ATOM     13  C   UNL     1       9.552  -1.369  24.453  0.00  0.00    +0.097 C 
BRANCH  13  14
ATOM     14  C   UNL     1       9.648  -0.490  23.263  0.00  0.00    +0.150 A 
ATOM     15  N   UNL     1       9.070  -0.775  22.058  0.00  0.00    -0.243 N 
ATOM     16  H   UNL     1       8.536  -1.582  21.762  0.00  0.00    +0.192 HD
ATOM     17  N   UNL     1       9.276   0.233  21.203  0.00  0.00    -0.047 NA
ATOM     18  N   UNL     1       9.982   1.125  21.883  0.00  0.00    -0.023 NA
ATOM     19  N   UNL     1      10.223   0.690  23.164  0.00  0.00    -0.114 NA
ENDBRANCH  13  14
ENDBRANCH  12  13
ENDBRANCH  11  12
TORSDOF 3
ENDMDL
MODEL 9
REMARK VINA RESULT:      -6.0      3.646      6.418
REMARK  Name = 
REMARK  3 active torsions:
REMARK  status: ('A' for Active; 'I' for Inactive)
REMARK    1  A    between atoms: N_3  and  C_4
REMARK    2  A    between atoms: C_4  and  C_5
REMARK    3  A    between atoms: C_5  and  C_6
REMARK                            x       y       z     vdW  Elec       q    Type
REMARK                         _______ _______ _______ _____ _____    ______ ____
ROOT
ATOM      1  O   UNL     1       8.691   1.051  25.099  0.00  0.00    -0.270 OA
ATOM      2  C   UNL     1       9.082   0.043  24.545  0.00  0.00    +0.254 C 
ATOM      3  C   UNL     1       8.937  -1.298  25.103  0.00  0.00    +0.049 A 
ATOM      4  C   UNL     1       9.492  -2.190  24.202  0.00  0.00    +0.049 A 
ATOM      5  C   UNL     1       9.497  -3.553  24.438  0.00  0.00    +0.014 A 
ATOM      6  C   UNL     1       8.919  -3.997  25.633  0.00  0.00    +0.001 A 
ATOM      7  C   UNL     1       8.361  -3.085  26.552  0.00  0.00    +0.001 A 
ATOM      8  C   UNL     1      10.005  -1.409  23.073  0.00  0.00    +0.254 C 
ATOM      9  O   UNL     1      10.566  -1.884  22.104  0.00  0.00    -0.270 OA
ATOM     10  C   UNL     1       8.367  -1.713  26.290  0.00  0.00    +0.014 A 
ATOM     11  N   UNL     1       9.712  -0.098  23.337  0.00  0.00    -0.234 N 
ENDROOT
BRANCH  11  12
ATOM     12  C   UNL     1      10.066   1.019  22.469  0.00  0.00    +0.125 C 
BRANCH  12  13
ATOM     13  C   UNL     1       8.902   1.444  21.571  0.00  0.00    +0.097 C 
BRANCH  13  14
ATOM     14  C   UNL     1       8.198   2.640  22.090  0.00  0.00    +0.150 A 
ATOM     15  N   UNL     1       8.759   3.539  22.953  0.00  0.00    -0.243 N 
ATOM     16  H   UNL     1       9.674   3.548  23.387  0.00  0.00    +0.192 HD
ATOM     17  N   UNL     1       7.905   4.541  23.189  0.00  0.00    -0.047 NA
ATOM     18  N   UNL     1       6.824   4.249  22.479  0.00  0.00    -0.023 NA
ATOM     19  N   UNL     1       6.990   3.070  21.792  0.00  0.00    -0.114 NA
ENDBRANCH  13  14
ENDBRANCH  12  13
ENDBRANCH  11  12
TORSDOF 3
ENDMDL
