MODEL 1
REMARK VINA RESULT:      -7.7      0.000      0.000
REMARK  Name = 
REMARK  11 active torsions:
REMARK  status: ('A' for Active; 'I' for Inactive)
REMARK    1  A    between atoms: CA_2  and  C_3
REMARK    2  A    between atoms: CA_2  and  C_5
REMARK    3  A    between atoms: CA_2  and  N_7
REMARK    4  A    between atoms: C_3  and  C_4
REMARK    5  A    between atoms: C_5  and  O_6
REMARK    6  A    between atoms: C_8  and  C_10
REMARK    7  A    between atoms: C_10  and  C_11
REMARK    8  A    between atoms: C_12  and  C_13
REMARK    9  A    between atoms: C_15  and  C_17
REMARK   10  A    between atoms: C_27  and  O_28
REMARK   11  A    between atoms: O_28  and  C_29
REMARK                            x       y       z     vdW  Elec       q    Type
REMARK                         _______ _______ _______ _____ _____    ______ ____
ROOT
ATOM      1  C   UNL     1       9.206   0.581  23.641  0.00  0.00    -0.010 A 
ATOM      2  C   UNL     1       8.408   0.653  24.819  0.00  0.00    +0.008 A 
ATOM      3  C   UNL     1       8.260  -0.643  25.318  0.00  0.00    +0.057 A 
ATOM      4  C   UNL     1       7.546  -0.859  26.515  0.00  0.00    +0.030 A 
ATOM      5  C   UNL     1       6.925   0.219  27.157  0.00  0.00    +0.048 A 
ATOM      6  C   UNL     1       7.051   1.510  26.666  0.00  0.00    +0.121 A 
ATOM      7  N   UNL     1       8.956  -1.518  24.466  0.00  0.00    -0.280 N 
ATOM      8  C   UNL     1       9.042  -2.934  24.587  0.00  0.00    +0.263 C 
ATOM      9  O   UNL     1      10.013  -3.504  24.094  0.00  0.00    -0.267 OA
ATOM     10  C   UNL     1       7.800   1.729  25.506  0.00  0.00    +0.056 A 
ATOM     11  C   UNL     1       9.557  -0.749  23.463  0.00  0.00    +0.028 A 
ATOM     12  C   UNL     1      10.376  -1.357  22.368  0.00  0.00    +0.064 C 
ENDROOT
BRANCH   8  13
ATOM     13  C   UNL     1       8.030  -3.780  25.259  0.00  0.00    +0.040 A 
ATOM     14  C   UNL     1       6.784  -3.976  24.656  0.00  0.00    +0.015 A 
ATOM     15  C   UNL     1       5.864  -4.850  25.239  0.00  0.00    +0.021 A 
ATOM     16  C   UNL     1       6.189  -5.509  26.425  0.00  0.00    +0.041 A 
ATOM     17 CL   UNL     1       5.092  -6.648  27.101  0.00  0.00    -0.084 Cl
ATOM     18  C   UNL     1       7.406  -5.265  27.062  0.00  0.00    +0.021 A 
ATOM     19  C   UNL     1       8.321  -4.380  26.491  0.00  0.00    +0.015 A 
ENDBRANCH   8  13
BRANCH   6  20
ATOM     20  O   UNL     1       6.511   2.638  27.218  0.00  0.00    -0.495 OA
ATOM     21  C   UNL     1       7.058   3.882  26.799  0.00  0.00    +0.277 C 
ENDBRANCH   6  20
BRANCH   1  22
ATOM     22  C   UNL     1       9.594   1.740  22.772  0.00  0.00    +0.133 C 
BRANCH  22  25
ATOM     23  N   UNL     1      10.719   3.893  23.044  0.00  0.00    -0.310 N 
ATOM     24  H   UNL     1      10.141   4.203  22.272  0.00  0.00    +0.149 HD
ATOM     25  C   UNL     1      10.726   2.557  23.376  0.00  0.00    +0.218 C 
ATOM     26  O   UNL     1      11.551   2.067  24.147  0.00  0.00    -0.275 OA
BRANCH  23  27
ATOM     27  CA  UNL     1      11.699   4.833  23.583  0.00  0.00    +0.098 C 
BRANCH  27  28
ATOM     28  C   UNL     1      11.003   6.113  24.074  0.00  0.00    +0.021 C 
ATOM     29  C   UNL     1       9.555   6.216  23.607  0.00  0.00    +0.006 C 
ENDBRANCH  27  28
BRANCH  27  30
ATOM     30  C   UNL     1      12.785   5.147  22.537  0.00  0.00    +0.178 C 
BRANCH  30  31
ATOM     31  O   UNL     1      14.092   5.104  23.116  0.00  0.00    -0.393 OA
ATOM     32  H   UNL     1      14.717   5.215  22.380  0.00  0.00    +0.209 HD
ENDBRANCH  30  31
ENDBRANCH  27  30
ENDBRANCH  23  27
ENDBRANCH  22  25
ENDBRANCH   1  22
TORSDOF 8
ENDMDL
MODEL 2
REMARK VINA RESULT:      -7.6      1.475      1.551
REMARK  Name = 
REMARK  11 active torsions:
REMARK  status: ('A' for Active; 'I' for Inactive)
REMARK    1  A    between atoms: CA_2  and  C_3
REMARK    2  A    between atoms: CA_2  and  C_5
REMARK    3  A    between atoms: CA_2  and  N_7
REMARK    4  A    between atoms: C_3  and  C_4
REMARK    5  A    between atoms: C_5  and  O_6
REMARK    6  A    between atoms: C_8  and  C_10
REMARK    7  A    between atoms: C_10  and  C_11
REMARK    8  A    between atoms: C_12  and  C_13
REMARK    9  A    between atoms: C_15  and  C_17
REMARK   10  A    between atoms: C_27  and  O_28
REMARK   11  A    between atoms: O_28  and  C_29
REMARK                            x       y       z     vdW  Elec       q    Type
REMARK                         _______ _______ _______ _____ _____    ______ ____
ROOT
ATOM      1  C   UNL     1       8.967   0.459  22.973  0.00  0.00    -0.010 A 
ATOM      2  C   UNL     1       7.740   0.480  23.696  0.00  0.00    +0.008 A 
ATOM      3  C   UNL     1       7.502  -0.811  24.175  0.00  0.00    +0.057 A 
ATOM      4  C   UNL     1       6.366  -1.067  24.971  0.00  0.00    +0.030 A 
ATOM      5  C   UNL     1       5.443  -0.044  25.215  0.00  0.00    +0.048 A 
ATOM      6  C   UNL     1       5.658   1.239  24.734  0.00  0.00    +0.121 A 
ATOM      7  N   UNL     1       8.566  -1.630  23.760  0.00  0.00    -0.280 N 
ATOM      8  C   UNL     1       8.709  -3.026  24.004  0.00  0.00    +0.263 C 
ATOM      9  O   UNL     1       9.842  -3.504  24.008  0.00  0.00    -0.267 OA
ATOM     10  C   UNL     1       6.810   1.504  23.986  0.00  0.00    +0.056 A 
ATOM     11  C   UNL     1       9.470  -0.831  23.053  0.00  0.00    +0.028 A 
ATOM     12  C   UNL     1      10.726  -1.380  22.451  0.00  0.00    +0.064 C 
ENDROOT
BRANCH   8  13
ATOM     13  C   UNL     1       7.582  -3.956  24.245  0.00  0.00    +0.040 A 
ATOM     14  C   UNL     1       6.735  -4.300  23.186  0.00  0.00    +0.015 A 
ATOM     15  C   UNL     1       5.731  -5.250  23.387  0.00  0.00    +0.021 A 
ATOM     16  C   UNL     1       5.571  -5.836  24.643  0.00  0.00    +0.041 A 
ATOM     17 CL   UNL     1       4.391  -7.065  24.872  0.00  0.00    -0.084 Cl
ATOM     18  C   UNL     1       6.374  -5.445  25.715  0.00  0.00    +0.021 A 
ATOM     19  C   UNL     1       7.368  -4.485  25.523  0.00  0.00    +0.015 A 
ENDBRANCH   8  13
BRANCH   6  20
ATOM     20  O   UNL     1       4.842   2.319  24.926  0.00  0.00    -0.495 OA
ATOM     21  C   UNL     1       4.458   3.047  23.765  0.00  0.00    +0.277 C 
ENDBRANCH   6  20
BRANCH   1  22
ATOM     22  C   UNL     1       9.590   1.627  22.269  0.00  0.00    +0.133 C 
BRANCH  22  25
ATOM     23  N   UNL     1      10.927   3.632  22.689  0.00  0.00    -0.310 N 
ATOM     24  H   UNL     1      10.769   3.845  21.711  0.00  0.00    +0.149 HD
ATOM     25  C   UNL     1      10.537   2.403  23.173  0.00  0.00    +0.218 C 
ATOM     26  O   UNL     1      10.882   1.983  24.277  0.00  0.00    -0.275 OA
BRANCH  23  27
ATOM     27  CA  UNL     1      11.787   4.532  23.453  0.00  0.00    +0.098 C 
BRANCH  27  28
ATOM     28  C   UNL     1      10.948   5.620  24.143  0.00  0.00    +0.021 C 
ATOM     29  C   UNL     1       9.758   6.072  23.303  0.00  0.00    +0.006 C 
ENDBRANCH  27  28
BRANCH  27  30
ATOM     30  C   UNL     1      12.874   5.144  22.550  0.00  0.00    +0.178 C 
BRANCH  30  31
ATOM     31  O   UNL     1      14.162   5.073  23.167  0.00  0.00    -0.393 OA
ATOM     32  H   UNL     1      14.799   5.374  22.498  0.00  0.00    +0.209 HD
ENDBRANCH  30  31
ENDBRANCH  27  30
ENDBRANCH  23  27
ENDBRANCH  22  25
ENDBRANCH   1  22
TORSDOF 8
ENDMDL
MODEL 3
REMARK VINA RESULT:      -7.2      3.795      8.028
REMARK  Name = 
REMARK  11 active torsions:
REMARK  status: ('A' for Active; 'I' for Inactive)
REMARK    1  A    between atoms: CA_2  and  C_3
REMARK    2  A    between atoms: CA_2  and  C_5
REMARK    3  A    between atoms: CA_2  and  N_7
REMARK    4  A    between atoms: C_3  and  C_4
REMARK    5  A    between atoms: C_5  and  O_6
REMARK    6  A    between atoms: C_8  and  C_10
REMARK    7  A    between atoms: C_10  and  C_11
REMARK    8  A    between atoms: C_12  and  C_13
REMARK    9  A    between atoms: C_15  and  C_17
REMARK   10  A    between atoms: C_27  and  O_28
REMARK   11  A    between atoms: O_28  and  C_29
REMARK                            x       y       z     vdW  Elec       q    Type
REMARK                         _______ _______ _______ _____ _____    ______ ____
ROOT
ATOM      1  C   UNL     1       7.368  -3.597  25.836  0.00  0.00    -0.010 A 
ATOM      2  C   UNL     1       6.688  -2.355  25.685  0.00  0.00    +0.008 A 
ATOM      3  C   UNL     1       7.461  -1.542  24.852  0.00  0.00    +0.057 A 
ATOM      4  C   UNL     1       6.997  -0.259  24.496  0.00  0.00    +0.030 A 
ATOM      5  C   UNL     1       5.799   0.223  25.037  0.00  0.00    +0.048 A 
ATOM      6  C   UNL     1       5.029  -0.567  25.876  0.00  0.00    +0.121 A 
ATOM      7  N   UNL     1       8.610  -2.263  24.486  0.00  0.00    -0.280 N 
ATOM      8  C   UNL     1       9.681  -1.800  23.670  0.00  0.00    +0.263 C 
ATOM      9  O   UNL     1      10.354  -2.631  23.062  0.00  0.00    -0.267 OA
ATOM     10  C   UNL     1       5.465  -1.858  26.191  0.00  0.00    +0.056 A 
ATOM     11  C   UNL     1       8.522  -3.531  25.070  0.00  0.00    +0.028 A 
ATOM     12  C   UNL     1       9.587  -4.570  24.898  0.00  0.00    +0.064 C 
ENDROOT
BRANCH   8  13
ATOM     13  C   UNL     1      10.056  -0.377  23.507  0.00  0.00    +0.040 A 
ATOM     14  C   UNL     1       9.824   0.262  22.285  0.00  0.00    +0.015 A 
ATOM     15  C   UNL     1      10.087   1.628  22.160  0.00  0.00    +0.021 A 
ATOM     16  C   UNL     1      10.592   2.340  23.248  0.00  0.00    +0.041 A 
ATOM     17 CL   UNL     1      10.839   4.037  23.122  0.00  0.00    -0.084 Cl
ATOM     18  C   UNL     1      10.884   1.690  24.447  0.00  0.00    +0.021 A 
ATOM     19  C   UNL     1      10.638   0.322  24.572  0.00  0.00    +0.015 A 
ENDBRANCH   8  13
BRANCH   6  20
ATOM     20  O   UNL     1       3.836  -0.214  26.444  0.00  0.00    -0.495 OA
ATOM     21  C   UNL     1       3.105  -1.248  27.093  0.00  0.00    +0.277 C 
ENDBRANCH   6  20
BRANCH   1  22
ATOM     22  C   UNL     1       6.904  -4.756  26.668  0.00  0.00    +0.133 C 
BRANCH  22  25
ATOM     23  N   UNL     1       5.999  -5.479  24.515  0.00  0.00    -0.310 N 
ATOM     24  H   UNL     1       6.302  -4.575  24.173  0.00  0.00    +0.149 HD
ATOM     25  C   UNL     1       6.058  -5.734  25.867  0.00  0.00    +0.218 C 
ATOM     26  O   UNL     1       5.515  -6.710  26.384  0.00  0.00    -0.275 OA
BRANCH  23  27
ATOM     27  CA  UNL     1       5.279  -6.351  23.590  0.00  0.00    +0.098 C 
BRANCH  27  28
ATOM     28  C   UNL     1       6.016  -6.431  22.242  0.00  0.00    +0.021 C 
ATOM     29  C   UNL     1       7.177  -5.447  22.144  0.00  0.00    +0.006 C 
ENDBRANCH  27  28
BRANCH  27  30
ATOM     30  C   UNL     1       3.825  -5.876  23.411  0.00  0.00    +0.178 C 
BRANCH  30  31
ATOM     31  O   UNL     1       3.774  -4.529  22.933  0.00  0.00    -0.393 OA
ATOM     32  H   UNL     1       4.499  -4.058  23.376  0.00  0.00    +0.209 HD
ENDBRANCH  30  31
ENDBRANCH  27  30
ENDBRANCH  23  27
ENDBRANCH  22  25
ENDBRANCH   1  22
TORSDOF 8
ENDMDL
MODEL 4
REMARK VINA RESULT:      -7.1      1.833      2.362
REMARK  Name = 
REMARK  11 active torsions:
REMARK  status: ('A' for Active; 'I' for Inactive)
REMARK    1  A    between atoms: CA_2  and  C_3
REMARK    2  A    between atoms: CA_2  and  C_5
REMARK    3  A    between atoms: CA_2  and  N_7
REMARK    4  A    between atoms: C_3  and  C_4
REMARK    5  A    between atoms: C_5  and  O_6
REMARK    6  A    between atoms: C_8  and  C_10
REMARK    7  A    between atoms: C_10  and  C_11
REMARK    8  A    between atoms: C_12  and  C_13
REMARK    9  A    between atoms: C_15  and  C_17
REMARK   10  A    between atoms: C_27  and  O_28
REMARK   11  A    between atoms: O_28  and  C_29
REMARK                            x       y       z     vdW  Elec       q    Type
REMARK                         _______ _______ _______ _____ _____    ______ ____
ROOT
ATOM      1  C   UNL     1       8.475   0.353  22.896  0.00  0.00    -0.010 A 
ATOM      2  C   UNL     1       7.368   0.298  23.791  0.00  0.00    +0.008 A 
ATOM      3  C   UNL     1       7.378  -0.953  24.411  0.00  0.00    +0.057 A 
ATOM      4  C   UNL     1       6.408  -1.263  25.386  0.00  0.00    +0.030 A 
ATOM      5  C   UNL     1       5.395  -0.341  25.676  0.00  0.00    +0.048 A 
ATOM      6  C   UNL     1       5.364   0.900  25.058  0.00  0.00    +0.121 A 
ATOM      7  N   UNL     1       8.477  -1.675  23.914  0.00  0.00    -0.280 N 
ATOM      8  C   UNL     1       8.844  -3.008  24.254  0.00  0.00    +0.263 C 
ATOM      9  O   UNL     1      10.021  -3.340  24.129  0.00  0.00    -0.267 OA
ATOM     10  C   UNL     1       6.354   1.225  24.126  0.00  0.00    +0.056 A 
ATOM     11  C   UNL     1       9.157  -0.849  23.012  0.00  0.00    +0.028 A 
ATOM     12  C   UNL     1      10.382  -1.299  22.278  0.00  0.00    +0.064 C 
ENDROOT
BRANCH   8  13
ATOM     13  C   UNL     1       7.899  -4.039  24.740  0.00  0.00    +0.040 A 
ATOM     14  C   UNL     1       7.984  -4.481  26.064  0.00  0.00    +0.015 A 
ATOM     15  C   UNL     1       7.033  -5.381  26.553  0.00  0.00    +0.021 A 
ATOM     16  C   UNL     1       6.019  -5.843  25.714  0.00  0.00    +0.041 A 
ATOM     17 CL   UNL     1       4.801  -6.886  26.335  0.00  0.00    -0.084 Cl
ATOM     18  C   UNL     1       5.973  -5.452  24.376  0.00  0.00    +0.021 A 
ATOM     19  C   UNL     1       6.929  -4.566  23.879  0.00  0.00    +0.015 A 
ENDBRANCH   8  13
BRANCH   6  20
ATOM     20  O   UNL     1       4.441   1.885  25.276  0.00  0.00    -0.495 OA
ATOM     21  C   UNL     1       3.704   1.815  26.492  0.00  0.00    +0.277 C 
ENDBRANCH   6  20
BRANCH   1  22
ATOM     22  C   UNL     1       8.830   1.508  22.008  0.00  0.00    +0.133 C 
BRANCH  22  25
ATOM     23  N   UNL     1       8.700   3.773  22.921  0.00  0.00    -0.310 N 
ATOM     24  H   UNL     1       7.878   3.876  22.337  0.00  0.00    +0.149 HD
ATOM     25  C   UNL     1       9.480   2.647  22.780  0.00  0.00    +0.218 C 
ATOM     26  O   UNL     1      10.598   2.543  23.285  0.00  0.00    -0.275 OA
BRANCH  23  27
ATOM     27  CA  UNL     1       9.146   4.937  23.682  0.00  0.00    +0.098 C 
BRANCH  27  28
ATOM     28  C   UNL     1       8.638   4.859  25.131  0.00  0.00    +0.021 C 
ATOM     29  C   UNL     1       7.128   4.661  25.219  0.00  0.00    +0.006 C 
ENDBRANCH  27  28
BRANCH  27  30
ATOM     30  C   UNL     1       8.699   6.242  22.996  0.00  0.00    +0.178 C 
BRANCH  30  31
ATOM     31  O   UNL     1       8.026   5.976  21.763  0.00  0.00    -0.393 OA
ATOM     32  H   UNL     1       7.316   5.346  21.974  0.00  0.00    +0.209 HD
ENDBRANCH  30  31
ENDBRANCH  27  30
ENDBRANCH  23  27
ENDBRANCH  22  25
ENDBRANCH   1  22
TORSDOF 8
ENDMDL
MODEL 5
REMARK VINA RESULT:      -6.8      3.616      7.919
REMARK  Name = 
REMARK  11 active torsions:
REMARK  status: ('A' for Active; 'I' for Inactive)
REMARK    1  A    between atoms: CA_2  and  C_3
REMARK    2  A    between atoms: CA_2  and  C_5
REMARK    3  A    between atoms: CA_2  and  N_7
REMARK    4  A    between atoms: C_3  and  C_4
REMARK    5  A    between atoms: C_5  and  O_6
REMARK    6  A    between atoms: C_8  and  C_10
REMARK    7  A    between atoms: C_10  and  C_11
REMARK    8  A    between atoms: C_12  and  C_13
REMARK    9  A    between atoms: C_15  and  C_17
REMARK   10  A    between atoms: C_27  and  O_28
REMARK   11  A    between atoms: O_28  and  C_29
REMARK                            x       y       z     vdW  Elec       q    Type
REMARK                         _______ _______ _______ _____ _____    ______ ____
ROOT
ATOM      1  C   UNL     1       8.595  -2.178  24.703  0.00  0.00    -0.010 A 
ATOM      2  C   UNL     1       7.509  -1.382  25.168  0.00  0.00    +0.008 A 
ATOM      3  C   UNL     1       7.484  -0.207  24.412  0.00  0.00    +0.057 A 
ATOM      4  C   UNL     1       6.473   0.750  24.634  0.00  0.00    +0.030 A 
ATOM      5  C   UNL     1       5.543   0.553  25.661  0.00  0.00    +0.048 A 
ATOM      6  C   UNL     1       5.564  -0.601  26.429  0.00  0.00    +0.121 A 
ATOM      7  N   UNL     1       8.538  -0.266  23.485  0.00  0.00    -0.280 N 
ATOM      8  C   UNL     1       8.896   0.737  22.539  0.00  0.00    +0.263 C 
ATOM      9  O   UNL     1       9.495   0.393  21.522  0.00  0.00    -0.267 OA
ATOM     10  C   UNL     1       6.537  -1.573  26.176  0.00  0.00    +0.056 A 
ATOM     11  C   UNL     1       9.189  -1.492  23.654  0.00  0.00    +0.028 A 
ATOM     12  C   UNL     1      10.376  -1.892  22.834  0.00  0.00    +0.064 C 
ENDROOT
BRANCH   8  13
ATOM     13  C   UNL     1       8.606   2.181  22.698  0.00  0.00    +0.040 A 
ATOM     14  C   UNL     1       7.527   2.746  22.012  0.00  0.00    +0.015 A 
ATOM     15  C   UNL     1       7.193   4.084  22.235  0.00  0.00    +0.021 A 
ATOM     16  C   UNL     1       7.947   4.848  23.127  0.00  0.00    +0.041 A 
ATOM     17 CL   UNL     1       7.488   6.471  23.465  0.00  0.00    -0.084 Cl
ATOM     18  C   UNL     1       9.062   4.302  23.761  0.00  0.00    +0.021 A 
ATOM     19  C   UNL     1       9.409   2.971  23.529  0.00  0.00    +0.015 A 
ENDBRANCH   8  13
BRANCH   6  20
ATOM     20  O   UNL     1       4.697  -0.912  27.440  0.00  0.00    -0.495 OA
ATOM     21  C   UNL     1       4.504  -2.294  27.717  0.00  0.00    +0.277 C 
ENDBRANCH   6  20
BRANCH   1  22
ATOM     22  C   UNL     1       9.001  -3.514  25.252  0.00  0.00    +0.133 C 
BRANCH  22  25
ATOM     23  N   UNL     1       7.079  -4.505  24.111  0.00  0.00    -0.310 N 
ATOM     24  H   UNL     1       6.534  -3.787  24.575  0.00  0.00    +0.149 HD
ATOM     25  C   UNL     1       8.402  -4.666  24.459  0.00  0.00    +0.218 C 
ATOM     26  O   UNL     1       9.068  -5.640  24.110  0.00  0.00    -0.275 OA
BRANCH  23  27
ATOM     27  CA  UNL     1       6.363  -5.488  23.301  0.00  0.00    +0.098 C 
BRANCH  27  28
ATOM     28  C   UNL     1       6.043  -4.909  21.913  0.00  0.00    +0.021 C 
ATOM     29  C   UNL     1       6.174  -3.391  21.860  0.00  0.00    +0.006 C 
ENDBRANCH  27  28
BRANCH  27  30
ATOM     30  C   UNL     1       5.088  -5.965  24.022  0.00  0.00    +0.178 C 
BRANCH  30  31
ATOM     31  O   UNL     1       4.812  -7.338  23.735  0.00  0.00    -0.393 OA
ATOM     32  H   UNL     1       5.308  -7.550  22.927  0.00  0.00    +0.209 HD
ENDBRANCH  30  31
ENDBRANCH  27  30
ENDBRANCH  23  27
ENDBRANCH  22  25
ENDBRANCH   1  22
TORSDOF 8
ENDMDL
MODEL 6
REMARK VINA RESULT:      -6.5      3.981      8.650
REMARK  Name = 
REMARK  11 active torsions:
REMARK  status: ('A' for Active; 'I' for Inactive)
REMARK    1  A    between atoms: CA_2  and  C_3
REMARK    2  A    between atoms: CA_2  and  C_5
REMARK    3  A    between atoms: CA_2  and  N_7
REMARK    4  A    between atoms: C_3  and  C_4
REMARK    5  A    between atoms: C_5  and  O_6
REMARK    6  A    between atoms: C_8  and  C_10
REMARK    7  A    between atoms: C_10  and  C_11
REMARK    8  A    between atoms: C_12  and  C_13
REMARK    9  A    between atoms: C_15  and  C_17
REMARK   10  A    between atoms: C_27  and  O_28
REMARK   11  A    between atoms: O_28  and  C_29
REMARK                            x       y       z     vdW  Elec       q    Type
REMARK                         _______ _______ _______ _____ _____    ______ ____
ROOT
ATOM      1  C   UNL     1       7.352  -4.018  26.457  0.00  0.00    -0.010 A 
ATOM      2  C   UNL     1       6.618  -2.831  26.174  0.00  0.00    +0.008 A 
ATOM      3  C   UNL     1       7.364  -2.069  25.272  0.00  0.00    +0.057 A 
ATOM      4  C   UNL     1       6.848  -0.852  24.783  0.00  0.00    +0.030 A 
ATOM      5  C   UNL     1       5.621  -0.375  25.261  0.00  0.00    +0.048 A 
ATOM      6  C   UNL     1       4.875  -1.113  26.167  0.00  0.00    +0.121 A 
ATOM      7  N   UNL     1       8.550  -2.769  24.991  0.00  0.00    -0.280 N 
ATOM      8  C   UNL     1       9.611  -2.340  24.143  0.00  0.00    +0.263 C 
ATOM      9  O   UNL     1      10.330  -3.195  23.629  0.00  0.00    -0.267 OA
ATOM     10  C   UNL     1       5.366  -2.344  26.615  0.00  0.00    +0.056 A 
ATOM     11  C   UNL     1       8.513  -3.975  25.700  0.00  0.00    +0.028 A 
ATOM     12  C   UNL     1       9.626  -4.974  25.644  0.00  0.00    +0.064 C 
ENDROOT
BRANCH   8  13
ATOM     13  C   UNL     1       9.923  -0.924  23.842  0.00  0.00    +0.040 A 
ATOM     14  C   UNL     1       9.777  -0.450  22.534  0.00  0.00    +0.015 A 
ATOM     15  C   UNL     1       9.977   0.906  22.266  0.00  0.00    +0.021 A 
ATOM     16  C   UNL     1      10.334   1.773  23.300  0.00  0.00    +0.041 A 
ATOM     17 CL   UNL     1      10.500   3.456  22.989  0.00  0.00    -0.084 Cl
ATOM     18  C   UNL     1      10.542   1.288  24.591  0.00  0.00    +0.021 A 
ATOM     19  C   UNL     1      10.360  -0.069  24.861  0.00  0.00    +0.015 A 
ENDBRANCH   8  13
BRANCH   6  20
ATOM     20  O   UNL     1       3.659  -0.762  26.685  0.00  0.00    -0.495 OA
ATOM     21  C   UNL     1       3.553  -0.726  28.103  0.00  0.00    +0.277 C 
ENDBRANCH   6  20
BRANCH   1  22
ATOM     22  C   UNL     1       6.929  -5.108  27.397  0.00  0.00    +0.133 C 
BRANCH  22  25
ATOM     23  N   UNL     1       4.564  -5.687  27.620  0.00  0.00    -0.310 N 
ATOM     24  H   UNL     1       4.632  -5.277  28.545  0.00  0.00    +0.149 HD
ATOM     25  C   UNL     1       5.714  -5.867  26.885  0.00  0.00    +0.218 C 
ATOM     26  O   UNL     1       5.748  -6.546  25.859  0.00  0.00    -0.275 OA
BRANCH  23  27
ATOM     27  CA  UNL     1       3.292  -6.294  27.236  0.00  0.00    +0.098 C 
BRANCH  27  28
ATOM     28  C   UNL     1       2.363  -5.245  26.606  0.00  0.00    +0.021 C 
ATOM     29  C   UNL     1       2.041  -4.094  27.553  0.00  0.00    +0.006 C 
ENDBRANCH  27  28
BRANCH  27  30
ATOM     30  C   UNL     1       2.630  -6.982  28.445  0.00  0.00    +0.178 C 
BRANCH  30  31
ATOM     31  O   UNL     1       3.597  -7.654  29.255  0.00  0.00    -0.393 OA
ATOM     32  H   UNL     1       3.227  -7.680  30.153  0.00  0.00    +0.209 HD
ENDBRANCH  30  31
ENDBRANCH  27  30
ENDBRANCH  23  27
ENDBRANCH  22  25
ENDBRANCH   1  22
TORSDOF 8
ENDMDL
MODEL 7
REMARK VINA RESULT:      -6.5      4.033      9.103
REMARK  Name = 
REMARK  11 active torsions:
REMARK  status: ('A' for Active; 'I' for Inactive)
REMARK    1  A    between atoms: CA_2  and  C_3
REMARK    2  A    between atoms: CA_2  and  C_5
REMARK    3  A    between atoms: CA_2  and  N_7
REMARK    4  A    between atoms: C_3  and  C_4
REMARK    5  A    between atoms: C_5  and  O_6
REMARK    6  A    between atoms: C_8  and  C_10
REMARK    7  A    between atoms: C_10  and  C_11
REMARK    8  A    between atoms: C_12  and  C_13
REMARK    9  A    between atoms: C_15  and  C_17
REMARK   10  A    between atoms: C_27  and  O_28
REMARK   11  A    between atoms: O_28  and  C_29
REMARK                            x       y       z     vdW  Elec       q    Type
REMARK                         _______ _______ _______ _____ _____    ______ ____
ROOT
ATOM      1  C   UNL     1       4.534  -2.248  25.620  0.00  0.00    -0.010 A 
ATOM      2  C   UNL     1       5.303  -2.471  24.443  0.00  0.00    +0.008 A 
ATOM      3  C   UNL     1       6.493  -1.749  24.565  0.00  0.00    +0.057 A 
ATOM      4  C   UNL     1       7.469  -1.825  23.550  0.00  0.00    +0.030 A 
ATOM      5  C   UNL     1       7.210  -2.565  22.391  0.00  0.00    +0.048 A 
ATOM      6  C   UNL     1       6.028  -3.276  22.249  0.00  0.00    +0.121 A 
ATOM      7  N   UNL     1       6.471  -1.083  25.802  0.00  0.00    -0.280 N 
ATOM      8  C   UNL     1       7.472  -0.210  26.317  0.00  0.00    +0.263 C 
ATOM      9  O   UNL     1       7.560  -0.077  27.536  0.00  0.00    -0.267 OA
ATOM     10  C   UNL     1       5.081  -3.239  23.277  0.00  0.00    +0.056 A 
ATOM     11  C   UNL     1       5.279  -1.425  26.450  0.00  0.00    +0.028 A 
ATOM     12  C   UNL     1       4.915  -0.885  27.798  0.00  0.00    +0.064 C 
ENDROOT
BRANCH   8  13
ATOM     13  C   UNL     1       8.416   0.567  25.482  0.00  0.00    +0.040 A 
ATOM     14  C   UNL     1       7.989   1.756  24.883  0.00  0.00    +0.015 A 
ATOM     15  C   UNL     1       8.904   2.540  24.175  0.00  0.00    +0.021 A 
ATOM     16  C   UNL     1      10.230   2.123  24.059  0.00  0.00    +0.041 A 
ATOM     17 CL   UNL     1      11.376   3.126  23.259  0.00  0.00    -0.084 Cl
ATOM     18  C   UNL     1      10.641   0.906  24.601  0.00  0.00    +0.021 A 
ATOM     19  C   UNL     1       9.727   0.112  25.295  0.00  0.00    +0.015 A 
ENDBRANCH   8  13
BRANCH   6  20
ATOM     20  O   UNL     1       5.677  -4.049  21.177  0.00  0.00    -0.495 OA
ATOM     21  C   UNL     1       6.228  -5.359  21.123  0.00  0.00    +0.277 C 
ENDBRANCH   6  20
BRANCH   1  22
ATOM     22  C   UNL     1       3.173  -2.816  25.899  0.00  0.00    +0.133 C 
BRANCH  22  25
ATOM     23  N   UNL     1       3.586  -5.224  25.817  0.00  0.00    -0.310 N 
ATOM     24  H   UNL     1       3.538  -5.118  24.810  0.00  0.00    +0.149 HD
ATOM     25  C   UNL     1       3.247  -4.156  26.616  0.00  0.00    +0.218 C 
ATOM     26  O   UNL     1       3.070  -4.262  27.829  0.00  0.00    -0.275 OA
BRANCH  23  27
ATOM     27  CA  UNL     1       3.758  -6.572  26.352  0.00  0.00    +0.098 C 
BRANCH  27  28
ATOM     28  C   UNL     1       5.213  -6.793  26.797  0.00  0.00    +0.021 C 
ATOM     29  C   UNL     1       6.168  -5.742  26.240  0.00  0.00    +0.006 C 
ENDBRANCH  27  28
BRANCH  27  30
ATOM     30  C   UNL     1       3.315  -7.629  25.322  0.00  0.00    +0.178 C 
BRANCH  30  31
ATOM     31  O   UNL     1       4.129  -7.582  24.148  0.00  0.00    -0.393 OA
ATOM     32  H   UNL     1       4.596  -6.730  24.176  0.00  0.00    +0.209 HD
ENDBRANCH  30  31
ENDBRANCH  27  30
ENDBRANCH  23  27
ENDBRANCH  22  25
ENDBRANCH   1  22
TORSDOF 8
ENDMDL
MODEL 8
REMARK VINA RESULT:      -6.4      2.094      2.809
REMARK  Name = 
REMARK  11 active torsions:
REMARK  status: ('A' for Active; 'I' for Inactive)
REMARK    1  A    between atoms: CA_2  and  C_3
REMARK    2  A    between atoms: CA_2  and  C_5
REMARK    3  A    between atoms: CA_2  and  N_7
REMARK    4  A    between atoms: C_3  and  C_4
REMARK    5  A    between atoms: C_5  and  O_6
REMARK    6  A    between atoms: C_8  and  C_10
REMARK    7  A    between atoms: C_10  and  C_11
REMARK    8  A    between atoms: C_12  and  C_13
REMARK    9  A    between atoms: C_15  and  C_17
REMARK   10  A    between atoms: C_27  and  O_28
REMARK   11  A    between atoms: O_28  and  C_29
REMARK                            x       y       z     vdW  Elec       q    Type
REMARK                         _______ _______ _______ _____ _____    ______ ____
ROOT
ATOM      1  C   UNL     1       9.113   0.708  24.177  0.00  0.00    -0.010 A 
ATOM      2  C   UNL     1       8.287   0.655  25.336  0.00  0.00    +0.008 A 
ATOM      3  C   UNL     1       8.136  -0.686  25.695  0.00  0.00    +0.057 A 
ATOM      4  C   UNL     1       7.395  -1.028  26.845  0.00  0.00    +0.030 A 
ATOM      5  C   UNL     1       6.752  -0.025  27.580  0.00  0.00    +0.048 A 
ATOM      6  C   UNL     1       6.881   1.310  27.228  0.00  0.00    +0.121 A 
ATOM      7  N   UNL     1       8.857  -1.466  24.774  0.00  0.00    -0.280 N 
ATOM      8  C   UNL     1       8.949  -2.887  24.750  0.00  0.00    +0.263 C 
ATOM      9  O   UNL     1       9.935  -3.399  24.224  0.00  0.00    -0.267 OA
ATOM     10  C   UNL     1       7.656   1.652  26.116  0.00  0.00    +0.056 A 
ATOM     11  C   UNL     1       9.476  -0.595  23.870  0.00  0.00    +0.028 A 
ATOM     12  C   UNL     1      10.325  -1.084  22.738  0.00  0.00    +0.064 C 
ENDROOT
BRANCH   8  13
ATOM     13  C   UNL     1       7.927  -3.802  25.307  0.00  0.00    +0.040 A 
ATOM     14  C   UNL     1       6.707  -3.958  24.642  0.00  0.00    +0.015 A 
ATOM     15  C   UNL     1       5.780  -4.893  25.112  0.00  0.00    +0.021 A 
ATOM     16  C   UNL     1       6.073  -5.651  26.246  0.00  0.00    +0.041 A 
ATOM     17 CL   UNL     1       4.971  -6.859  26.777  0.00  0.00    -0.084 Cl
ATOM     18  C   UNL     1       7.263  -5.449  26.946  0.00  0.00    +0.021 A 
ATOM     19  C   UNL     1       8.184  -4.505  26.491  0.00  0.00    +0.015 A 
ENDBRANCH   8  13
BRANCH   6  20
ATOM     20  O   UNL     1       6.320   2.373  27.881  0.00  0.00    -0.495 OA
ATOM     21  C   UNL     1       6.895   3.651  27.636  0.00  0.00    +0.277 C 
ENDBRANCH   6  20
BRANCH   1  22
ATOM     22  C   UNL     1       9.513   1.952  23.441  0.00  0.00    +0.133 C 
BRANCH  22  25
ATOM     23  N   UNL     1       7.672   3.505  23.020  0.00  0.00    -0.310 N 
ATOM     24  H   UNL     1       7.734   3.722  24.008  0.00  0.00    +0.149 HD
ATOM     25  C   UNL     1       8.411   2.455  22.521  0.00  0.00    +0.218 C 
ATOM     26  O   UNL     1       8.233   1.991  21.395  0.00  0.00    -0.275 OA
BRANCH  23  27
ATOM     27  CA  UNL     1       6.613   4.147  22.245  0.00  0.00    +0.098 C 
BRANCH  27  28
ATOM     28  C   UNL     1       6.574   5.656  22.537  0.00  0.00    +0.021 C 
ATOM     29  C   UNL     1       7.962   6.286  22.585  0.00  0.00    +0.006 C 
ENDBRANCH  27  28
BRANCH  27  30
ATOM     30  C   UNL     1       5.252   3.482  22.526  0.00  0.00    +0.178 C 
BRANCH  30  31
ATOM     31  O   UNL     1       5.408   2.099  22.852  0.00  0.00    -0.393 OA
ATOM     32  H   UNL     1       6.187   1.791  22.359  0.00  0.00    +0.209 HD
ENDBRANCH  30  31
ENDBRANCH  27  30
ENDBRANCH  23  27
ENDBRANCH  22  25
ENDBRANCH   1  22
TORSDOF 8
ENDMDL
MODEL 9
REMARK VINA RESULT:      -6.4      3.059      5.595
REMARK  Name = 
REMARK  11 active torsions:
REMARK  status: ('A' for Active; 'I' for Inactive)
REMARK    1  A    between atoms: CA_2  and  C_3
REMARK    2  A    between atoms: CA_2  and  C_5
REMARK    3  A    between atoms: CA_2  and  N_7
REMARK    4  A    between atoms: C_3  and  C_4
REMARK    5  A    between atoms: C_5  and  O_6
REMARK    6  A    between atoms: C_8  and  C_10
REMARK    7  A    between atoms: C_10  and  C_11
REMARK    8  A    between atoms: C_12  and  C_13
REMARK    9  A    between atoms: C_15  and  C_17
REMARK   10  A    between atoms: C_27  and  O_28
REMARK   11  A    between atoms: O_28  and  C_29
REMARK                            x       y       z     vdW  Elec       q    Type
REMARK                         _______ _______ _______ _____ _____    ______ ____
ROOT
ATOM      1  C   UNL     1       8.397  -2.598  24.764  0.00  0.00    -0.010 A 
ATOM      2  C   UNL     1       7.534  -3.618  24.272  0.00  0.00    +0.008 A 
ATOM      3  C   UNL     1       6.394  -3.643  25.079  0.00  0.00    +0.057 A 
ATOM      4  C   UNL     1       5.344  -4.538  24.787  0.00  0.00    +0.030 A 
ATOM      5  C   UNL     1       5.482  -5.449  23.733  0.00  0.00    +0.048 A 
ATOM      6  C   UNL     1       6.613  -5.447  22.932  0.00  0.00    +0.121 A 
ATOM      7  N   UNL     1       6.539  -2.651  26.064  0.00  0.00    -0.280 N 
ATOM      8  C   UNL     1       5.622  -2.353  27.113  0.00  0.00    +0.263 C 
ATOM      9  O   UNL     1       5.630  -1.220  27.590  0.00  0.00    -0.267 OA
ATOM     10  C   UNL     1       7.633  -4.526  23.192  0.00  0.00    +0.056 A 
ATOM     11  C   UNL     1       7.756  -1.999  25.838  0.00  0.00    +0.028 A 
ATOM     12  C   UNL     1       8.243  -0.884  26.709  0.00  0.00    +0.064 C 
ENDROOT
BRANCH   8  13
ATOM     13  C   UNL     1       4.660  -3.322  27.685  0.00  0.00    +0.040 A 
ATOM     14  C   UNL     1       3.292  -3.155  27.450  0.00  0.00    +0.015 A 
ATOM     15  C   UNL     1       2.390  -4.119  27.906  0.00  0.00    +0.021 A 
ATOM     16  C   UNL     1       2.860  -5.233  28.605  0.00  0.00    +0.041 A 
ATOM     17 CL   UNL     1       1.762  -6.462  29.095  0.00  0.00    -0.084 Cl
ATOM     18  C   UNL     1       4.217  -5.367  28.895  0.00  0.00    +0.021 A 
ATOM     19  C   UNL     1       5.120  -4.398  28.455  0.00  0.00    +0.015 A 
ENDBRANCH   8  13
BRANCH   6  20
ATOM     20  O   UNL     1       6.847  -6.271  21.866  0.00  0.00    -0.495 OA
ATOM     21  C   UNL     1       6.194  -5.942  20.646  0.00  0.00    +0.277 C 
ENDBRANCH   6  20
BRANCH   1  22
ATOM     22  C   UNL     1       9.744  -2.244  24.207  0.00  0.00    +0.133 C 
BRANCH  22  25
ATOM     23  N   UNL     1       8.999  -0.183  23.123  0.00  0.00    -0.310 N 
ATOM     24  H   UNL     1       8.451  -0.033  23.962  0.00  0.00    +0.149 HD
ATOM     25  C   UNL     1       9.639  -1.390  22.952  0.00  0.00    +0.218 C 
ATOM     26  O   UNL     1      10.139  -1.733  21.881  0.00  0.00    -0.275 OA
BRANCH  23  27
ATOM     27  CA  UNL     1       8.861   0.785  22.037  0.00  0.00    +0.098 C 
BRANCH  27  28
ATOM     28  C   UNL     1      10.029   1.785  22.057  0.00  0.00    +0.021 C 
ATOM     29  C   UNL     1      10.391   2.244  23.465  0.00  0.00    +0.006 C 
ENDBRANCH  27  28
BRANCH  27  30
ATOM     30  C   UNL     1       7.501   1.503  22.116  0.00  0.00    +0.178 C 
BRANCH  30  31
ATOM     31  O   UNL     1       6.488   0.640  22.637  0.00  0.00    -0.393 OA
ATOM     32  H   UNL     1       6.204   1.034  23.479  0.00  0.00    +0.209 HD
ENDBRANCH  30  31
ENDBRANCH  27  30
ENDBRANCH  23  27
ENDBRANCH  22  25
ENDBRANCH   1  22
TORSDOF 8
ENDMDL
