MODEL 1
REMARK VINA RESULT:      -5.3      0.000      0.000
REMARK  Name = 
REMARK  7 active torsions:
REMARK  status: ('A' for Active; 'I' for Inactive)
REMARK    1  A    between atoms: C_1  and  C_2
REMARK    2  A    between atoms: N_4  and  C_5
REMARK    3  A    between atoms: C_7  and  O_9
REMARK    4  A    between atoms: C_11  and  C_13
REMARK    5  A    between atoms: C_13  and  O_14
REMARK    6  A    between atoms: C_15  and  O_17
REMARK    7  A    between atoms: C_18  and  O_20
REMARK                            x       y       z     vdW  Elec       q    Type
REMARK                         _______ _______ _______ _____ _____    ______ ____
ROOT
ATOM      1  C   UNL     1       9.697  -2.138  23.695  0.00  0.00    +0.160 C 
ATOM      2  C   UNL     1      10.009  -0.829  24.442  0.00  0.00    +0.171 C 
ATOM      3  C   UNL     1       8.770   0.074  24.458  0.00  0.00    +0.176 C 
ATOM      4  C   UNL     1       8.221   0.321  23.040  0.00  0.00    +0.178 C 
ATOM      5  O   UNL     1       8.066  -0.899  22.294  0.00  0.00    -0.341 OA
ATOM      6  C   UNL     1       9.199  -1.773  22.269  0.00  0.00    +0.270 C 
ENDROOT
BRANCH   1   9
ATOM      7  C   UNL     1       7.862  -4.910  25.560  0.00  0.00    +0.109 C 
ATOM      8  C   UNL     1       9.022  -4.224  24.889  0.00  0.00    +0.210 C 
ATOM      9  N   UNL     1       8.715  -2.975  24.403  0.00  0.00    -0.305 N 
ATOM     10  H   UNL     1       7.736  -2.717  24.340  0.00  0.00    +0.149 HD
ATOM     11  O   UNL     1      10.130  -4.736  24.801  0.00  0.00    -0.276 OA
ENDBRANCH   1   9
BRANCH   2  12
ATOM     12  O   UNL     1      11.099  -0.145  23.796  0.00  0.00    -0.387 OA
ATOM     13  H   UNL     1      11.240  -0.642  22.962  0.00  0.00    +0.210 HD
ENDBRANCH   2  12
BRANCH   3  14
ATOM     14  O   UNL     1       9.093   1.294  25.130  0.00  0.00    -0.387 OA
ATOM     15  H   UNL     1       8.822   1.193  26.061  0.00  0.00    +0.210 HD
ENDBRANCH   3  14
BRANCH   6  16
ATOM     16  O   UNL     1      10.224  -1.262  21.430  0.00  0.00    -0.365 OA
ATOM     17  H   UNL     1      10.972  -1.894  21.479  0.00  0.00    +0.213 HD
ENDBRANCH   6  16
BRANCH   4  18
ATOM     18  C   UNL     1       8.965   1.403  22.238  0.00  0.00    +0.190 C 
BRANCH  18  19
ATOM     19  O   UNL     1       8.649   1.275  20.849  0.00  0.00    -0.392 OA
ATOM     20  H   UNL     1       8.117   2.064  20.630  0.00  0.00    +0.210 HD
ENDBRANCH  18  19
ENDBRANCH   4  18
TORSDOF 6
ENDMDL
MODEL 2
REMARK VINA RESULT:      -5.3      2.241      5.524
REMARK  Name = 
REMARK  7 active torsions:
REMARK  status: ('A' for Active; 'I' for Inactive)
REMARK    1  A    between atoms: C_1  and  C_2
REMARK    2  A    between atoms: N_4  and  C_5
REMARK    3  A    between atoms: C_7  and  O_9
REMARK    4  A    between atoms: C_11  and  C_13
REMARK    5  A    between atoms: C_13  and  O_14
REMARK    6  A    between atoms: C_15  and  O_17
REMARK    7  A    between atoms: C_18  and  O_20
REMARK                            x       y       z     vdW  Elec       q    Type
REMARK                         _______ _______ _______ _____ _____    ______ ____
ROOT
ATOM      1  C   UNL     1       9.316  -3.553  24.275  0.00  0.00    +0.160 C 
ATOM      2  C   UNL     1       7.836  -3.825  23.954  0.00  0.00    +0.171 C 
ATOM      3  C   UNL     1       6.956  -3.392  25.132  0.00  0.00    +0.176 C 
ATOM      4  C   UNL     1       7.403  -4.045  26.454  0.00  0.00    +0.178 C 
ATOM      5  O   UNL     1       8.817  -3.911  26.678  0.00  0.00    -0.341 OA
ATOM      6  C   UNL     1       9.669  -4.294  25.594  0.00  0.00    +0.270 C 
ENDROOT
BRANCH   1   9
ATOM      7  C   UNL     1      10.445   0.038  23.675  0.00  0.00    +0.109 C 
ATOM      8  C   UNL     1      10.207  -1.412  23.349  0.00  0.00    +0.210 C 
ATOM      9  N   UNL     1       9.621  -2.116  24.374  0.00  0.00    -0.305 N 
ATOM     10  H   UNL     1       9.596  -1.687  25.292  0.00  0.00    +0.149 HD
ATOM     11  O   UNL     1      10.503  -1.902  22.267  0.00  0.00    -0.276 OA
ENDBRANCH   1   9
BRANCH   2  12
ATOM     12  O   UNL     1       7.642  -5.229  23.694  0.00  0.00    -0.387 OA
ATOM     13  H   UNL     1       8.447  -5.500  23.203  0.00  0.00    +0.210 HD
ENDBRANCH   2  12
BRANCH   3  14
ATOM     14  O   UNL     1       5.590  -3.683  24.823  0.00  0.00    -0.387 OA
ATOM     15  H   UNL     1       5.118  -2.831  24.769  0.00  0.00    +0.210 HD
ENDBRANCH   3  14
BRANCH   6  16
ATOM     16  O   UNL     1       9.716  -5.705  25.450  0.00  0.00    -0.365 OA
ATOM     17  H   UNL     1      10.638  -5.979  25.636  0.00  0.00    +0.213 HD
ENDBRANCH   6  16
BRANCH   4  18
ATOM     18  C   UNL     1       6.916  -5.491  26.658  0.00  0.00    +0.190 C 
BRANCH  18  19
ATOM     19  O   UNL     1       7.641  -6.096  27.731  0.00  0.00    -0.392 OA
ATOM     20  H   UNL     1       8.361  -5.471  27.943  0.00  0.00    +0.210 HD
ENDBRANCH  18  19
ENDBRANCH   4  18
TORSDOF 6
ENDMDL
MODEL 3
REMARK VINA RESULT:      -5.1      1.923      2.469
REMARK  Name = 
REMARK  7 active torsions:
REMARK  status: ('A' for Active; 'I' for Inactive)
REMARK    1  A    between atoms: C_1  and  C_2
REMARK    2  A    between atoms: N_4  and  C_5
REMARK    3  A    between atoms: C_7  and  O_9
REMARK    4  A    between atoms: C_11  and  C_13
REMARK    5  A    between atoms: C_13  and  O_14
REMARK    6  A    between atoms: C_15  and  O_17
REMARK    7  A    between atoms: C_18  and  O_20
REMARK                            x       y       z     vdW  Elec       q    Type
REMARK                         _______ _______ _______ _____ _____    ______ ____
ROOT
ATOM      1  C   UNL     1       9.513   0.039  22.826  0.00  0.00    +0.160 C 
ATOM      2  C   UNL     1       9.571   0.749  24.190  0.00  0.00    +0.171 C 
ATOM      3  C   UNL     1       8.211   1.379  24.512  0.00  0.00    +0.176 C 
ATOM      4  C   UNL     1       7.726   2.307  23.382  0.00  0.00    +0.178 C 
ATOM      5  O   UNL     1       7.809   1.684  22.089  0.00  0.00    -0.341 OA
ATOM      6  C   UNL     1       9.061   1.074  21.760  0.00  0.00    +0.270 C 
ENDROOT
BRANCH   1   9
ATOM      7  C   UNL     1       7.990  -3.445  23.112  0.00  0.00    +0.109 C 
ATOM      8  C   UNL     1       9.061  -2.389  23.193  0.00  0.00    +0.210 C 
ATOM      9  N   UNL     1       8.625  -1.136  22.836  0.00  0.00    -0.305 N 
ATOM     10  H   UNL     1       7.731  -1.061  22.363  0.00  0.00    +0.149 HD
ATOM     11  O   UNL     1      10.204  -2.637  23.554  0.00  0.00    -0.276 OA
ENDBRANCH   1   9
BRANCH   2  12
ATOM     12  O   UNL     1      10.585   1.772  24.165  0.00  0.00    -0.387 OA
ATOM     13  H   UNL     1      10.901   1.825  25.093  0.00  0.00    +0.210 HD
ENDBRANCH   2  12
BRANCH   3  14
ATOM     14  O   UNL     1       8.298   2.058  25.767  0.00  0.00    -0.387 OA
ATOM     15  H   UNL     1       7.463   2.545  25.892  0.00  0.00    +0.210 HD
ENDBRANCH   3  14
BRANCH   6  16
ATOM     16  O   UNL     1      10.050   2.052  21.473  0.00  0.00    -0.365 OA
ATOM     17  H   UNL     1      10.357   1.885  20.558  0.00  0.00    +0.213 HD
ENDBRANCH   6  16
BRANCH   4  18
ATOM     18  C   UNL     1       8.348   3.716  23.391  0.00  0.00    +0.190 C 
BRANCH  18  19
ATOM     19  O   UNL     1       8.054   4.379  22.159  0.00  0.00    -0.392 OA
ATOM     20  H   UNL     1       8.910   4.454  21.695  0.00  0.00    +0.210 HD
ENDBRANCH  18  19
ENDBRANCH   4  18
TORSDOF 6
ENDMDL
MODEL 4
REMARK VINA RESULT:      -5.0      3.095      5.652
REMARK  Name = 
REMARK  7 active torsions:
REMARK  status: ('A' for Active; 'I' for Inactive)
REMARK    1  A    between atoms: C_1  and  C_2
REMARK    2  A    between atoms: N_4  and  C_5
REMARK    3  A    between atoms: C_7  and  O_9
REMARK    4  A    between atoms: C_11  and  C_13
REMARK    5  A    between atoms: C_13  and  O_14
REMARK    6  A    between atoms: C_15  and  O_17
REMARK    7  A    between atoms: C_18  and  O_20
REMARK                            x       y       z     vdW  Elec       q    Type
REMARK                         _______ _______ _______ _____ _____    ______ ____
ROOT
ATOM      1  C   UNL     1       9.695   2.886  23.146  0.00  0.00    +0.160 C 
ATOM      2  C   UNL     1       9.468   2.142  24.474  0.00  0.00    +0.171 C 
ATOM      3  C   UNL     1      10.345   0.886  24.528  0.00  0.00    +0.176 C 
ATOM      4  C   UNL     1      10.131  -0.018  23.299  0.00  0.00    +0.178 C 
ATOM      5  O   UNL     1      10.204   0.713  22.063  0.00  0.00    -0.341 OA
ATOM      6  C   UNL     1       9.407   1.899  21.983  0.00  0.00    +0.270 C 
ENDROOT
BRANCH   1   9
ATOM      7  C   UNL     1      12.792   5.109  23.225  0.00  0.00    +0.109 C 
ATOM      8  C   UNL     1      11.351   4.731  23.445  0.00  0.00    +0.210 C 
ATOM      9  N   UNL     1      11.050   3.453  23.039  0.00  0.00    -0.305 N 
ATOM     10  H   UNL     1      11.724   2.969  22.456  0.00  0.00    +0.149 HD
ATOM     11  O   UNL     1      10.539   5.496  23.948  0.00  0.00    -0.276 OA
ENDBRANCH   1   9
BRANCH   2  12
ATOM     12  O   UNL     1       8.081   1.770  24.594  0.00  0.00    -0.387 OA
ATOM     13  H   UNL     1       8.045   0.849  24.256  0.00  0.00    +0.210 HD
ENDBRANCH   2  12
BRANCH   3  14
ATOM     14  O   UNL     1      10.094   0.196  25.755  0.00  0.00    -0.387 OA
ATOM     15  H   UNL     1       9.698   0.838  26.373  0.00  0.00    +0.210 HD
ENDBRANCH   3  14
BRANCH   6  16
ATOM     16  O   UNL     1       8.030   1.584  21.842  0.00  0.00    -0.365 OA
ATOM     17  H   UNL     1       7.702   2.084  21.065  0.00  0.00    +0.213 HD
ENDBRANCH   6  16
BRANCH   4  18
ATOM     18  C   UNL     1       8.885  -0.920  23.370  0.00  0.00    +0.190 C 
BRANCH  18  19
ATOM     19  O   UNL     1       8.595  -1.441  22.071  0.00  0.00    -0.392 OA
ATOM     20  H   UNL     1       8.359  -0.665  21.527  0.00  0.00    +0.210 HD
ENDBRANCH  18  19
ENDBRANCH   4  18
TORSDOF 6
ENDMDL
MODEL 5
REMARK VINA RESULT:      -5.0      3.349      5.464
REMARK  Name = 
REMARK  7 active torsions:
REMARK  status: ('A' for Active; 'I' for Inactive)
REMARK    1  A    between atoms: C_1  and  C_2
REMARK    2  A    between atoms: N_4  and  C_5
REMARK    3  A    between atoms: C_7  and  O_9
REMARK    4  A    between atoms: C_11  and  C_13
REMARK    5  A    between atoms: C_13  and  O_14
REMARK    6  A    between atoms: C_15  and  O_17
REMARK    7  A    between atoms: C_18  and  O_20
REMARK                            x       y       z     vdW  Elec       q    Type
REMARK                         _______ _______ _______ _____ _____    ______ ____
ROOT
ATOM      1  C   UNL     1       8.023  -2.915  23.252  0.00  0.00    +0.160 C 
ATOM      2  C   UNL     1       7.571  -4.070  22.340  0.00  0.00    +0.171 C 
ATOM      3  C   UNL     1       6.185  -3.768  21.761  0.00  0.00    +0.176 C 
ATOM      4  C   UNL     1       5.158  -3.450  22.864  0.00  0.00    +0.178 C 
ATOM      5  O   UNL     1       5.645  -2.472  23.798  0.00  0.00    -0.341 OA
ATOM      6  C   UNL     1       6.943  -2.715  24.349  0.00  0.00    +0.270 C 
ENDROOT
BRANCH   1   9
ATOM      7  C   UNL     1       9.540   0.064  21.419  0.00  0.00    +0.109 C 
ATOM      8  C   UNL     1       9.526  -1.249  22.156  0.00  0.00    +0.210 C 
ATOM      9  N   UNL     1       8.265  -1.667  22.509  0.00  0.00    -0.305 N 
ATOM     10  H   UNL     1       7.507  -0.996  22.447  0.00  0.00    +0.149 HD
ATOM     11  O   UNL     1      10.547  -1.878  22.401  0.00  0.00    -0.276 OA
ENDBRANCH   1   9
BRANCH   2  12
ATOM     12  O   UNL     1       7.526  -5.297  23.092  0.00  0.00    -0.387 OA
ATOM     13  H   UNL     1       6.596  -5.363  23.398  0.00  0.00    +0.210 HD
ENDBRANCH   2  12
BRANCH   3  14
ATOM     14  O   UNL     1       5.774  -4.867  20.943  0.00  0.00    -0.387 OA
ATOM     15  H   UNL     1       6.528  -5.483  20.885  0.00  0.00    +0.210 HD
ENDBRANCH   3  14
BRANCH   6  16
ATOM     16  O   UNL     1       6.909  -3.766  25.303  0.00  0.00    -0.365 OA
ATOM     17  H   UNL     1       6.028  -3.733  25.730  0.00  0.00    +0.213 HD
ENDBRANCH   6  16
BRANCH   4  18
ATOM     18  C   UNL     1       4.564  -4.684  23.570  0.00  0.00    +0.190 C 
BRANCH  18  19
ATOM     19  O   UNL     1       3.499  -5.222  22.782  0.00  0.00    -0.392 OA
ATOM     20  H   UNL     1       3.920  -5.869  22.184  0.00  0.00    +0.210 HD
ENDBRANCH  18  19
ENDBRANCH   4  18
TORSDOF 6
ENDMDL
MODEL 6
REMARK VINA RESULT:      -5.0      2.328      3.639
REMARK  Name = 
REMARK  7 active torsions:
REMARK  status: ('A' for Active; 'I' for Inactive)
REMARK    1  A    between atoms: C_1  and  C_2
REMARK    2  A    between atoms: N_4  and  C_5
REMARK    3  A    between atoms: C_7  and  O_9
REMARK    4  A    between atoms: C_11  and  C_13
REMARK    5  A    between atoms: C_13  and  O_14
REMARK    6  A    between atoms: C_15  and  O_17
REMARK    7  A    between atoms: C_18  and  O_20
REMARK                            x       y       z     vdW  Elec       q    Type
REMARK                         _______ _______ _______ _____ _____    ______ ____
ROOT
ATOM      1  C   UNL     1       7.311  -2.483  23.312  0.00  0.00    +0.160 C 
ATOM      2  C   UNL     1       7.874  -1.489  22.281  0.00  0.00    +0.171 C 
ATOM      3  C   UNL     1       9.404  -1.574  22.252  0.00  0.00    +0.176 C 
ATOM      4  C   UNL     1      10.017  -1.383  23.652  0.00  0.00    +0.178 C 
ATOM      5  O   UNL     1       9.387  -2.214  24.643  0.00  0.00    -0.341 OA
ATOM      6  C   UNL     1       7.957  -2.169  24.689  0.00  0.00    +0.270 C 
ENDROOT
BRANCH   1   9
ATOM      7  C   UNL     1       7.089  -5.997  21.852  0.00  0.00    +0.109 C 
ATOM      8  C   UNL     1       6.679  -4.569  22.095  0.00  0.00    +0.210 C 
ATOM      9  N   UNL     1       7.533  -3.886  22.928  0.00  0.00    -0.305 N 
ATOM     10  H   UNL     1       8.210  -4.424  23.458  0.00  0.00    +0.149 HD
ATOM     11  O   UNL     1       5.683  -4.073  21.584  0.00  0.00    -0.276 OA
ENDBRANCH   1   9
BRANCH   2  12
ATOM     12  O   UNL     1       7.470  -0.149  22.622  0.00  0.00    -0.387 OA
ATOM     13  H   UNL     1       7.063  -0.235  23.511  0.00  0.00    +0.210 HD
ENDBRANCH   2  12
BRANCH   3  14
ATOM     14  O   UNL     1       9.905  -0.622  21.310  0.00  0.00    -0.387 OA
ATOM     15  H   UNL     1       9.137  -0.243  20.845  0.00  0.00    +0.210 HD
ENDBRANCH   3  14
BRANCH   6  16
ATOM     16  O   UNL     1       7.499  -0.953  25.261  0.00  0.00    -0.365 OA
ATOM     17  H   UNL     1       8.294  -0.410  25.447  0.00  0.00    +0.213 HD
ENDBRANCH   6  16
BRANCH   4  18
ATOM     18  C   UNL     1      10.136   0.082  24.112  0.00  0.00    +0.190 C 
BRANCH  18  19
ATOM     19  O   UNL     1      10.247   0.132  25.536  0.00  0.00    -0.392 OA
ATOM     20  H   UNL     1       9.617  -0.535  25.869  0.00  0.00    +0.210 HD
ENDBRANCH  18  19
ENDBRANCH   4  18
TORSDOF 6
ENDMDL
MODEL 7
REMARK VINA RESULT:      -5.0      1.427      2.194
REMARK  Name = 
REMARK  7 active torsions:
REMARK  status: ('A' for Active; 'I' for Inactive)
REMARK    1  A    between atoms: C_1  and  C_2
REMARK    2  A    between atoms: N_4  and  C_5
REMARK    3  A    between atoms: C_7  and  O_9
REMARK    4  A    between atoms: C_11  and  C_13
REMARK    5  A    between atoms: C_13  and  O_14
REMARK    6  A    between atoms: C_15  and  O_17
REMARK    7  A    between atoms: C_18  and  O_20
REMARK                            x       y       z     vdW  Elec       q    Type
REMARK                         _______ _______ _______ _____ _____    ______ ____
ROOT
ATOM      1  C   UNL     1       9.342  -1.060  24.547  0.00  0.00    +0.160 C 
ATOM      2  C   UNL     1       8.030  -0.278  24.361  0.00  0.00    +0.171 C 
ATOM      3  C   UNL     1       7.650  -0.235  22.877  0.00  0.00    +0.176 C 
ATOM      4  C   UNL     1       8.794   0.316  22.006  0.00  0.00    +0.178 C 
ATOM      5  O   UNL     1      10.052  -0.323  22.287  0.00  0.00    -0.341 OA
ATOM      6  C   UNL     1      10.432  -0.392  23.665  0.00  0.00    +0.270 C 
ENDROOT
BRANCH   1   9
ATOM      7  C   UNL     1       8.783  -4.831  24.621  0.00  0.00    +0.109 C 
ATOM      8  C   UNL     1       8.849  -3.429  25.165  0.00  0.00    +0.210 C 
ATOM      9  N   UNL     1       9.200  -2.490  24.224  0.00  0.00    -0.305 N 
ATOM     10  H   UNL     1       9.579  -2.819  23.343  0.00  0.00    +0.149 HD
ATOM     11  O   UNL     1       8.602  -3.163  26.334  0.00  0.00    -0.276 OA
ENDBRANCH   1   9
BRANCH   2  12
ATOM     12  O   UNL     1       8.186   1.064  24.860  0.00  0.00    -0.387 OA
ATOM     13  H   UNL     1       8.593   0.950  25.746  0.00  0.00    +0.210 HD
ENDBRANCH   2  12
BRANCH   3  14
ATOM     14  O   UNL     1       6.446   0.522  22.727  0.00  0.00    -0.387 OA
ATOM     15  H   UNL     1       6.608   1.189  22.035  0.00  0.00    +0.210 HD
ENDBRANCH   3  14
BRANCH   6  16
ATOM     16  O   UNL     1      10.845   0.877  24.149  0.00  0.00    -0.365 OA
ATOM     17  H   UNL     1      10.240   1.541  23.757  0.00  0.00    +0.213 HD
ENDBRANCH   6  16
BRANCH   4  18
ATOM     18  C   UNL     1       8.913   1.852  21.991  0.00  0.00    +0.190 C 
BRANCH  18  19
ATOM     19  O   UNL     1      10.215   2.229  21.538  0.00  0.00    -0.392 OA
ATOM     20  H   UNL     1      10.082   2.602  20.646  0.00  0.00    +0.210 HD
ENDBRANCH  18  19
ENDBRANCH   4  18
TORSDOF 6
ENDMDL
MODEL 8
REMARK VINA RESULT:      -4.9      3.195      5.663
REMARK  Name = 
REMARK  7 active torsions:
REMARK  status: ('A' for Active; 'I' for Inactive)
REMARK    1  A    between atoms: C_1  and  C_2
REMARK    2  A    between atoms: N_4  and  C_5
REMARK    3  A    between atoms: C_7  and  O_9
REMARK    4  A    between atoms: C_11  and  C_13
REMARK    5  A    between atoms: C_13  and  O_14
REMARK    6  A    between atoms: C_15  and  O_17
REMARK    7  A    between atoms: C_18  and  O_20
REMARK                            x       y       z     vdW  Elec       q    Type
REMARK                         _______ _______ _______ _____ _____    ______ ____
ROOT
ATOM      1  C   UNL     1       8.116   2.739  23.405  0.00  0.00    +0.160 C 
ATOM      2  C   UNL     1       9.047   1.722  24.090  0.00  0.00    +0.171 C 
ATOM      3  C   UNL     1      10.144   1.278  23.116  0.00  0.00    +0.176 C 
ATOM      4  C   UNL     1       9.558   0.746  21.794  0.00  0.00    +0.178 C 
ATOM      5  O   UNL     1       8.580   1.637  21.232  0.00  0.00    -0.341 OA
ATOM      6  C   UNL     1       7.547   2.083  22.117  0.00  0.00    +0.270 C 
ENDROOT
BRANCH   1   9
ATOM      7  C   UNL     1       9.672   6.218  23.509  0.00  0.00    +0.109 C 
ATOM      8  C   UNL     1       8.977   4.994  24.044  0.00  0.00    +0.210 C 
ATOM      9  N   UNL     1       8.791   4.011  23.101  0.00  0.00    -0.305 N 
ATOM     10  H   UNL     1       8.928   4.256  22.127  0.00  0.00    +0.149 HD
ATOM     11  O   UNL     1       8.625   4.893  25.212  0.00  0.00    -0.276 OA
ENDBRANCH   1   9
BRANCH   2  12
ATOM     12  O   UNL     1       8.288   0.577  24.520  0.00  0.00    -0.387 OA
ATOM     13  H   UNL     1       7.439   0.952  24.841  0.00  0.00    +0.210 HD
ENDBRANCH   2  12
BRANCH   3  14
ATOM     14  O   UNL     1      10.977   0.312  23.763  0.00  0.00    -0.387 OA
ATOM     15  H   UNL     1      10.449  -0.500  23.869  0.00  0.00    +0.210 HD
ENDBRANCH   3  14
BRANCH   6  16
ATOM     16  O   UNL     1       6.612   1.048  22.380  0.00  0.00    -0.365 OA
ATOM     17  H   UNL     1       6.593   0.474  21.585  0.00  0.00    +0.213 HD
ENDBRANCH   6  16
BRANCH   4  18
ATOM     18  C   UNL     1       9.056  -0.709  21.849  0.00  0.00    +0.190 C 
BRANCH  18  19
ATOM     19  O   UNL     1      10.142  -1.602  21.590  0.00  0.00    -0.392 OA
ATOM     20  H   UNL     1      10.893  -1.032  21.336  0.00  0.00    +0.210 HD
ENDBRANCH  18  19
ENDBRANCH   4  18
TORSDOF 6
ENDMDL
MODEL 9
REMARK VINA RESULT:      -4.9      2.272      2.860
REMARK  Name = 
REMARK  7 active torsions:
REMARK  status: ('A' for Active; 'I' for Inactive)
REMARK    1  A    between atoms: C_1  and  C_2
REMARK    2  A    between atoms: N_4  and  C_5
REMARK    3  A    between atoms: C_7  and  O_9
REMARK    4  A    between atoms: C_11  and  C_13
REMARK    5  A    between atoms: C_13  and  O_14
REMARK    6  A    between atoms: C_15  and  O_17
REMARK    7  A    between atoms: C_18  and  O_20
REMARK                            x       y       z     vdW  Elec       q    Type
REMARK                         _______ _______ _______ _____ _____    ______ ____
ROOT
ATOM      1  C   UNL     1       8.130  -3.056  22.752  0.00  0.00    +0.160 C 
ATOM      2  C   UNL     1       8.786  -3.049  24.145  0.00  0.00    +0.171 C 
ATOM      3  C   UNL     1       8.391  -1.777  24.904  0.00  0.00    +0.176 C 
ATOM      4  C   UNL     1       8.706  -0.504  24.096  0.00  0.00    +0.178 C 
ATOM      5  O   UNL     1       8.213  -0.577  22.747  0.00  0.00    -0.341 OA
ATOM      6  C   UNL     1       8.552  -1.757  22.013  0.00  0.00    +0.270 C 
ENDROOT
BRANCH   1   9
ATOM      7  C   UNL     1       4.529  -4.279  23.012  0.00  0.00    +0.109 C 
ATOM      8  C   UNL     1       6.031  -4.385  22.998  0.00  0.00    +0.210 C 
ATOM      9  N   UNL     1       6.664  -3.179  22.817  0.00  0.00    -0.305 N 
ATOM     10  H   UNL     1       6.107  -2.391  22.505  0.00  0.00    +0.149 HD
ATOM     11  O   UNL     1       6.618  -5.449  23.145  0.00  0.00    -0.276 OA
ENDBRANCH   1   9
BRANCH   2  12
ATOM     12  O   UNL     1      10.219  -3.108  24.011  0.00  0.00    -0.387 OA
ATOM     13  H   UNL     1      10.559  -2.717  24.844  0.00  0.00    +0.210 HD
ENDBRANCH   2  12
BRANCH   3  14
ATOM     14  O   UNL     1       9.035  -1.778  26.180  0.00  0.00    -0.387 OA
ATOM     15  H   UNL     1       9.980  -1.593  26.028  0.00  0.00    +0.210 HD
ENDBRANCH   3  14
BRANCH   6  16
ATOM     16  O   UNL     1       9.919  -1.749  21.628  0.00  0.00    -0.365 OA
ATOM     17  H   UNL     1      10.301  -2.603  21.920  0.00  0.00    +0.213 HD
ENDBRANCH   6  16
BRANCH   4  18
ATOM     18  C   UNL     1      10.176  -0.048  24.155  0.00  0.00    +0.190 C 
BRANCH  18  19
ATOM     19  O   UNL     1      10.445   0.543  25.428  0.00  0.00    -0.392 OA
ATOM     20  H   UNL     1       9.570   0.702  25.831  0.00  0.00    +0.210 HD
ENDBRANCH  18  19
ENDBRANCH   4  18
TORSDOF 6
ENDMDL
