MODEL 1
REMARK VINA RESULT:      -5.1      0.000      0.000
REMARK  Name = 
REMARK  3 active torsions:
REMARK  status: ('A' for Active; 'I' for Inactive)
REMARK    1  A    between atoms: O_1  and  C_2
REMARK    2  A    between atoms: C_2  and  C_4
REMARK    3  A    between atoms: C_4  and  C_5
REMARK                            x       y       z     vdW  Elec       q    Type
REMARK                         _______ _______ _______ _____ _____    ______ ____
ROOT
ATOM      1  C   UNL     1       7.205  -5.021  23.454  0.00  0.00    +0.036 A 
ATOM      2  N   UNL     1       6.187  -5.651  24.132  0.00  0.00    -0.311 N 
ATOM      3  H   UNL     1       6.170  -5.682  25.146  0.00  0.00    +0.170 HD
ATOM      4  C   UNL     1       5.115  -6.253  23.528  0.00  0.00    +0.327 A 
ATOM      5  O   UNL     1       4.241  -6.815  24.179  0.00  0.00    -0.247 OA
ATOM      6  N   UNL     1       5.096  -6.202  22.166  0.00  0.00    -0.275 N 
ATOM      7  H   UNL     1       4.324  -6.648  21.698  0.00  0.00    +0.173 HD
ATOM      8  C   UNL     1       6.053  -5.615  21.391  0.00  0.00    +0.254 A 
ATOM      9  O   UNL     1       6.018  -5.621  20.166  0.00  0.00    -0.268 OA
ATOM     10  C   UNL     1       7.176  -4.984  22.113  0.00  0.00    +0.092 A 
ENDROOT
BRANCH   1  11
ATOM     11  C   UNL     1       8.352  -4.469  24.258  0.00  0.00    +0.173 C 
BRANCH  11  12
ATOM     12  C   UNL     1       8.797  -5.384  25.385  0.00  0.00    +0.311 C 
ATOM     13  O   UNL     1       8.111  -5.742  26.329  0.00  0.00    -0.251 OA
BRANCH  12  14
ATOM     14  O   UNL     1      10.087  -5.779  25.245  0.00  0.00    -0.480 OA
ATOM     15  H   UNL     1      10.305  -6.182  24.382  0.00  0.00    +0.295 HD
ENDBRANCH  12  14
ENDBRANCH  11  12
ENDBRANCH   1  11
TORSDOF 3
ENDMDL
MODEL 2
REMARK VINA RESULT:      -5.1      1.934      4.928
REMARK  Name = 
REMARK  3 active torsions:
REMARK  status: ('A' for Active; 'I' for Inactive)
REMARK    1  A    between atoms: O_1  and  C_2
REMARK    2  A    between atoms: C_2  and  C_4
REMARK    3  A    between atoms: C_4  and  C_5
REMARK                            x       y       z     vdW  Elec       q    Type
REMARK                         _______ _______ _______ _____ _____    ______ ____
ROOT
ATOM      1  C   UNL     1       6.709  -5.139  24.606  0.00  0.00    +0.036 A 
ATOM      2  N   UNL     1       8.021  -4.914  24.261  0.00  0.00    -0.311 N 
ATOM      3  H   UNL     1       8.279  -4.655  23.314  0.00  0.00    +0.170 HD
ATOM      4  C   UNL     1       9.071  -4.983  25.136  0.00  0.00    +0.327 A 
ATOM      5  O   UNL     1      10.227  -4.789  24.773  0.00  0.00    -0.247 OA
ATOM      6  N   UNL     1       8.752  -5.300  26.423  0.00  0.00    -0.275 N 
ATOM      7  H   UNL     1       9.509  -5.370  27.084  0.00  0.00    +0.173 HD
ATOM      8  C   UNL     1       7.490  -5.554  26.876  0.00  0.00    +0.254 A 
ATOM      9  O   UNL     1       7.247  -5.871  28.035  0.00  0.00    -0.268 OA
ATOM     10  C   UNL     1       6.409  -5.456  25.875  0.00  0.00    +0.092 A 
ENDROOT
BRANCH   1  11
ATOM     11  C   UNL     1       5.674  -5.095  23.514  0.00  0.00    +0.173 C 
BRANCH  11  12
ATOM     12  C   UNL     1       6.214  -5.493  22.152  0.00  0.00    +0.311 C 
ATOM     13  O   UNL     1       6.949  -6.441  21.923  0.00  0.00    -0.251 OA
BRANCH  12  14
ATOM     14  O   UNL     1       5.794  -4.658  21.169  0.00  0.00    -0.480 OA
ATOM     15  H   UNL     1       4.832  -4.666  21.002  0.00  0.00    +0.295 HD
ENDBRANCH  12  14
ENDBRANCH  11  12
ENDBRANCH   1  11
TORSDOF 3
ENDMDL
MODEL 3
REMARK VINA RESULT:      -4.9      1.794      4.466
REMARK  Name = 
REMARK  3 active torsions:
REMARK  status: ('A' for Active; 'I' for Inactive)
REMARK    1  A    between atoms: O_1  and  C_2
REMARK    2  A    between atoms: C_2  and  C_4
REMARK    3  A    between atoms: C_4  and  C_5
REMARK                            x       y       z     vdW  Elec       q    Type
REMARK                         _______ _______ _______ _____ _____    ______ ____
ROOT
ATOM      1  C   UNL     1       6.805  -4.943  24.627  0.00  0.00    +0.036 A 
ATOM      2  N   UNL     1       6.540  -5.319  25.923  0.00  0.00    -0.311 N 
ATOM      3  H   UNL     1       5.589  -5.465  26.245  0.00  0.00    +0.170 HD
ATOM      4  C   UNL     1       7.502  -5.555  26.869  0.00  0.00    +0.327 A 
ATOM      5  O   UNL     1       7.212  -5.873  28.017  0.00  0.00    -0.247 OA
ATOM      6  N   UNL     1       8.792  -5.395  26.457  0.00  0.00    -0.275 N 
ATOM      7  H   UNL     1       9.517  -5.551  27.137  0.00  0.00    +0.173 HD
ATOM      8  C   UNL     1       9.171  -5.017  25.202  0.00  0.00    +0.254 A 
ATOM      9  O   UNL     1      10.341  -4.850  24.879  0.00  0.00    -0.268 OA
ATOM     10  C   UNL     1       8.079  -4.784  24.236  0.00  0.00    +0.092 A 
ENDROOT
BRANCH   1  11
ATOM     11  C   UNL     1       5.635  -4.651  23.725  0.00  0.00    +0.173 C 
BRANCH  11  12
ATOM     12  C   UNL     1       5.289  -5.797  22.792  0.00  0.00    +0.311 C 
ATOM     13  O   UNL     1       5.311  -5.759  21.572  0.00  0.00    -0.251 OA
BRANCH  12  14
ATOM     14  O   UNL     1       4.929  -6.918  23.467  0.00  0.00    -0.480 OA
ATOM     15  H   UNL     1       5.073  -6.882  24.432  0.00  0.00    +0.295 HD
ENDBRANCH  12  14
ENDBRANCH  11  12
ENDBRANCH   1  11
TORSDOF 3
ENDMDL
MODEL 4
REMARK VINA RESULT:      -4.9      6.571      7.734
REMARK  Name = 
REMARK  3 active torsions:
REMARK  status: ('A' for Active; 'I' for Inactive)
REMARK    1  A    between atoms: O_1  and  C_2
REMARK    2  A    between atoms: C_2  and  C_4
REMARK    3  A    between atoms: C_4  and  C_5
REMARK                            x       y       z     vdW  Elec       q    Type
REMARK                         _______ _______ _______ _____ _____    ______ ____
ROOT
ATOM      1  C   UNL     1       9.768   0.484  23.772  0.00  0.00    +0.036 A 
ATOM      2  N   UNL     1       8.758   0.700  22.864  0.00  0.00    -0.311 N 
ATOM      3  H   UNL     1       8.055  -0.008  22.681  0.00  0.00    +0.170 HD
ATOM      4  C   UNL     1       8.587   1.865  22.164  0.00  0.00    +0.327 A 
ATOM      5  O   UNL     1       7.677   2.001  21.353  0.00  0.00    -0.247 OA
ATOM      6  N   UNL     1       9.500   2.846  22.413  0.00  0.00    -0.275 N 
ATOM      7  H   UNL     1       9.403   3.708  21.901  0.00  0.00    +0.173 HD
ATOM      8  C   UNL     1      10.546   2.740  23.282  0.00  0.00    +0.254 A 
ATOM      9  O   UNL     1      11.368   3.633  23.452  0.00  0.00    -0.268 OA
ATOM     10  C   UNL     1      10.664   1.457  24.003  0.00  0.00    +0.092 A 
ENDROOT
BRANCH   1  11
ATOM     11  C   UNL     1       9.864  -0.877  24.409  0.00  0.00    +0.173 C 
BRANCH  11  12
ATOM     12  C   UNL     1      10.151  -1.990  23.418  0.00  0.00    +0.311 C 
ATOM     13  O   UNL     1      10.397  -1.846  22.231  0.00  0.00    -0.251 OA
BRANCH  12  14
ATOM     14  O   UNL     1      10.098  -3.217  23.996  0.00  0.00    -0.480 OA
ATOM     15  H   UNL     1       9.369  -3.343  24.633  0.00  0.00    +0.295 HD
ENDBRANCH  12  14
ENDBRANCH  11  12
ENDBRANCH   1  11
TORSDOF 3
ENDMDL
MODEL 5
REMARK VINA RESULT:      -4.7      3.998      5.588
REMARK  Name = 
REMARK  3 active torsions:
REMARK  status: ('A' for Active; 'I' for Inactive)
REMARK    1  A    between atoms: O_1  and  C_2
REMARK    2  A    between atoms: C_2  and  C_4
REMARK    3  A    between atoms: C_4  and  C_5
REMARK                            x       y       z     vdW  Elec       q    Type
REMARK                         _______ _______ _______ _____ _____    ______ ____
ROOT
ATOM      1  C   UNL     1       8.989  -2.534  25.096  0.00  0.00    +0.036 A 
ATOM      2  N   UNL     1       9.670  -2.621  23.904  0.00  0.00    -0.311 N 
ATOM      3  H   UNL     1       9.920  -3.520  23.505  0.00  0.00    +0.170 HD
ATOM      4  C   UNL     1      10.038  -1.542  23.146  0.00  0.00    +0.327 A 
ATOM      5  O   UNL     1      10.659  -1.673  22.096  0.00  0.00    -0.247 OA
ATOM      6  N   UNL     1       9.689  -0.321  23.642  0.00  0.00    -0.275 N 
ATOM      7  H   UNL     1       9.960   0.489  23.109  0.00  0.00    +0.173 HD
ATOM      8  C   UNL     1       9.024  -0.114  24.815  0.00  0.00    +0.254 A 
ATOM      9  O   UNL     1       8.759   1.002  25.246  0.00  0.00    -0.268 OA
ATOM     10  C   UNL     1       8.657  -1.326  25.576  0.00  0.00    +0.092 A 
ENDROOT
BRANCH   1  11
ATOM     11  C   UNL     1       8.718  -3.810  25.848  0.00  0.00    +0.173 C 
BRANCH  11  12
ATOM     12  C   UNL     1       9.251  -5.049  25.150  0.00  0.00    +0.311 C 
ATOM     13  O   UNL     1       8.826  -5.521  24.107  0.00  0.00    -0.251 OA
BRANCH  12  14
ATOM     14  O   UNL     1      10.283  -5.613  25.825  0.00  0.00    -0.480 OA
ATOM     15  H   UNL     1      10.050  -6.400  26.355  0.00  0.00    +0.295 HD
ENDBRANCH  12  14
ENDBRANCH  11  12
ENDBRANCH   1  11
TORSDOF 3
ENDMDL
MODEL 6
REMARK VINA RESULT:      -4.7      0.919      2.374
REMARK  Name = 
REMARK  3 active torsions:
REMARK  status: ('A' for Active; 'I' for Inactive)
REMARK    1  A    between atoms: O_1  and  C_2
REMARK    2  A    between atoms: C_2  and  C_4
REMARK    3  A    between atoms: C_4  and  C_5
REMARK                            x       y       z     vdW  Elec       q    Type
REMARK                         _______ _______ _______ _____ _____    ______ ____
ROOT
ATOM      1  C   UNL     1       7.186  -4.916  23.680  0.00  0.00    +0.036 A 
ATOM      2  N   UNL     1       7.083  -4.963  22.309  0.00  0.00    -0.311 N 
ATOM      3  H   UNL     1       7.783  -4.534  21.714  0.00  0.00    +0.170 HD
ATOM      4  C   UNL     1       6.076  -5.599  21.633  0.00  0.00    +0.327 A 
ATOM      5  O   UNL     1       6.022  -5.598  20.408  0.00  0.00    -0.247 OA
ATOM      6  N   UNL     1       5.136  -6.212  22.407  0.00  0.00    -0.275 N 
ATOM      7  H   UNL     1       4.378  -6.676  21.934  0.00  0.00    +0.173 HD
ATOM      8  C   UNL     1       5.132  -6.221  23.772  0.00  0.00    +0.254 A 
ATOM      9  O   UNL     1       4.248  -6.754  24.434  0.00  0.00    -0.268 OA
ATOM     10  C   UNL     1       6.250  -5.518  24.430  0.00  0.00    +0.092 A 
ENDROOT
BRANCH   1  11
ATOM     11  C   UNL     1       8.314  -4.116  24.275  0.00  0.00    +0.173 C 
BRANCH  11  12
ATOM     12  C   UNL     1       9.117  -4.880  25.312  0.00  0.00    +0.311 C 
ATOM     13  O   UNL     1       9.136  -4.654  26.511  0.00  0.00    -0.251 OA
BRANCH  12  14
ATOM     14  O   UNL     1       9.852  -5.878  24.759  0.00  0.00    -0.480 OA
ATOM     15  H   UNL     1       9.462  -6.770  24.838  0.00  0.00    +0.295 HD
ENDBRANCH  12  14
ENDBRANCH  11  12
ENDBRANCH   1  11
TORSDOF 3
ENDMDL
MODEL 7
REMARK VINA RESULT:      -4.7      2.523      3.358
REMARK  Name = 
REMARK  3 active torsions:
REMARK  status: ('A' for Active; 'I' for Inactive)
REMARK    1  A    between atoms: O_1  and  C_2
REMARK    2  A    between atoms: C_2  and  C_4
REMARK    3  A    between atoms: C_4  and  C_5
REMARK                            x       y       z     vdW  Elec       q    Type
REMARK                         _______ _______ _______ _____ _____    ______ ____
ROOT
ATOM      1  C   UNL     1       7.704  -4.382  23.966  0.00  0.00    +0.036 A 
ATOM      2  N   UNL     1       8.640  -3.388  23.799  0.00  0.00    -0.311 N 
ATOM      3  H   UNL     1       9.470  -3.343  24.380  0.00  0.00    +0.170 HD
ATOM      4  C   UNL     1       8.563  -2.411  22.843  0.00  0.00    +0.327 A 
ATOM      5  O   UNL     1       9.418  -1.536  22.745  0.00  0.00    -0.247 OA
ATOM      6  N   UNL     1       7.473  -2.463  22.026  0.00  0.00    -0.275 N 
ATOM      7  H   UNL     1       7.387  -1.748  21.323  0.00  0.00    +0.173 HD
ATOM      8  C   UNL     1       6.479  -3.395  22.107  0.00  0.00    +0.254 A 
ATOM      9  O   UNL     1       5.495  -3.388  21.376  0.00  0.00    -0.268 OA
ATOM     10  C   UNL     1       6.632  -4.418  23.160  0.00  0.00    +0.092 A 
ENDROOT
BRANCH   1  11
ATOM     11  C   UNL     1       7.894  -5.343  25.110  0.00  0.00    +0.173 C 
BRANCH  11  12
ATOM     12  C   UNL     1       9.154  -5.084  25.916  0.00  0.00    +0.311 C 
ATOM     13  O   UNL     1       9.224  -4.436  26.948  0.00  0.00    -0.251 OA
BRANCH  12  14
ATOM     14  O   UNL     1      10.248  -5.659  25.355  0.00  0.00    -0.480 OA
ATOM     15  H   UNL     1      10.057  -6.342  24.684  0.00  0.00    +0.295 HD
ENDBRANCH  12  14
ENDBRANCH  11  12
ENDBRANCH   1  11
TORSDOF 3
ENDMDL
MODEL 8
REMARK VINA RESULT:      -4.7      3.496      4.291
REMARK  Name = 
REMARK  3 active torsions:
REMARK  status: ('A' for Active; 'I' for Inactive)
REMARK    1  A    between atoms: O_1  and  C_2
REMARK    2  A    between atoms: C_2  and  C_4
REMARK    3  A    between atoms: C_4  and  C_5
REMARK                            x       y       z     vdW  Elec       q    Type
REMARK                         _______ _______ _______ _____ _____    ______ ____
ROOT
ATOM      1  C   UNL     1       7.855  -2.335  23.050  0.00  0.00    +0.036 A 
ATOM      2  N   UNL     1       8.596  -3.291  23.705  0.00  0.00    -0.311 N 
ATOM      3  H   UNL     1       9.443  -3.048  24.208  0.00  0.00    +0.170 HD
ATOM      4  C   UNL     1       8.259  -4.617  23.768  0.00  0.00    +0.327 A 
ATOM      5  O   UNL     1       8.964  -5.434  24.352  0.00  0.00    -0.247 OA
ATOM      6  N   UNL     1       7.109  -4.969  23.127  0.00  0.00    -0.275 N 
ATOM      7  H   UNL     1       6.847  -5.941  23.148  0.00  0.00    +0.173 HD
ATOM      8  C   UNL     1       6.303  -4.110  22.439  0.00  0.00    +0.254 A 
ATOM      9  O   UNL     1       5.294  -4.471  21.844  0.00  0.00    -0.268 OA
ATOM     10  C   UNL     1       6.728  -2.696  22.418  0.00  0.00    +0.092 A 
ENDROOT
BRANCH   1  11
ATOM     11  C   UNL     1       8.395  -0.930  23.011  0.00  0.00    +0.173 C 
BRANCH  11  12
ATOM     12  C   UNL     1       9.306  -0.665  21.826  0.00  0.00    +0.311 C 
ATOM     13  O   UNL     1       9.279   0.324  21.110  0.00  0.00    -0.251 OA
BRANCH  12  14
ATOM     14  O   UNL     1      10.188  -1.675  21.620  0.00  0.00    -0.480 OA
ATOM     15  H   UNL     1      10.712  -1.932  22.403  0.00  0.00    +0.295 HD
ENDBRANCH  12  14
ENDBRANCH  11  12
ENDBRANCH   1  11
TORSDOF 3
ENDMDL
MODEL 9
REMARK VINA RESULT:      -4.6      5.097      6.146
REMARK  Name = 
REMARK  3 active torsions:
REMARK  status: ('A' for Active; 'I' for Inactive)
REMARK    1  A    between atoms: O_1  and  C_2
REMARK    2  A    between atoms: C_2  and  C_4
REMARK    3  A    between atoms: C_4  and  C_5
REMARK                            x       y       z     vdW  Elec       q    Type
REMARK                         _______ _______ _______ _____ _____    ______ ____
ROOT
ATOM      1  C   UNL     1       8.931  -0.474  23.336  0.00  0.00    +0.036 A 
ATOM      2  N   UNL     1       7.693  -0.836  22.859  0.00  0.00    -0.311 N 
ATOM      3  H   UNL     1       7.060  -0.149  22.464  0.00  0.00    +0.170 HD
ATOM      4  C   UNL     1       7.220  -2.121  22.841  0.00  0.00    +0.327 A 
ATOM      5  O   UNL     1       6.100  -2.389  22.418  0.00  0.00    -0.247 OA
ATOM      6  N   UNL     1       8.061  -3.071  23.339  0.00  0.00    -0.275 N 
ATOM      7  H   UNL     1       7.731  -4.022  23.349  0.00  0.00    +0.173 HD
ATOM      8  C   UNL     1       9.304  -2.827  23.846  0.00  0.00    +0.254 A 
ATOM      9  O   UNL     1      10.018  -3.704  24.318  0.00  0.00    -0.268 OA
ATOM     10  C   UNL     1       9.747  -1.418  23.829  0.00  0.00    +0.092 A 
ENDROOT
BRANCH   1  11
ATOM     11  C   UNL     1       9.279   0.991  23.353  0.00  0.00    +0.173 C 
BRANCH  11  12
ATOM     12  C   UNL     1       9.110   1.669  22.006  0.00  0.00    +0.311 C 
ATOM     13  O   UNL     1       8.080   1.714  21.352  0.00  0.00    -0.251 OA
BRANCH  12  14
ATOM     14  O   UNL     1      10.260   2.241  21.571  0.00  0.00    -0.480 OA
ATOM     15  H   UNL     1      10.148   2.923  20.880  0.00  0.00    +0.295 HD
ENDBRANCH  12  14
ENDBRANCH  11  12
ENDBRANCH   1  11
TORSDOF 3
ENDMDL
