MODEL 1
REMARK VINA RESULT:      -5.4      0.000      0.000
REMARK  Name = 
REMARK  0 active torsions:
REMARK  status: ('A' for Active; 'I' for Inactive)
REMARK                            x       y       z     vdW  Elec       q    Type
REMARK                         _______ _______ _______ _____ _____    ______ ____
ROOT
ATOM      1  O   UNL     1       5.756  -4.136  21.558  0.00  0.00    -0.247 OA
ATOM      2  C   UNL     1       6.271  -4.418  22.622  0.00  0.00    +0.326 A 
ATOM      3  N   UNL     1       7.636  -4.391  22.955  0.00  0.00    -0.301 N 
ATOM      4  H   UNL     1       8.387  -4.125  22.335  0.00  0.00    +0.171 HD
ATOM      5  C   UNL     1       7.759  -4.776  24.257  0.00  0.00    +0.149 A 
ATOM      6  C   UNL     1       8.952  -4.908  25.095  0.00  0.00    +0.280 A 
ATOM      7  N   UNL     1       8.677  -5.315  26.384  0.00  0.00    -0.273 N 
ATOM      8  H   UNL     1       9.462  -5.418  27.010  0.00  0.00    +0.173 HD
ATOM      9  C   UNL     1       7.430  -5.590  26.905  0.00  0.00    +0.328 A 
ATOM     10  N   UNL     1       6.372  -5.442  26.040  0.00  0.00    -0.292 N 
ATOM     11  H   UNL     1       5.449  -5.638  26.404  0.00  0.00    +0.172 HD
ATOM     12  O   UNL     1       7.273  -5.941  28.069  0.00  0.00    -0.247 OA
ATOM     13  O   UNL     1      10.080  -4.673  24.680  0.00  0.00    -0.265 OA
ATOM     14  C   UNL     1       6.556  -5.045  24.764  0.00  0.00    +0.146 A 
ATOM     15  N   UNL     1       5.618  -4.843  23.800  0.00  0.00    -0.292 N 
ATOM     16  H   UNL     1       4.620  -4.955  23.871  0.00  0.00    +0.172 HD
ENDROOT
TORSDOF 0
ENDMDL
MODEL 2
REMARK VINA RESULT:      -5.1      0.871      3.925
REMARK  Name = 
REMARK  0 active torsions:
REMARK  status: ('A' for Active; 'I' for Inactive)
REMARK                            x       y       z     vdW  Elec       q    Type
REMARK                         _______ _______ _______ _____ _____    ______ ____
ROOT
ATOM      1  O   UNL     1       6.869  -6.380  28.832  0.00  0.00    -0.247 OA
ATOM      2  C   UNL     1       6.978  -6.035  27.671  0.00  0.00    +0.326 A 
ATOM      3  N   UNL     1       8.137  -5.605  27.004  0.00  0.00    -0.301 N 
ATOM      4  H   UNL     1       9.056  -5.524  27.413  0.00  0.00    +0.171 HD
ATOM      5  C   UNL     1       7.799  -5.327  25.712  0.00  0.00    +0.149 A 
ATOM      6  C   UNL     1       8.626  -4.858  24.599  0.00  0.00    +0.280 A 
ATOM      7  N   UNL     1       7.925  -4.700  23.422  0.00  0.00    -0.273 N 
ATOM      8  H   UNL     1       8.446  -4.383  22.617  0.00  0.00    +0.173 HD
ATOM      9  C   UNL     1       6.580  -4.940  23.233  0.00  0.00    +0.328 A 
ATOM     10  N   UNL     1       5.886  -5.373  24.338  0.00  0.00    -0.292 N 
ATOM     11  H   UNL     1       4.899  -5.555  24.220  0.00  0.00    +0.172 HD
ATOM     12  O   UNL     1       6.036  -4.781  22.147  0.00  0.00    -0.247 OA
ATOM     13  O   UNL     1       9.824  -4.633  24.715  0.00  0.00    -0.265 OA
ATOM     14  C   UNL     1       6.499  -5.555  25.527  0.00  0.00    +0.146 A 
ATOM     15  N   UNL     1       5.956  -5.986  26.697  0.00  0.00    -0.292 N 
ATOM     16  H   UNL     1       5.001  -6.245  26.881  0.00  0.00    +0.172 HD
ENDROOT
TORSDOF 0
ENDMDL
MODEL 3
REMARK VINA RESULT:      -5.0      1.958      4.815
REMARK  Name = 
REMARK  0 active torsions:
REMARK  status: ('A' for Active; 'I' for Inactive)
REMARK                            x       y       z     vdW  Elec       q    Type
REMARK                         _______ _______ _______ _____ _____    ______ ____
ROOT
ATOM      1  O   UNL     1       7.202  -5.293  27.900  0.00  0.00    -0.247 OA
ATOM      2  C   UNL     1       6.771  -5.460  26.776  0.00  0.00    +0.326 A 
ATOM      3  N   UNL     1       5.735  -6.318  26.368  0.00  0.00    -0.301 N 
ATOM      4  H   UNL     1       5.199  -6.922  26.972  0.00  0.00    +0.171 HD
ATOM      5  C   UNL     1       5.581  -6.178  25.020  0.00  0.00    +0.149 A 
ATOM      6  C   UNL     1       4.642  -6.828  24.104  0.00  0.00    +0.280 A 
ATOM      7  N   UNL     1       4.778  -6.418  22.794  0.00  0.00    -0.273 N 
ATOM      8  H   UNL     1       4.152  -6.829  22.117  0.00  0.00    +0.173 HD
ATOM      9  C   UNL     1       5.684  -5.493  22.317  0.00  0.00    +0.328 A 
ATOM     10  N   UNL     1       6.527  -4.942  23.253  0.00  0.00    -0.292 N 
ATOM     11  H   UNL     1       7.198  -4.261  22.923  0.00  0.00    +0.172 HD
ATOM     12  O   UNL     1       5.733  -5.180  21.134  0.00  0.00    -0.247 OA
ATOM     13  O   UNL     1       3.817  -7.653  24.478  0.00  0.00    -0.265 OA
ATOM     14  C   UNL     1       6.456  -5.288  24.555  0.00  0.00    +0.146 A 
ATOM     15  N   UNL     1       7.206  -4.825  25.592  0.00  0.00    -0.292 N 
ATOM     16  H   UNL     1       7.946  -4.143  25.568  0.00  0.00    +0.172 HD
ENDROOT
TORSDOF 0
ENDMDL
MODEL 4
REMARK VINA RESULT:      -4.9      4.681      5.620
REMARK  Name = 
REMARK  0 active torsions:
REMARK  status: ('A' for Active; 'I' for Inactive)
REMARK                            x       y       z     vdW  Elec       q    Type
REMARK                         _______ _______ _______ _____ _____    ______ ____
ROOT
ATOM      1  O   UNL     1      10.842   2.436  23.756  0.00  0.00    -0.247 OA
ATOM      2  C   UNL     1      10.447   1.330  24.067  0.00  0.00    +0.326 A 
ATOM      3  N   UNL     1       9.731   0.962  25.219  0.00  0.00    -0.301 N 
ATOM      4  H   UNL     1       9.444   1.587  25.958  0.00  0.00    +0.171 HD
ATOM      5  C   UNL     1       9.489  -0.378  25.153  0.00  0.00    +0.149 A 
ATOM      6  C   UNL     1       8.778  -1.257  26.083  0.00  0.00    +0.280 A 
ATOM      7  N   UNL     1       8.723  -2.571  25.666  0.00  0.00    -0.273 N 
ATOM      8  H   UNL     1       8.240  -3.223  26.266  0.00  0.00    +0.173 HD
ATOM      9  C   UNL     1       9.260  -3.082  24.503  0.00  0.00    +0.328 A 
ATOM     10  N   UNL     1       9.914  -2.180  23.697  0.00  0.00    -0.292 N 
ATOM     11  H   UNL     1      10.314  -2.535  22.839  0.00  0.00    +0.172 HD
ATOM     12  O   UNL     1       9.160  -4.266  24.204  0.00  0.00    -0.247 OA
ATOM     13  O   UNL     1       8.281  -0.852  27.126  0.00  0.00    -0.265 OA
ATOM     14  C   UNL     1      10.009  -0.876  24.032  0.00  0.00    +0.146 A 
ATOM     15  N   UNL     1      10.606   0.130  23.339  0.00  0.00    -0.292 N 
ATOM     16  H   UNL     1      11.083   0.078  22.454  0.00  0.00    +0.172 HD
ENDROOT
TORSDOF 0
ENDMDL
MODEL 5
REMARK VINA RESULT:      -4.9      1.885      3.342
REMARK  Name = 
REMARK  0 active torsions:
REMARK  status: ('A' for Active; 'I' for Inactive)
REMARK                            x       y       z     vdW  Elec       q    Type
REMARK                         _______ _______ _______ _____ _____    ______ ____
ROOT
ATOM      1  O   UNL     1       9.970  -3.887  24.503  0.00  0.00    -0.247 OA
ATOM      2  C   UNL     1       9.052  -4.444  25.072  0.00  0.00    +0.326 A 
ATOM      3  N   UNL     1       7.766  -4.715  24.576  0.00  0.00    -0.301 N 
ATOM      4  H   UNL     1       7.429  -4.476  23.655  0.00  0.00    +0.171 HD
ATOM      5  C   UNL     1       7.067  -5.363  25.551  0.00  0.00    +0.149 A 
ATOM      6  C   UNL     1       5.695  -5.875  25.549  0.00  0.00    +0.280 A 
ATOM      7  N   UNL     1       5.337  -6.492  26.729  0.00  0.00    -0.273 N 
ATOM      8  H   UNL     1       4.403  -6.870  26.784  0.00  0.00    +0.173 HD
ATOM      9  C   UNL     1       6.134  -6.649  27.844  0.00  0.00    +0.328 A 
ATOM     10  N   UNL     1       7.404  -6.130  27.752  0.00  0.00    -0.292 N 
ATOM     11  H   UNL     1       8.004  -6.236  28.559  0.00  0.00    +0.172 HD
ATOM     12  O   UNL     1       5.738  -7.219  28.853  0.00  0.00    -0.247 OA
ATOM     13  O   UNL     1       4.950  -5.763  24.584  0.00  0.00    -0.265 OA
ATOM     14  C   UNL     1       7.833  -5.514  26.631  0.00  0.00    +0.146 A 
ATOM     15  N   UNL     1       9.053  -4.965  26.385  0.00  0.00    -0.292 N 
ATOM     16  H   UNL     1       9.850  -4.923  26.998  0.00  0.00    +0.172 HD
ENDROOT
TORSDOF 0
ENDMDL
MODEL 6
REMARK VINA RESULT:      -4.9      5.924      7.281
REMARK  Name = 
REMARK  0 active torsions:
REMARK  status: ('A' for Active; 'I' for Inactive)
REMARK                            x       y       z     vdW  Elec       q    Type
REMARK                         _______ _______ _______ _____ _____    ______ ____
ROOT
ATOM      1  O   UNL     1       9.261  -2.835  24.565  0.00  0.00    -0.247 OA
ATOM      2  C   UNL     1       9.487  -1.727  24.118  0.00  0.00    +0.326 A 
ATOM      3  N   UNL     1       9.077  -1.194  22.884  0.00  0.00    -0.301 N 
ATOM      4  H   UNL     1       8.525  -1.676  22.190  0.00  0.00    +0.171 HD
ATOM      5  C   UNL     1       9.547   0.083  22.801  0.00  0.00    +0.149 A 
ATOM      6  C   UNL     1       9.397   1.078  21.738  0.00  0.00    +0.280 A 
ATOM      7  N   UNL     1      10.009   2.281  22.020  0.00  0.00    -0.273 N 
ATOM      8  H   UNL     1       9.934   3.009  21.324  0.00  0.00    +0.173 HD
ATOM      9  C   UNL     1      10.711   2.592  23.166  0.00  0.00    +0.328 A 
ATOM     10  N   UNL     1      10.802   1.591  24.104  0.00  0.00    -0.292 N 
ATOM     11  H   UNL     1      11.313   1.799  24.952  0.00  0.00    +0.172 HD
ATOM     12  O   UNL     1      11.220   3.693  23.340  0.00  0.00    -0.247 OA
ATOM     13  O   UNL     1       8.781   0.853  20.704  0.00  0.00    -0.265 OA
ATOM     14  C   UNL     1      10.229   0.386  23.905  0.00  0.00    +0.146 A 
ATOM     15  N   UNL     1      10.221  -0.691  24.737  0.00  0.00    -0.292 N 
ATOM     16  H   UNL     1      10.642  -0.777  25.647  0.00  0.00    +0.172 HD
ENDROOT
TORSDOF 0
ENDMDL
MODEL 7
REMARK VINA RESULT:      -4.9      2.333      3.963
REMARK  Name = 
REMARK  0 active torsions:
REMARK  status: ('A' for Active; 'I' for Inactive)
REMARK                            x       y       z     vdW  Elec       q    Type
REMARK                         _______ _______ _______ _____ _____    ______ ____
ROOT
ATOM      1  O   UNL     1       3.786  -7.752  24.894  0.00  0.00    -0.247 OA
ATOM      2  C   UNL     1       4.569  -6.956  24.412  0.00  0.00    +0.326 A 
ATOM      3  N   UNL     1       4.767  -6.655  23.054  0.00  0.00    -0.301 N 
ATOM      4  H   UNL     1       4.271  -7.072  22.280  0.00  0.00    +0.171 HD
ATOM      5  C   UNL     1       5.736  -5.699  22.973  0.00  0.00    +0.149 A 
ATOM      6  C   UNL     1       6.309  -5.031  21.803  0.00  0.00    +0.280 A 
ATOM      7  N   UNL     1       7.273  -4.097  22.120  0.00  0.00    -0.273 N 
ATOM      8  H   UNL     1       7.700  -3.600  21.353  0.00  0.00    +0.173 HD
ATOM      9  C   UNL     1       7.707  -3.769  23.388  0.00  0.00    +0.328 A 
ATOM     10  N   UNL     1       7.114  -4.454  24.422  0.00  0.00    -0.292 N 
ATOM     11  H   UNL     1       7.418  -4.227  25.359  0.00  0.00    +0.172 HD
ATOM     12  O   UNL     1       8.567  -2.918  23.582  0.00  0.00    -0.247 OA
ATOM     13  O   UNL     1       5.956  -5.284  20.659  0.00  0.00    -0.265 OA
ATOM     14  C   UNL     1       6.160  -5.382  24.196  0.00  0.00    +0.146 A 
ATOM     15  N   UNL     1       5.477  -6.127  25.106  0.00  0.00    -0.292 N 
ATOM     16  H   UNL     1       5.564  -6.116  26.109  0.00  0.00    +0.172 HD
ENDROOT
TORSDOF 0
ENDMDL
MODEL 8
REMARK VINA RESULT:      -4.9      2.224      4.604
REMARK  Name = 
REMARK  0 active torsions:
REMARK  status: ('A' for Active; 'I' for Inactive)
REMARK                            x       y       z     vdW  Elec       q    Type
REMARK                         _______ _______ _______ _____ _____    ______ ____
ROOT
ATOM      1  O   UNL     1       7.601  -5.848  26.732  0.00  0.00    -0.247 OA
ATOM      2  C   UNL     1       7.889  -5.090  25.827  0.00  0.00    +0.326 A 
ATOM      3  N   UNL     1       7.132  -4.784  24.683  0.00  0.00    -0.301 N 
ATOM      4  H   UNL     1       6.225  -5.166  24.458  0.00  0.00    +0.171 HD
ATOM      5  C   UNL     1       7.836  -3.880  23.943  0.00  0.00    +0.149 A 
ATOM      6  C   UNL     1       7.499  -3.230  22.675  0.00  0.00    +0.280 A 
ATOM      7  N   UNL     1       8.466  -2.352  22.233  0.00  0.00    -0.273 N 
ATOM      8  H   UNL     1       8.286  -1.870  21.365  0.00  0.00    +0.173 HD
ATOM      9  C   UNL     1       9.657  -2.061  22.867  0.00  0.00    +0.328 A 
ATOM     10  N   UNL     1       9.886  -2.725  24.049  0.00  0.00    -0.292 N 
ATOM     11  H   UNL     1      10.753  -2.525  24.529  0.00  0.00    +0.172 HD
ATOM     12  O   UNL     1      10.460  -1.259  22.407  0.00  0.00    -0.247 OA
ATOM     13  O   UNL     1       6.455  -3.452  22.076  0.00  0.00    -0.265 OA
ATOM     14  C   UNL     1       8.988  -3.599  24.550  0.00  0.00    +0.146 A 
ATOM     15  N   UNL     1       9.065  -4.317  25.703  0.00  0.00    -0.292 N 
ATOM     16  H   UNL     1       9.806  -4.322  26.384  0.00  0.00    +0.172 HD
ENDROOT
TORSDOF 0
ENDMDL
MODEL 9
REMARK VINA RESULT:      -4.9      2.227      3.699
REMARK  Name = 
REMARK  0 active torsions:
REMARK  status: ('A' for Active; 'I' for Inactive)
REMARK                            x       y       z     vdW  Elec       q    Type
REMARK                         _______ _______ _______ _____ _____    ______ ____
ROOT
ATOM      1  O   UNL     1       4.910  -5.257  22.211  0.00  0.00    -0.247 OA
ATOM      2  C   UNL     1       5.929  -4.661  22.501  0.00  0.00    +0.326 A 
ATOM      3  N   UNL     1       6.820  -4.936  23.552  0.00  0.00    -0.301 N 
ATOM      4  H   UNL     1       6.727  -5.686  24.221  0.00  0.00    +0.171 HD
ATOM      5  C   UNL     1       7.829  -4.021  23.498  0.00  0.00    +0.149 A 
ATOM      6  C   UNL     1       9.011  -3.865  24.348  0.00  0.00    +0.280 A 
ATOM      7  N   UNL     1       9.824  -2.817  23.972  0.00  0.00    -0.273 N 
ATOM      8  H   UNL     1      10.659  -2.665  24.520  0.00  0.00    +0.173 HD
ATOM      9  C   UNL     1       9.613  -1.957  22.915  0.00  0.00    +0.328 A 
ATOM     10  N   UNL     1       8.473  -2.179  22.178  0.00  0.00    -0.292 N 
ATOM     11  H   UNL     1       8.301  -1.560  21.398  0.00  0.00    +0.172 HD
ATOM     12  O   UNL     1      10.394  -1.052  22.645  0.00  0.00    -0.247 OA
ATOM     13  O   UNL     1       9.244  -4.604  25.296  0.00  0.00    -0.265 OA
ATOM     14  C   UNL     1       7.627  -3.186  22.479  0.00  0.00    +0.146 A 
ATOM     15  N   UNL     1       6.477  -3.537  21.843  0.00  0.00    -0.292 N 
ATOM     16  H   UNL     1       6.056  -3.107  21.037  0.00  0.00    +0.172 HD
ENDROOT
TORSDOF 0
ENDMDL
