MODEL 1
REMARK VINA RESULT:      -8.1      0.000      0.000
REMARK  Name = 
REMARK  12 active torsions:
REMARK  status: ('A' for Active; 'I' for Inactive)
REMARK    1  A    between atoms: C_1  and  O_2
REMARK    2  A    between atoms: O_2  and  C_3
REMARK    3  A    between atoms: C_5  and  C_11
REMARK    4  A    between atoms: C_7  and  O_8
REMARK    5  A    between atoms: O_8  and  C_9
REMARK    6  A    between atoms: N_13  and  C_14
REMARK    7  A    between atoms: C_16  and  O_18
REMARK    8  A    between atoms: C_19  and  C_21
REMARK    9  A    between atoms: C_21  and  O_22
REMARK   10  A    between atoms: C_24  and  N_26
REMARK   11  A    between atoms: N_35  and  C_36
REMARK   12  A    between atoms: C_36  and  C_37
REMARK                            x       y       z     vdW  Elec       q    Type
REMARK                         _______ _______ _______ _____ _____    ______ ____
ROOT
ATOM      1  C   UNL     1       6.744  -3.993  24.908  0.00  0.00    +0.154 C 
ATOM      2  C   UNL     1       7.174  -3.029  26.038  0.00  0.00    +0.245 C 
ATOM      3  O   UNL     1       7.770  -3.808  27.102  0.00  0.00    -0.346 OA
ATOM      4  C   UNL     1       7.827  -5.195  26.710  0.00  0.00    +0.176 C 
ATOM      5  C   UNL     1       7.550  -5.262  25.208  0.00  0.00    +0.170 C 
ENDROOT
BRANCH   2   6
ATOM      6  N   UNL     1       8.091  -1.946  25.712  0.00  0.00    -0.286 N 
ATOM      7  C   UNL     1       8.470  -1.458  24.489  0.00  0.00    +0.167 A 
ATOM      8  N   UNL     1       8.113  -1.905  23.272  0.00  0.00    -0.216 NA
ATOM      9  C   UNL     1       8.641  -1.134  22.296  0.00  0.00    +0.225 A 
ATOM     10  N   UNL     1       9.437  -0.052  22.419  0.00  0.00    -0.219 NA
ATOM     11  C   UNL     1       9.803   0.358  23.661  0.00  0.00    +0.150 A 
ATOM     12  N   UNL     1      10.648   1.459  23.826  0.00  0.00    -0.323 N 
ATOM     13  H   UNL     1      10.619   1.793  24.787  0.00  0.00    +0.148 HD
ATOM     14  C   UNL     1       9.297  -0.375  24.763  0.00  0.00    +0.147 A 
ATOM     15  N   UNL     1       9.451  -0.216  26.123  0.00  0.00    -0.231 NA
ATOM     16  C   UNL     1       8.727  -1.175  26.659  0.00  0.00    +0.203 A 
BRANCH  12  17
ATOM     17  C   UNL     1      10.506   2.492  22.810  0.00  0.00    +0.139 C 
BRANCH  17  18
ATOM     18  C   UNL     1      10.779   3.866  23.398  0.00  0.00    -0.023 A 
ATOM     19  C   UNL     1       9.759   4.674  23.985  0.00  0.00    -0.013 A 
ATOM     20  C   UNL     1       8.416   4.262  24.140  0.00  0.00    +0.009 A 
ATOM     21  C   UNL     1       7.444   5.109  24.680  0.00  0.00    +0.001 A 
ATOM     22  C   UNL     1       7.791   6.390  25.089  0.00  0.00    +0.001 A 
ATOM     23  C   UNL     1       9.112   6.818  24.980  0.00  0.00    +0.008 A 
ATOM     24  C   UNL     1      10.100   5.977  24.437  0.00  0.00    -0.018 A 
ATOM     25  C   UNL     1      11.420   6.435  24.335  0.00  0.00    +0.008 A 
ATOM     26  C   UNL     1      12.416   5.630  23.790  0.00  0.00    +0.001 A 
ATOM     27  C   UNL     1      12.098   4.358  23.326  0.00  0.00    +0.006 A 
ENDBRANCH  17  18
ENDBRANCH  12  17
ENDBRANCH   2   6
BRANCH   1  29
ATOM     28  C   UNL     1       4.597  -4.710  23.809  0.00  0.00    +0.245 C 
ATOM     29  N   UNL     1       5.299  -4.310  24.926  0.00  0.00    -0.302 N 
ATOM     30  H   UNL     1       4.782  -3.993  25.739  0.00  0.00    +0.150 HD
ATOM     31  O   UNL     1       5.136  -4.773  22.709  0.00  0.00    -0.270 OA
BRANCH  28  36
ATOM     32  C   UNL     1       1.150  -6.167  23.131  0.00  0.00    +0.124 A 
ATOM     33  C   UNL     1       0.443  -5.792  24.275  0.00  0.00    +0.091 A 
ATOM     34  C   UNL     1       1.070  -5.049  25.274  0.00  0.00    +0.124 A 
ATOM     35  C   UNL     1       2.409  -4.672  25.123  0.00  0.00    +0.059 A 
ATOM     36  C   UNL     1       3.140  -5.044  23.988  0.00  0.00    +0.044 A 
ATOM     37  C   UNL     1       2.494  -5.794  22.992  0.00  0.00    +0.059 A 
BRANCH  32  39
ATOM     38  C   UNL     1       1.089  -8.244  21.964  0.00  0.00    +0.277 C 
ATOM     39  O   UNL     1       0.633  -6.897  22.093  0.00  0.00    -0.495 OA
ENDBRANCH  32  39
BRANCH  34  40
ATOM     40  O   UNL     1       0.494  -4.644  26.448  0.00  0.00    -0.495 OA
ATOM     41  C   UNL     1       1.281  -4.745  27.630  0.00  0.00    +0.277 C 
ENDBRANCH  34  40
ENDBRANCH  28  36
ENDBRANCH   1  29
BRANCH   5  42
ATOM     42  O   UNL     1       8.776  -5.343  24.482  0.00  0.00    -0.387 OA
ATOM     43  H   UNL     1       8.755  -4.705  23.739  0.00  0.00    +0.210 HD
ENDBRANCH   5  42
BRANCH   4  44
ATOM     44  C   UNL     1       6.801  -5.987  27.540  0.00  0.00    +0.190 C 
BRANCH  44  45
ATOM     45  O   UNL     1       5.833  -6.628  26.709  0.00  0.00    -0.392 OA
ATOM     46  H   UNL     1       6.338  -7.216  26.114  0.00  0.00    +0.210 HD
ENDBRANCH  44  45
ENDBRANCH   4  44
TORSDOF 10
ENDMDL
MODEL 2
REMARK VINA RESULT:      -8.1      1.850      2.722
REMARK  Name = 
REMARK  12 active torsions:
REMARK  status: ('A' for Active; 'I' for Inactive)
REMARK    1  A    between atoms: C_1  and  O_2
REMARK    2  A    between atoms: O_2  and  C_3
REMARK    3  A    between atoms: C_5  and  C_11
REMARK    4  A    between atoms: C_7  and  O_8
REMARK    5  A    between atoms: O_8  and  C_9
REMARK    6  A    between atoms: N_13  and  C_14
REMARK    7  A    between atoms: C_16  and  O_18
REMARK    8  A    between atoms: C_19  and  C_21
REMARK    9  A    between atoms: C_21  and  O_22
REMARK   10  A    between atoms: C_24  and  N_26
REMARK   11  A    between atoms: N_35  and  C_36
REMARK   12  A    between atoms: C_36  and  C_37
REMARK                            x       y       z     vdW  Elec       q    Type
REMARK                         _______ _______ _______ _____ _____    ______ ____
ROOT
ATOM      1  C   UNL     1       6.017  -3.305  24.217  0.00  0.00    +0.154 C 
ATOM      2  C   UNL     1       7.557  -3.397  24.312  0.00  0.00    +0.245 C 
ATOM      3  O   UNL     1       8.040  -4.173  23.189  0.00  0.00    -0.346 OA
ATOM      4  C   UNL     1       6.932  -4.524  22.335  0.00  0.00    +0.176 C 
ATOM      5  C   UNL     1       5.736  -3.669  22.755  0.00  0.00    +0.170 C 
ENDROOT
BRANCH   2   6
ATOM      6  N   UNL     1       8.323  -2.160  24.359  0.00  0.00    -0.286 N 
ATOM      7  C   UNL     1       8.810  -1.391  23.333  0.00  0.00    +0.167 A 
ATOM      8  N   UNL     1       8.733  -1.629  22.012  0.00  0.00    -0.216 NA
ATOM      9  C   UNL     1       9.278  -0.616  21.304  0.00  0.00    +0.225 A 
ATOM     10  N   UNL     1       9.853   0.515  21.761  0.00  0.00    -0.219 NA
ATOM     11  C   UNL     1       9.940   0.713  23.102  0.00  0.00    +0.150 A 
ATOM     12  N   UNL     1      10.554   1.860  23.614  0.00  0.00    -0.323 N 
ATOM     13  H   UNL     1      10.315   1.988  24.594  0.00  0.00    +0.148 HD
ATOM     14  C   UNL     1       9.391  -0.285  23.944  0.00  0.00    +0.147 A 
ATOM     15  N   UNL     1       9.294  -0.384  25.314  0.00  0.00    -0.231 NA
ATOM     16  C   UNL     1       8.661  -1.517  25.528  0.00  0.00    +0.203 A 
BRANCH  12  17
ATOM     17  C   UNL     1      10.410   3.047  22.784  0.00  0.00    +0.139 C 
BRANCH  17  18
ATOM     18  C   UNL     1      10.783   4.297  23.563  0.00  0.00    -0.023 A 
ATOM     19  C   UNL     1       9.868   4.977  24.421  0.00  0.00    -0.013 A 
ATOM     20  C   UNL     1       8.554   4.531  24.687  0.00  0.00    +0.009 A 
ATOM     21  C   UNL     1       7.680   5.259  25.500  0.00  0.00    +0.001 A 
ATOM     22  C   UNL     1       8.100   6.450  26.078  0.00  0.00    +0.001 A 
ATOM     23  C   UNL     1       9.400   6.903  25.863  0.00  0.00    +0.008 A 
ATOM     24  C   UNL     1      10.289   6.182  25.046  0.00  0.00    -0.018 A 
ATOM     25  C   UNL     1      11.589   6.663  24.844  0.00  0.00    +0.008 A 
ATOM     26  C   UNL     1      12.487   5.978  24.029  0.00  0.00    +0.001 A 
ATOM     27  C   UNL     1      12.087   4.806  23.396  0.00  0.00    +0.006 A 
ENDBRANCH  17  18
ENDBRANCH  12  17
ENDBRANCH   2   6
BRANCH   1  29
ATOM     28  C   UNL     1       4.054  -4.036  25.611  0.00  0.00    +0.245 C 
ATOM     29  N   UNL     1       5.316  -4.258  25.106  0.00  0.00    -0.302 N 
ATOM     30  H   UNL     1       5.892  -4.979  25.530  0.00  0.00    +0.150 HD
ATOM     31  O   UNL     1       3.456  -2.988  25.388  0.00  0.00    -0.270 OA
BRANCH  28  36
ATOM     32  C   UNL     1       1.642  -6.722  26.810  0.00  0.00    +0.124 A 
ATOM     33  C   UNL     1       2.283  -7.202  27.953  0.00  0.00    +0.091 A 
ATOM     34  C   UNL     1       3.498  -6.653  28.358  0.00  0.00    +0.124 A 
ATOM     35  C   UNL     1       4.069  -5.609  27.622  0.00  0.00    +0.059 A 
ATOM     36  C   UNL     1       3.448  -5.116  26.467  0.00  0.00    +0.044 A 
ATOM     37  C   UNL     1       2.226  -5.683  26.071  0.00  0.00    +0.059 A 
BRANCH  32  39
ATOM     38  C   UNL     1       0.488  -7.846  25.054  0.00  0.00    +0.277 C 
ATOM     39  O   UNL     1       0.450  -7.190  26.321  0.00  0.00    -0.495 OA
ENDBRANCH  32  39
BRANCH  34  40
ATOM     40  O   UNL     1       4.233  -7.053  29.441  0.00  0.00    -0.495 OA
ATOM     41  C   UNL     1       5.453  -6.363  29.692  0.00  0.00    +0.277 C 
ENDBRANCH  34  40
ENDBRANCH  28  36
ENDBRANCH   1  29
BRANCH   5  42
ATOM     42  O   UNL     1       5.616  -2.533  21.898  0.00  0.00    -0.387 OA
ATOM     43  H   UNL     1       4.752  -2.099  22.056  0.00  0.00    +0.210 HD
ENDBRANCH   5  42
BRANCH   4  44
ATOM     44  C   UNL     1       6.660  -6.033  22.470  0.00  0.00    +0.190 C 
BRANCH  44  45
ATOM     45  O   UNL     1       5.272  -6.303  22.662  0.00  0.00    -0.392 OA
ATOM     46  H   UNL     1       5.069  -7.077  22.100  0.00  0.00    +0.210 HD
ENDBRANCH  44  45
ENDBRANCH   4  44
TORSDOF 10
ENDMDL
MODEL 3
REMARK VINA RESULT:      -8.1      0.624      1.977
REMARK  Name = 
REMARK  12 active torsions:
REMARK  status: ('A' for Active; 'I' for Inactive)
REMARK    1  A    between atoms: C_1  and  O_2
REMARK    2  A    between atoms: O_2  and  C_3
REMARK    3  A    between atoms: C_5  and  C_11
REMARK    4  A    between atoms: C_7  and  O_8
REMARK    5  A    between atoms: O_8  and  C_9
REMARK    6  A    between atoms: N_13  and  C_14
REMARK    7  A    between atoms: C_16  and  O_18
REMARK    8  A    between atoms: C_19  and  C_21
REMARK    9  A    between atoms: C_21  and  O_22
REMARK   10  A    between atoms: C_24  and  N_26
REMARK   11  A    between atoms: N_35  and  C_36
REMARK   12  A    between atoms: C_36  and  C_37
REMARK                            x       y       z     vdW  Elec       q    Type
REMARK                         _______ _______ _______ _____ _____    ______ ____
ROOT
ATOM      1  C   UNL     1       6.898  -4.047  24.705  0.00  0.00    +0.154 C 
ATOM      2  C   UNL     1       7.188  -3.028  25.831  0.00  0.00    +0.245 C 
ATOM      3  O   UNL     1       7.694  -3.747  26.981  0.00  0.00    -0.346 OA
ATOM      4  C   UNL     1       7.826  -5.146  26.655  0.00  0.00    +0.176 C 
ATOM      5  C   UNL     1       7.702  -5.280  25.137  0.00  0.00    +0.170 C 
ENDROOT
BRANCH   2   6
ATOM      6  N   UNL     1       8.105  -1.932  25.553  0.00  0.00    -0.286 N 
ATOM      7  C   UNL     1       8.521  -1.422  24.350  0.00  0.00    +0.167 A 
ATOM      8  N   UNL     1       8.209  -1.854  23.115  0.00  0.00    -0.216 NA
ATOM      9  C   UNL     1       8.763  -1.063  22.170  0.00  0.00    +0.225 A 
ATOM     10  N   UNL     1       9.544   0.024  22.336  0.00  0.00    -0.219 NA
ATOM     11  C   UNL     1       9.863   0.418  23.596  0.00  0.00    +0.150 A 
ATOM     12  N   UNL     1      10.692   1.525  23.806  0.00  0.00    -0.323 N 
ATOM     13  H   UNL     1      10.627   1.843  24.770  0.00  0.00    +0.148 HD
ATOM     14  C   UNL     1       9.328  -0.335  24.669  0.00  0.00    +0.147 A 
ATOM     15  N   UNL     1       9.434  -0.197  26.035  0.00  0.00    -0.231 NA
ATOM     16  C   UNL     1       8.701  -1.170  26.532  0.00  0.00    +0.203 A 
BRANCH  12  17
ATOM     17  C   UNL     1      10.575   2.571  22.801  0.00  0.00    +0.139 C 
BRANCH  17  18
ATOM     18  C   UNL     1      10.828   3.938  23.416  0.00  0.00    -0.023 A 
ATOM     19  C   UNL     1       9.799   4.719  24.019  0.00  0.00    -0.013 A 
ATOM     20  C   UNL     1       8.462   4.285  24.169  0.00  0.00    +0.009 A 
ATOM     21  C   UNL     1       7.479   5.107  24.726  0.00  0.00    +0.001 A 
ATOM     22  C   UNL     1       7.808   6.385  25.160  0.00  0.00    +0.001 A 
ATOM     23  C   UNL     1       9.123   6.834  25.057  0.00  0.00    +0.008 A 
ATOM     24  C   UNL     1      10.122   6.018  24.497  0.00  0.00    -0.018 A 
ATOM     25  C   UNL     1      11.435   6.496  24.402  0.00  0.00    +0.008 A 
ATOM     26  C   UNL     1      12.441   5.716  23.839  0.00  0.00    +0.001 A 
ATOM     27  C   UNL     1      12.140   4.449  23.351  0.00  0.00    +0.006 A 
ENDBRANCH  17  18
ENDBRANCH  12  17
ENDBRANCH   2   6
BRANCH   1  29
ATOM     28  C   UNL     1       4.934  -5.060  23.504  0.00  0.00    +0.245 C 
ATOM     29  N   UNL     1       5.467  -4.407  24.593  0.00  0.00    -0.302 N 
ATOM     30  H   UNL     1       4.838  -3.942  25.240  0.00  0.00    +0.150 HD
ATOM     31  O   UNL     1       5.623  -5.336  22.527  0.00  0.00    -0.270 OA
BRANCH  28  36
ATOM     32  C   UNL     1       1.202  -4.740  24.171  0.00  0.00    +0.124 A 
ATOM     33  C   UNL     1       0.701  -5.911  23.598  0.00  0.00    +0.091 A 
ATOM     34  C   UNL     1       1.567  -6.825  23.001  0.00  0.00    +0.124 A 
ATOM     35  C   UNL     1       2.943  -6.573  22.987  0.00  0.00    +0.059 A 
ATOM     36  C   UNL     1       3.468  -5.401  23.548  0.00  0.00    +0.044 A 
ATOM     37  C   UNL     1       2.581  -4.489  24.143  0.00  0.00    +0.059 A 
BRANCH  32  39
ATOM     38  C   UNL     1       0.653  -3.576  26.176  0.00  0.00    +0.277 C 
ATOM     39  O   UNL     1       0.443  -3.775  24.778  0.00  0.00    -0.495 OA
ENDBRANCH  32  39
BRANCH  34  40
ATOM     40  O   UNL     1       1.196  -7.991  22.387  0.00  0.00    -0.495 OA
ATOM     41  C   UNL     1       0.706  -7.898  21.053  0.00  0.00    +0.277 C 
ENDBRANCH  34  40
ENDBRANCH  28  36
ENDBRANCH   1  29
BRANCH   5  42
ATOM     42  O   UNL     1       8.997  -5.352  24.540  0.00  0.00    -0.387 OA
ATOM     43  H   UNL     1       9.680  -5.267  25.237  0.00  0.00    +0.210 HD
ENDBRANCH   5  42
BRANCH   4  44
ATOM     44  C   UNL     1       6.742  -5.935  27.410  0.00  0.00    +0.190 C 
BRANCH  44  45
ATOM     45  O   UNL     1       5.858  -6.608  26.515  0.00  0.00    -0.392 OA
ATOM     46  H   UNL     1       5.196  -7.057  27.078  0.00  0.00    +0.210 HD
ENDBRANCH  44  45
ENDBRANCH   4  44
TORSDOF 10
ENDMDL
MODEL 4
REMARK VINA RESULT:      -8.0      1.994      3.239
REMARK  Name = 
REMARK  12 active torsions:
REMARK  status: ('A' for Active; 'I' for Inactive)
REMARK    1  A    between atoms: C_1  and  O_2
REMARK    2  A    between atoms: O_2  and  C_3
REMARK    3  A    between atoms: C_5  and  C_11
REMARK    4  A    between atoms: C_7  and  O_8
REMARK    5  A    between atoms: O_8  and  C_9
REMARK    6  A    between atoms: N_13  and  C_14
REMARK    7  A    between atoms: C_16  and  O_18
REMARK    8  A    between atoms: C_19  and  C_21
REMARK    9  A    between atoms: C_21  and  O_22
REMARK   10  A    between atoms: C_24  and  N_26
REMARK   11  A    between atoms: N_35  and  C_36
REMARK   12  A    between atoms: C_36  and  C_37
REMARK                            x       y       z     vdW  Elec       q    Type
REMARK                         _______ _______ _______ _____ _____    ______ ____
ROOT
ATOM      1  C   UNL     1       5.960  -3.318  24.171  0.00  0.00    +0.154 C 
ATOM      2  C   UNL     1       7.498  -3.417  24.299  0.00  0.00    +0.245 C 
ATOM      3  O   UNL     1       7.999  -4.210  23.197  0.00  0.00    -0.346 OA
ATOM      4  C   UNL     1       6.907  -4.565  22.323  0.00  0.00    +0.176 C 
ATOM      5  C   UNL     1       5.708  -3.698  22.707  0.00  0.00    +0.170 C 
ENDROOT
BRANCH   2   6
ATOM      6  N   UNL     1       8.269  -2.184  24.347  0.00  0.00    -0.286 N 
ATOM      7  C   UNL     1       8.768  -1.422  23.323  0.00  0.00    +0.167 A 
ATOM      8  N   UNL     1       8.699  -1.663  22.002  0.00  0.00    -0.216 NA
ATOM      9  C   UNL     1       9.254  -0.656  21.294  0.00  0.00    +0.225 A 
ATOM     10  N   UNL     1       9.832   0.474  21.751  0.00  0.00    -0.219 NA
ATOM     11  C   UNL     1       9.911   0.675  23.092  0.00  0.00    +0.150 A 
ATOM     12  N   UNL     1      10.527   1.822  23.604  0.00  0.00    -0.323 N 
ATOM     13  H   UNL     1      10.281   1.954  24.582  0.00  0.00    +0.148 HD
ATOM     14  C   UNL     1       9.350  -0.317  23.933  0.00  0.00    +0.147 A 
ATOM     15  N   UNL     1       9.243  -0.410  25.303  0.00  0.00    -0.231 NA
ATOM     16  C   UNL     1       8.603  -1.539  25.517  0.00  0.00    +0.203 A 
BRANCH  12  17
ATOM     17  C   UNL     1      10.395   3.007  22.769  0.00  0.00    +0.139 C 
BRANCH  17  18
ATOM     18  C   UNL     1      10.817   4.252  23.531  0.00  0.00    -0.023 A 
ATOM     19  C   UNL     1       9.940   4.961  24.404  0.00  0.00    -0.013 A 
ATOM     20  C   UNL     1       8.621   4.550  24.702  0.00  0.00    +0.009 A 
ATOM     21  C   UNL     1       7.784   5.306  25.529  0.00  0.00    +0.001 A 
ATOM     22  C   UNL     1       8.247   6.489  26.089  0.00  0.00    +0.001 A 
ATOM     23  C   UNL     1       9.554   6.907  25.842  0.00  0.00    +0.008 A 
ATOM     24  C   UNL     1      10.406   6.158  25.011  0.00  0.00    -0.018 A 
ATOM     25  C   UNL     1      11.713   6.604  24.776  0.00  0.00    +0.008 A 
ATOM     26  C   UNL     1      12.574   5.890  23.947  0.00  0.00    +0.001 A 
ATOM     27  C   UNL     1      12.130   4.725  23.331  0.00  0.00    +0.006 A 
ENDBRANCH  17  18
ENDBRANCH  12  17
ENDBRANCH   2   6
BRANCH   1  29
ATOM     28  C   UNL     1       3.956  -4.031  25.514  0.00  0.00    +0.245 C 
ATOM     29  N   UNL     1       5.235  -4.256  25.056  0.00  0.00    -0.302 N 
ATOM     30  H   UNL     1       5.800  -4.964  25.515  0.00  0.00    +0.150 HD
ATOM     31  O   UNL     1       3.359  -2.992  25.248  0.00  0.00    -0.270 OA
BRANCH  28  36
ATOM     32  C   UNL     1       2.803  -5.914  28.611  0.00  0.00    +0.124 A 
ATOM     33  C   UNL     1       2.106  -6.989  28.057  0.00  0.00    +0.091 A 
ATOM     34  C   UNL     1       2.012  -7.126  26.673  0.00  0.00    +0.124 A 
ATOM     35  C   UNL     1       2.629  -6.187  25.839  0.00  0.00    +0.059 A 
ATOM     36  C   UNL     1       3.327  -5.096  26.372  0.00  0.00    +0.044 A 
ATOM     37  C   UNL     1       3.409  -4.972  27.769  0.00  0.00    +0.059 A 
BRANCH  32  39
ATOM     38  C   UNL     1       4.064  -4.876  30.347  0.00  0.00    +0.277 C 
ATOM     39  O   UNL     1       2.954  -5.683  29.954  0.00  0.00    -0.495 OA
ENDBRANCH  32  39
BRANCH  34  40
ATOM     40  O   UNL     1       1.338  -8.117  26.013  0.00  0.00    -0.495 OA
ATOM     41  C   UNL     1       1.939  -8.641  24.834  0.00  0.00    +0.277 C 
ENDBRANCH  34  40
ENDBRANCH  28  36
ENDBRANCH   1  29
BRANCH   5  42
ATOM     42  O   UNL     1       5.613  -2.572  21.835  0.00  0.00    -0.387 OA
ATOM     43  H   UNL     1       5.165  -2.841  21.007  0.00  0.00    +0.210 HD
ENDBRANCH   5  42
BRANCH   4  44
ATOM     44  C   UNL     1       6.623  -6.070  22.472  0.00  0.00    +0.190 C 
BRANCH  44  45
ATOM     45  O   UNL     1       5.229  -6.332  22.622  0.00  0.00    -0.392 OA
ATOM     46  H   UNL     1       4.846  -6.268  21.725  0.00  0.00    +0.210 HD
ENDBRANCH  44  45
ENDBRANCH   4  44
TORSDOF 10
ENDMDL
MODEL 5
REMARK VINA RESULT:      -7.9      2.609      4.616
REMARK  Name = 
REMARK  12 active torsions:
REMARK  status: ('A' for Active; 'I' for Inactive)
REMARK    1  A    between atoms: C_1  and  O_2
REMARK    2  A    between atoms: O_2  and  C_3
REMARK    3  A    between atoms: C_5  and  C_11
REMARK    4  A    between atoms: C_7  and  O_8
REMARK    5  A    between atoms: O_8  and  C_9
REMARK    6  A    between atoms: N_13  and  C_14
REMARK    7  A    between atoms: C_16  and  O_18
REMARK    8  A    between atoms: C_19  and  C_21
REMARK    9  A    between atoms: C_21  and  O_22
REMARK   10  A    between atoms: C_24  and  N_26
REMARK   11  A    between atoms: N_35  and  C_36
REMARK   12  A    between atoms: C_36  and  C_37
REMARK                            x       y       z     vdW  Elec       q    Type
REMARK                         _______ _______ _______ _____ _____    ______ ____
ROOT
ATOM      1  C   UNL     1       7.309  -1.690  22.772  0.00  0.00    +0.154 C 
ATOM      2  C   UNL     1       7.557  -0.507  23.737  0.00  0.00    +0.245 C 
ATOM      3  O   UNL     1       8.916  -0.593  24.226  0.00  0.00    -0.346 OA
ATOM      4  C   UNL     1       9.589  -1.698  23.589  0.00  0.00    +0.176 C 
ATOM      5  C   UNL     1       8.727  -2.144  22.408  0.00  0.00    +0.170 C 
ENDROOT
BRANCH   2   6
ATOM      6  N   UNL     1       7.346   0.846  23.242  0.00  0.00    -0.286 N 
ATOM      7  C   UNL     1       6.305   1.709  23.468  0.00  0.00    +0.167 A 
ATOM      8  N   UNL     1       5.186   1.488  24.181  0.00  0.00    -0.216 NA
ATOM      9  C   UNL     1       4.415   2.596  24.230  0.00  0.00    +0.225 A 
ATOM     10  N   UNL     1       4.640   3.802  23.669  0.00  0.00    -0.219 NA
ATOM     11  C   UNL     1       5.766   3.984  22.932  0.00  0.00    +0.150 A 
ATOM     12  N   UNL     1       6.019   5.213  22.313  0.00  0.00    -0.323 N 
ATOM     13  H   UNL     1       6.994   5.276  22.028  0.00  0.00    +0.148 HD
ATOM     14  C   UNL     1       6.655   2.888  22.821  0.00  0.00    +0.147 A 
ATOM     15  N   UNL     1       7.868   2.747  22.182  0.00  0.00    -0.231 NA
ATOM     16  C   UNL     1       8.247   1.514  22.445  0.00  0.00    +0.203 A 
BRANCH  12  17
ATOM     17  C   UNL     1       5.510   6.372  23.032  0.00  0.00    +0.139 C 
BRANCH  17  18
ATOM     18  C   UNL     1       6.281   6.586  24.323  0.00  0.00    -0.023 A 
ATOM     19  C   UNL     1       7.706   6.551  24.391  0.00  0.00    -0.013 A 
ATOM     20  C   UNL     1       8.546   6.381  23.267  0.00  0.00    +0.009 A 
ATOM     21  C   UNL     1       9.936   6.307  23.392  0.00  0.00    +0.001 A 
ATOM     22  C   UNL     1      10.527   6.412  24.644  0.00  0.00    +0.001 A 
ATOM     23  C   UNL     1       9.730   6.612  25.770  0.00  0.00    +0.008 A 
ATOM     24  C   UNL     1       8.330   6.686  25.660  0.00  0.00    -0.018 A 
ATOM     25  C   UNL     1       7.554   6.884  26.809  0.00  0.00    +0.008 A 
ATOM     26  C   UNL     1       6.165   6.947  26.732  0.00  0.00    +0.001 A 
ATOM     27  C   UNL     1       5.536   6.799  25.500  0.00  0.00    +0.006 A 
ENDBRANCH  17  18
ENDBRANCH  12  17
ENDBRANCH   2   6
BRANCH   1  29
ATOM     28  C   UNL     1       5.825  -3.719  22.680  0.00  0.00    +0.245 C 
ATOM     29  N   UNL     1       6.576  -2.813  23.396  0.00  0.00    -0.302 N 
ATOM     30  H   UNL     1       6.445  -2.757  24.401  0.00  0.00    +0.150 HD
ATOM     31  O   UNL     1       5.680  -3.606  21.467  0.00  0.00    -0.270 OA
BRANCH  28  36
ATOM     32  C   UNL     1       5.140  -6.248  25.437  0.00  0.00    +0.124 A 
ATOM     33  C   UNL     1       3.967  -6.859  24.989  0.00  0.00    +0.091 A 
ATOM     34  C   UNL     1       3.391  -6.470  23.782  0.00  0.00    +0.124 A 
ATOM     35  C   UNL     1       3.998  -5.471  23.012  0.00  0.00    +0.059 A 
ATOM     36  C   UNL     1       5.171  -4.838  23.445  0.00  0.00    +0.044 A 
ATOM     37  C   UNL     1       5.736  -5.241  24.666  0.00  0.00    +0.059 A 
BRANCH  32  39
ATOM     38  C   UNL     1       6.482  -5.484  27.252  0.00  0.00    +0.277 C 
ATOM     39  O   UNL     1       5.787  -6.550  26.607  0.00  0.00    -0.495 OA
ENDBRANCH  32  39
BRANCH  34  40
ATOM     40  O   UNL     1       2.235  -6.973  23.251  0.00  0.00    -0.495 OA
ATOM     41  C   UNL     1       1.332  -7.614  24.145  0.00  0.00    +0.277 C 
ENDBRANCH  34  40
ENDBRANCH  28  36
ENDBRANCH   1  29
BRANCH   5  42
ATOM     42  O   UNL     1       9.215  -1.571  21.195  0.00  0.00    -0.387 OA
ATOM     43  H   UNL     1       8.805  -0.691  21.065  0.00  0.00    +0.210 HD
ENDBRANCH   5  42
BRANCH   4  44
ATOM     44  C   UNL     1       9.798  -2.815  24.627  0.00  0.00    +0.190 C 
BRANCH  44  45
ATOM     45  O   UNL     1       9.309  -4.071  24.157  0.00  0.00    -0.392 OA
ATOM     46  H   UNL     1       8.982  -3.908  23.250  0.00  0.00    +0.210 HD
ENDBRANCH  44  45
ENDBRANCH   4  44
TORSDOF 10
ENDMDL
MODEL 6
REMARK VINA RESULT:      -7.9      2.002      2.874
REMARK  Name = 
REMARK  12 active torsions:
REMARK  status: ('A' for Active; 'I' for Inactive)
REMARK    1  A    between atoms: C_1  and  O_2
REMARK    2  A    between atoms: O_2  and  C_3
REMARK    3  A    between atoms: C_5  and  C_11
REMARK    4  A    between atoms: C_7  and  O_8
REMARK    5  A    between atoms: O_8  and  C_9
REMARK    6  A    between atoms: N_13  and  C_14
REMARK    7  A    between atoms: C_16  and  O_18
REMARK    8  A    between atoms: C_19  and  C_21
REMARK    9  A    between atoms: C_21  and  O_22
REMARK   10  A    between atoms: C_24  and  N_26
REMARK   11  A    between atoms: N_35  and  C_36
REMARK   12  A    between atoms: C_36  and  C_37
REMARK                            x       y       z     vdW  Elec       q    Type
REMARK                         _______ _______ _______ _____ _____    ______ ____
ROOT
ATOM      1  C   UNL     1       5.870  -3.293  24.137  0.00  0.00    +0.154 C 
ATOM      2  C   UNL     1       7.398  -3.428  24.331  0.00  0.00    +0.245 C 
ATOM      3  O   UNL     1       7.933  -4.205  23.234  0.00  0.00    -0.346 OA
ATOM      4  C   UNL     1       6.876  -4.517  22.304  0.00  0.00    +0.176 C 
ATOM      5  C   UNL     1       5.678  -3.635  22.654  0.00  0.00    +0.170 C 
ENDROOT
BRANCH   2   6
ATOM      6  N   UNL     1       8.191  -2.212  24.444  0.00  0.00    -0.286 N 
ATOM      7  C   UNL     1       8.752  -1.438  23.462  0.00  0.00    +0.167 A 
ATOM      8  N   UNL     1       8.740  -1.648  22.134  0.00  0.00    -0.216 NA
ATOM      9  C   UNL     1       9.348  -0.637  21.476  0.00  0.00    +0.225 A 
ATOM     10  N   UNL     1       9.926   0.470  21.987  0.00  0.00    -0.219 NA
ATOM     11  C   UNL     1       9.946   0.639  23.334  0.00  0.00    +0.150 A 
ATOM     12  N   UNL     1      10.560   1.761  23.901  0.00  0.00    -0.323 N 
ATOM     13  H   UNL     1      10.271   1.876  24.869  0.00  0.00    +0.148 HD
ATOM     14  C   UNL     1       9.326  -0.359  24.125  0.00  0.00    +0.147 A 
ATOM     15  N   UNL     1       9.154  -0.481  25.486  0.00  0.00    -0.231 NA
ATOM     16  C   UNL     1       8.481  -1.601  25.643  0.00  0.00    +0.203 A 
BRANCH  12  17
ATOM     17  C   UNL     1      10.491   2.967  23.089  0.00  0.00    +0.139 C 
BRANCH  17  18
ATOM     18  C   UNL     1       9.524   3.970  23.695  0.00  0.00    -0.023 A 
ATOM     19  C   UNL     1       8.131   3.988  23.388  0.00  0.00    -0.013 A 
ATOM     20  C   UNL     1       7.496   3.046  22.547  0.00  0.00    +0.009 A 
ATOM     21  C   UNL     1       6.135   3.134  22.239  0.00  0.00    +0.001 A 
ATOM     22  C   UNL     1       5.369   4.162  22.773  0.00  0.00    +0.001 A 
ATOM     23  C   UNL     1       5.956   5.090  23.631  0.00  0.00    +0.008 A 
ATOM     24  C   UNL     1       7.324   5.014  23.948  0.00  0.00    -0.018 A 
ATOM     25  C   UNL     1       7.889   5.962  24.810  0.00  0.00    +0.008 A 
ATOM     26  C   UNL     1       9.243   5.921  25.130  0.00  0.00    +0.001 A 
ATOM     27  C   UNL     1      10.052   4.933  24.578  0.00  0.00    +0.006 A 
ENDBRANCH  17  18
ENDBRANCH  12  17
ENDBRANCH   2   6
BRANCH   1  29
ATOM     28  C   UNL     1       3.810  -3.974  25.411  0.00  0.00    +0.245 C 
ATOM     29  N   UNL     1       5.087  -4.237  24.965  0.00  0.00    -0.302 N 
ATOM     30  H   UNL     1       5.611  -4.990  25.400  0.00  0.00    +0.150 HD
ATOM     31  O   UNL     1       3.266  -2.899  25.183  0.00  0.00    -0.270 OA
BRANCH  28  36
ATOM     32  C   UNL     1       1.986  -7.210  26.231  0.00  0.00    +0.124 A 
ATOM     33  C   UNL     1       1.889  -7.146  27.622  0.00  0.00    +0.091 A 
ATOM     34  C   UNL     1       2.400  -6.048  28.311  0.00  0.00    +0.124 A 
ATOM     35  C   UNL     1       3.002  -5.002  27.604  0.00  0.00    +0.059 A 
ATOM     36  C   UNL     1       3.119  -5.047  26.208  0.00  0.00    +0.044 A 
ATOM     37  C   UNL     1       2.601  -6.163  25.530  0.00  0.00    +0.059 A 
BRANCH  32  39
ATOM     38  C   UNL     1       2.003  -8.304  24.114  0.00  0.00    +0.277 C 
ATOM     39  O   UNL     1       1.523  -8.241  25.457  0.00  0.00    -0.495 OA
ENDBRANCH  32  39
BRANCH  34  40
ATOM     40  O   UNL     1       2.387  -5.882  29.670  0.00  0.00    -0.495 OA
ATOM     41  C   UNL     1       3.619  -5.541  30.296  0.00  0.00    +0.277 C 
ENDBRANCH  34  40
ENDBRANCH  28  36
ENDBRANCH   1  29
BRANCH   5  42
ATOM     42  O   UNL     1       5.644  -2.487  21.806  0.00  0.00    -0.387 OA
ATOM     43  H   UNL     1       6.108  -1.745  22.246  0.00  0.00    +0.210 HD
ENDBRANCH   5  42
BRANCH   4  44
ATOM     44  C   UNL     1       6.556  -6.019  22.403  0.00  0.00    +0.190 C 
BRANCH  44  45
ATOM     45  O   UNL     1       5.152  -6.254  22.512  0.00  0.00    -0.392 OA
ATOM     46  H   UNL     1       5.028  -7.210  22.354  0.00  0.00    +0.210 HD
ENDBRANCH  44  45
ENDBRANCH   4  44
TORSDOF 10
ENDMDL
MODEL 7
REMARK VINA RESULT:      -7.4      1.900      2.246
REMARK  Name = 
REMARK  12 active torsions:
REMARK  status: ('A' for Active; 'I' for Inactive)
REMARK    1  A    between atoms: C_1  and  O_2
REMARK    2  A    between atoms: O_2  and  C_3
REMARK    3  A    between atoms: C_5  and  C_11
REMARK    4  A    between atoms: C_7  and  O_8
REMARK    5  A    between atoms: O_8  and  C_9
REMARK    6  A    between atoms: N_13  and  C_14
REMARK    7  A    between atoms: C_16  and  O_18
REMARK    8  A    between atoms: C_19  and  C_21
REMARK    9  A    between atoms: C_21  and  O_22
REMARK   10  A    between atoms: C_24  and  N_26
REMARK   11  A    between atoms: N_35  and  C_36
REMARK   12  A    between atoms: C_36  and  C_37
REMARK                            x       y       z     vdW  Elec       q    Type
REMARK                         _______ _______ _______ _____ _____    ______ ____
ROOT
ATOM      1  C   UNL     1       5.712  -5.132  26.068  0.00  0.00    +0.154 C 
ATOM      2  C   UNL     1       5.524  -3.945  27.041  0.00  0.00    +0.245 C 
ATOM      3  O   UNL     1       6.075  -4.315  28.327  0.00  0.00    -0.346 OA
ATOM      4  C   UNL     1       6.675  -5.624  28.236  0.00  0.00    +0.176 C 
ATOM      5  C   UNL     1       6.796  -5.974  26.752  0.00  0.00    +0.170 C 
ENDROOT
BRANCH   2   6
ATOM      6  N   UNL     1       6.082  -2.653  26.672  0.00  0.00    -0.286 N 
ATOM      7  C   UNL     1       7.070  -2.350  25.770  0.00  0.00    +0.167 A 
ATOM      8  N   UNL     1       7.804  -3.200  25.030  0.00  0.00    -0.216 NA
ATOM      9  C   UNL     1       8.642  -2.530  24.210  0.00  0.00    +0.225 A 
ATOM     10  N   UNL     1       8.806  -1.197  24.082  0.00  0.00    -0.219 NA
ATOM     11  C   UNL     1       8.069  -0.367  24.863  0.00  0.00    +0.150 A 
ATOM     12  N   UNL     1       8.231   1.020  24.778  0.00  0.00    -0.323 N 
ATOM     13  H   UNL     1       7.450   1.500  25.219  0.00  0.00    +0.148 HD
ATOM     14  C   UNL     1       7.147  -0.962  25.758  0.00  0.00    +0.147 A 
ATOM     15  N   UNL     1       6.252  -0.421  26.654  0.00  0.00    -0.231 NA
ATOM     16  C   UNL     1       5.640  -1.456  27.189  0.00  0.00    +0.203 A 
BRANCH  12  17
ATOM     17  C   UNL     1       8.587   1.509  23.454  0.00  0.00    +0.139 C 
BRANCH  17  18
ATOM     18  C   UNL     1       9.359   2.814  23.552  0.00  0.00    -0.023 A 
ATOM     19  C   UNL     1       8.726   4.076  23.757  0.00  0.00    -0.013 A 
ATOM     20  C   UNL     1       7.336   4.240  23.956  0.00  0.00    +0.009 A 
ATOM     21  C   UNL     1       6.758   5.503  24.106  0.00  0.00    +0.001 A 
ATOM     22  C   UNL     1       7.556   6.640  24.074  0.00  0.00    +0.001 A 
ATOM     23  C   UNL     1       8.934   6.513  23.913  0.00  0.00    +0.008 A 
ATOM     24  C   UNL     1       9.529   5.248  23.757  0.00  0.00    -0.018 A 
ATOM     25  C   UNL     1      10.917   5.150  23.593  0.00  0.00    +0.008 A 
ATOM     26  C   UNL     1      11.532   3.913  23.423  0.00  0.00    +0.001 A 
ATOM     27  C   UNL     1      10.759   2.756  23.403  0.00  0.00    +0.006 A 
ENDBRANCH  17  18
ENDBRANCH  12  17
ENDBRANCH   2   6
BRANCH   1  29
ATOM     28  C   UNL     1       4.031  -6.373  24.666  0.00  0.00    +0.245 C 
ATOM     29  N   UNL     1       4.491  -5.949  25.894  0.00  0.00    -0.302 N 
ATOM     30  H   UNL     1       3.863  -5.988  26.690  0.00  0.00    +0.150 HD
ATOM     31  O   UNL     1       4.594  -6.042  23.628  0.00  0.00    -0.270 OA
BRANCH  28  36
ATOM     32  C   UNL     1       1.186  -8.520  23.339  0.00  0.00    +0.124 A 
ATOM     33  C   UNL     1       0.553  -8.926  24.515  0.00  0.00    +0.091 A 
ATOM     34  C   UNL     1       1.031  -8.499  25.753  0.00  0.00    +0.124 A 
ATOM     35  C   UNL     1       2.142  -7.651  25.813  0.00  0.00    +0.059 A 
ATOM     36  C   UNL     1       2.798  -7.236  24.646  0.00  0.00    +0.044 A 
ATOM     37  C   UNL     1       2.305  -7.679  23.409  0.00  0.00    +0.059 A 
BRANCH  32  39
ATOM     38  C   UNL     1       0.613  -7.827  21.132  0.00  0.00    +0.277 C 
ATOM     39  O   UNL     1       0.802  -8.882  22.074  0.00  0.00    -0.495 OA
ENDBRANCH  32  39
BRANCH  34  40
ATOM     40  O   UNL     1       0.515  -8.848  26.971  0.00  0.00    -0.495 OA
ATOM     41  C   UNL     1       0.887  -8.049  28.090  0.00  0.00    +0.277 C 
ENDBRANCH  34  40
ENDBRANCH  28  36
ENDBRANCH   1  29
BRANCH   5  42
ATOM     42  O   UNL     1       8.115  -5.692  26.284  0.00  0.00    -0.387 OA
ATOM     43  H   UNL     1       8.751  -5.808  27.020  0.00  0.00    +0.210 HD
ENDBRANCH   5  42
BRANCH   4  44
ATOM     44  C   UNL     1       5.802  -6.625  29.012  0.00  0.00    +0.190 C 
BRANCH  44  45
ATOM     45  O   UNL     1       5.380  -7.709  28.186  0.00  0.00    -0.392 OA
ATOM     46  H   UNL     1       4.491  -7.467  27.859  0.00  0.00    +0.210 HD
ENDBRANCH  44  45
ENDBRANCH   4  44
TORSDOF 10
ENDMDL
MODEL 8
REMARK VINA RESULT:      -7.3      3.417     10.338
REMARK  Name = 
REMARK  12 active torsions:
REMARK  status: ('A' for Active; 'I' for Inactive)
REMARK    1  A    between atoms: C_1  and  O_2
REMARK    2  A    between atoms: O_2  and  C_3
REMARK    3  A    between atoms: C_5  and  C_11
REMARK    4  A    between atoms: C_7  and  O_8
REMARK    5  A    between atoms: O_8  and  C_9
REMARK    6  A    between atoms: N_13  and  C_14
REMARK    7  A    between atoms: C_16  and  O_18
REMARK    8  A    between atoms: C_19  and  C_21
REMARK    9  A    between atoms: C_21  and  O_22
REMARK   10  A    between atoms: C_24  and  N_26
REMARK   11  A    between atoms: N_35  and  C_36
REMARK   12  A    between atoms: C_36  and  C_37
REMARK                            x       y       z     vdW  Elec       q    Type
REMARK                         _______ _______ _______ _____ _____    ______ ____
ROOT
ATOM      1  C   UNL     1       7.534  -0.105  24.117  0.00  0.00    +0.154 C 
ATOM      2  C   UNL     1       7.829  -1.118  22.986  0.00  0.00    +0.245 C 
ATOM      3  O   UNL     1       9.220  -1.506  23.070  0.00  0.00    -0.346 OA
ATOM      4  C   UNL     1       9.828  -0.879  24.218  0.00  0.00    +0.176 C 
ATOM      5  C   UNL     1       8.701  -0.320  25.088  0.00  0.00    +0.170 C 
ENDROOT
BRANCH   2   6
ATOM      6  N   UNL     1       7.030  -2.333  22.921  0.00  0.00    -0.286 N 
ATOM      7  C   UNL     1       7.065  -3.448  23.718  0.00  0.00    +0.167 A 
ATOM      8  N   UNL     1       7.894  -3.707  24.744  0.00  0.00    -0.216 NA
ATOM      9  C   UNL     1       7.589  -4.885  25.330  0.00  0.00    +0.225 A 
ATOM     10  N   UNL     1       6.615  -5.759  25.003  0.00  0.00    -0.219 NA
ATOM     11  C   UNL     1       5.812  -5.482  23.945  0.00  0.00    +0.150 A 
ATOM     12  N   UNL     1       4.808  -6.377  23.559  0.00  0.00    -0.323 N 
ATOM     13  H   UNL     1       4.143  -5.924  22.938  0.00  0.00    +0.148 HD
ATOM     14  C   UNL     1       6.036  -4.263  23.258  0.00  0.00    +0.147 A 
ATOM     15  N   UNL     1       5.403  -3.681  22.183  0.00  0.00    -0.231 NA
ATOM     16  C   UNL     1       6.026  -2.537  22.001  0.00  0.00    +0.203 A 
BRANCH  12  17
ATOM     17  C   UNL     1       4.215  -7.132  24.653  0.00  0.00    +0.139 C 
BRANCH  17  18
ATOM     18  C   UNL     1       3.276  -6.256  25.465  0.00  0.00    -0.023 A 
ATOM     19  C   UNL     1       3.388  -6.101  26.879  0.00  0.00    -0.013 A 
ATOM     20  C   UNL     1       4.412  -6.687  27.659  0.00  0.00    +0.009 A 
ATOM     21  C   UNL     1       4.451  -6.544  29.049  0.00  0.00    +0.001 A 
ATOM     22  C   UNL     1       3.473  -5.801  29.697  0.00  0.00    +0.001 A 
ATOM     23  C   UNL     1       2.467  -5.183  28.956  0.00  0.00    +0.008 A 
ATOM     24  C   UNL     1       2.414  -5.321  27.557  0.00  0.00    -0.018 A 
ATOM     25  C   UNL     1       1.390  -4.692  26.838  0.00  0.00    +0.008 A 
ATOM     26  C   UNL     1       1.304  -4.822  25.454  0.00  0.00    +0.001 A 
ATOM     27  C   UNL     1       2.239  -5.596  24.775  0.00  0.00    +0.006 A 
ENDBRANCH  17  18
ENDBRANCH  12  17
ENDBRANCH   2   6
BRANCH   1  29
ATOM     28  C   UNL     1       7.177   2.360  24.468  0.00  0.00    +0.245 C 
ATOM     29  N   UNL     1       7.527   1.301  23.658  0.00  0.00    -0.302 N 
ATOM     30  H   UNL     1       7.557   1.444  22.654  0.00  0.00    +0.150 HD
ATOM     31  O   UNL     1       6.794   2.181  25.619  0.00  0.00    -0.270 OA
BRANCH  28  36
ATOM     32  C   UNL     1       6.098   5.653  22.898  0.00  0.00    +0.124 A 
ATOM     33  C   UNL     1       7.302   6.358  22.841  0.00  0.00    +0.091 A 
ATOM     34  C   UNL     1       8.481   5.770  23.296  0.00  0.00    +0.124 A 
ATOM     35  C   UNL     1       8.457   4.466  23.802  0.00  0.00    +0.059 A 
ATOM     36  C   UNL     1       7.260   3.742  23.877  0.00  0.00    +0.044 A 
ATOM     37  C   UNL     1       6.081   4.351  23.417  0.00  0.00    +0.059 A 
BRANCH  32  39
ATOM     38  C   UNL     1       3.790   5.218  22.496  0.00  0.00    +0.277 C 
ATOM     39  O   UNL     1       4.884   6.134  22.483  0.00  0.00    -0.495 OA
ENDBRANCH  32  39
BRANCH  34  40
ATOM     40  O   UNL     1       9.713   6.366  23.315  0.00  0.00    -0.495 OA
ATOM     41  C   UNL     1      10.813   5.573  23.749  0.00  0.00    +0.277 C 
ENDBRANCH  34  40
ENDBRANCH  28  36
ENDBRANCH   1  29
BRANCH   5  42
ATOM     42  O   UNL     1       8.400  -1.227  26.149  0.00  0.00    -0.387 OA
ATOM     43  H   UNL     1       7.462  -1.502  26.083  0.00  0.00    +0.210 HD
ENDBRANCH   5  42
BRANCH   4  44
ATOM     44  C   UNL     1      10.799   0.211  23.732  0.00  0.00    +0.190 C 
BRANCH  44  45
ATOM     45  O   UNL     1      10.590   1.447  24.414  0.00  0.00    -0.392 OA
ATOM     46  H   UNL     1      10.438   2.115  23.717  0.00  0.00    +0.210 HD
ENDBRANCH  44  45
ENDBRANCH   4  44
TORSDOF 10
ENDMDL
MODEL 9
REMARK VINA RESULT:      -7.3      1.049      1.991
REMARK  Name = 
REMARK  12 active torsions:
REMARK  status: ('A' for Active; 'I' for Inactive)
REMARK    1  A    between atoms: C_1  and  O_2
REMARK    2  A    between atoms: O_2  and  C_3
REMARK    3  A    between atoms: C_5  and  C_11
REMARK    4  A    between atoms: C_7  and  O_8
REMARK    5  A    between atoms: O_8  and  C_9
REMARK    6  A    between atoms: N_13  and  C_14
REMARK    7  A    between atoms: C_16  and  O_18
REMARK    8  A    between atoms: C_19  and  C_21
REMARK    9  A    between atoms: C_21  and  O_22
REMARK   10  A    between atoms: C_24  and  N_26
REMARK   11  A    between atoms: N_35  and  C_36
REMARK   12  A    between atoms: C_36  and  C_37
REMARK                            x       y       z     vdW  Elec       q    Type
REMARK                         _______ _______ _______ _____ _____    ______ ____
ROOT
ATOM      1  C   UNL     1       6.579  -3.843  24.824  0.00  0.00    +0.154 C 
ATOM      2  C   UNL     1       6.924  -2.838  25.947  0.00  0.00    +0.245 C 
ATOM      3  O   UNL     1       7.733  -3.517  26.937  0.00  0.00    -0.346 OA
ATOM      4  C   UNL     1       8.001  -4.865  26.498  0.00  0.00    +0.176 C 
ATOM      5  C   UNL     1       7.617  -4.954  25.021  0.00  0.00    +0.170 C 
ENDROOT
BRANCH   2   6
ATOM      6  N   UNL     1       7.606  -1.603  25.586  0.00  0.00    -0.286 N 
ATOM      7  C   UNL     1       7.444  -0.804  24.484  0.00  0.00    +0.167 A 
ATOM      8  N   UNL     1       6.631  -1.000  23.431  0.00  0.00    -0.216 NA
ATOM      9  C   UNL     1       6.701   0.034  22.564  0.00  0.00    +0.225 A 
ATOM     10  N   UNL     1       7.455   1.149  22.646  0.00  0.00    -0.219 NA
ATOM     11  C   UNL     1       8.287   1.305  23.708  0.00  0.00    +0.150 A 
ATOM     12  N   UNL     1       9.104   2.435  23.813  0.00  0.00    -0.323 N 
ATOM     13  H   UNL     1       9.461   2.532  24.760  0.00  0.00    +0.148 HD
ATOM     14  C   UNL     1       8.289   0.282  24.688  0.00  0.00    +0.147 A 
ATOM     15  N   UNL     1       8.980   0.140  25.871  0.00  0.00    -0.231 NA
ATOM     16  C   UNL     1       8.557  -0.998  26.376  0.00  0.00    +0.203 A 
BRANCH  12  17
ATOM     17  C   UNL     1       8.539   3.648  23.239  0.00  0.00    +0.139 C 
BRANCH  17  18
ATOM     18  C   UNL     1       8.773   4.836  24.156  0.00  0.00    -0.023 A 
ATOM     19  C   UNL     1      10.052   5.446  24.324  0.00  0.00    -0.013 A 
ATOM     20  C   UNL     1      11.211   5.058  23.616  0.00  0.00    +0.009 A 
ATOM     21  C   UNL     1      12.452   5.657  23.851  0.00  0.00    +0.001 A 
ATOM     22  C   UNL     1      12.566   6.669  24.795  0.00  0.00    +0.001 A 
ATOM     23  C   UNL     1      11.437   7.099  25.489  0.00  0.00    +0.008 A 
ATOM     24  C   UNL     1      10.182   6.504  25.264  0.00  0.00    -0.018 A 
ATOM     25  C   UNL     1       9.065   6.953  25.979  0.00  0.00    +0.008 A 
ATOM     26  C   UNL     1       7.813   6.374  25.787  0.00  0.00    +0.001 A 
ATOM     27  C   UNL     1       7.670   5.325  24.884  0.00  0.00    +0.006 A 
ENDBRANCH  17  18
ENDBRANCH  12  17
ENDBRANCH   2   6
BRANCH   1  29
ATOM     28  C   UNL     1       4.363  -4.563  23.875  0.00  0.00    +0.245 C 
ATOM     29  N   UNL     1       5.218  -4.412  24.944  0.00  0.00    -0.302 N 
ATOM     30  H   UNL     1       4.839  -4.469  25.884  0.00  0.00    +0.150 HD
ATOM     31  O   UNL     1       4.673  -4.175  22.753  0.00  0.00    -0.270 OA
BRANCH  28  36
ATOM     32  C   UNL     1       1.177  -6.564  23.314  0.00  0.00    +0.124 A 
ATOM     33  C   UNL     1       0.567  -6.500  24.568  0.00  0.00    +0.091 A 
ATOM     34  C   UNL     1       1.173  -5.796  25.608  0.00  0.00    +0.124 A 
ATOM     35  C   UNL     1       2.390  -5.143  25.388  0.00  0.00    +0.059 A 
ATOM     36  C   UNL     1       3.025  -5.200  24.140  0.00  0.00    +0.044 A 
ATOM     37  C   UNL     1       2.402  -5.916  23.105  0.00  0.00    +0.059 A 
BRANCH  32  39
ATOM     38  C   UNL     1       0.473  -8.635  22.370  0.00  0.00    +0.277 C 
ATOM     39  O   UNL     1       0.672  -7.229  22.228  0.00  0.00    -0.495 OA
ENDBRANCH  32  39
BRANCH  34  40
ATOM     40  O   UNL     1       0.688  -5.682  26.883  0.00  0.00    -0.495 OA
ATOM     41  C   UNL     1       1.319  -6.463  27.892  0.00  0.00    +0.277 C 
ENDBRANCH  34  40
ENDBRANCH  28  36
ENDBRANCH   1  29
BRANCH   5  42
ATOM     42  O   UNL     1       8.774  -4.802  24.199  0.00  0.00    -0.387 OA
ATOM     43  H   UNL     1       8.865  -5.586  23.619  0.00  0.00    +0.210 HD
ENDBRANCH   5  42
BRANCH   4  44
ATOM     44  C   UNL     1       7.201  -5.841  27.379  0.00  0.00    +0.190 C 
BRANCH  44  45
ATOM     45  O   UNL     1       6.176  -6.501  26.638  0.00  0.00    -0.392 OA
ATOM     46  H   UNL     1       6.614  -7.242  26.175  0.00  0.00    +0.210 HD
ENDBRANCH  44  45
ENDBRANCH   4  44
TORSDOF 10
ENDMDL
