MODEL 1
REMARK VINA RESULT:      -8.0      0.000      0.000
REMARK  Name = 
REMARK  5 active torsions:
REMARK  status: ('A' for Active; 'I' for Inactive)
REMARK    1  A    between atoms: C_1  and  C_2
REMARK    2  A    between atoms: C_3  and  C_4
REMARK    3  A    between atoms: C_4  and  N_5
REMARK    4  A    between atoms: N_5  and  C_6
REMARK    5  A    between atoms: C_23  and  N_24
REMARK                            x       y       z     vdW  Elec       q    Type
REMARK                         _______ _______ _______ _____ _____    ______ ____
ROOT
ATOM      1  C   UNL     1       8.035  -0.910  26.917  0.00  0.00    +0.045 C 
ATOM      2  C   UNL     1       8.709  -1.289  25.620  0.00  0.00    -0.030 A 
ATOM      3  C   UNL     1       9.071  -0.281  24.651  0.00  0.00    +0.062 A 
ATOM      4  C   UNL     1       9.723  -0.693  23.483  0.00  0.00    +0.167 A 
ATOM      5  N   UNL     1      10.118   0.140  22.535  0.00  0.00    -0.195 NA
ATOM      6  C   UNL     1       9.851   1.426  22.683  0.00  0.00    +0.216 A 
ATOM      7  N   UNL     1       9.257   1.958  23.740  0.00  0.00    -0.199 NA
ATOM      8  N   UNL     1      10.254   2.280  21.679  0.00  0.00    -0.327 N 
ATOM      9  H   UNL     1      10.394   3.213  22.035  0.00  0.00    +0.145 HD
ATOM     10  H   UNL     1      11.001   1.861  21.142  0.00  0.00    +0.145 HD
ATOM     11  N   UNL     1      10.004  -1.972  23.248  0.00  0.00    -0.235 NA
ATOM     12  C   UNL     1       9.671  -2.904  24.159  0.00  0.00    +0.118 A 
ATOM     13  C   UNL     1       8.870   1.114  24.702  0.00  0.00    +0.131 A 
ATOM     14  C   UNL     1       9.053  -2.630  25.366  0.00  0.00    -0.009 A 
ENDROOT
BRANCH  13  15
ATOM     15  N   UNL     1       8.222   1.761  25.758  0.00  0.00    -0.342 N 
ATOM     16  H   UNL     1       8.323   1.264  26.633  0.00  0.00    +0.144 HD
ATOM     17  H   UNL     1       8.627   2.693  25.823  0.00  0.00    +0.144 HD
ENDBRANCH  13  15
BRANCH  14  18
ATOM     18  C   UNL     1       8.928  -3.741  26.372  0.00  0.00    +0.138 C 
BRANCH  18  19
ATOM     19  N   UNL     1       7.963  -4.753  26.017  0.00  0.00    -0.339 N 
ATOM     20  H   UNL     1       7.750  -5.403  26.772  0.00  0.00    +0.146 HD
BRANCH  19  21
ATOM     21  C   UNL     1       6.838  -4.478  25.208  0.00  0.00    +0.037 A 
ATOM     22  C   UNL     1       6.603  -4.918  23.843  0.00  0.00    +0.021 A 
ATOM     23  C   UNL     1       5.328  -4.698  23.262  0.00  0.00    +0.073 A 
ATOM     24  N   UNL     1       4.982  -5.093  22.022  0.00  0.00    -0.255 NA
ATOM     25  C   UNL     1       5.892  -5.734  21.267  0.00  0.00    +0.111 A 
ATOM     26  C   UNL     1       7.173  -5.974  21.685  0.00  0.00    +0.020 A 
ATOM     27  C   UNL     1       4.341  -4.045  23.978  0.00  0.00    +0.028 A 
ATOM     28  C   UNL     1       4.550  -3.610  25.281  0.00  0.00    +0.004 A 
ATOM     29  C   UNL     1       7.524  -5.544  22.960  0.00  0.00    +0.013 A 
ATOM     30  C   UNL     1       5.774  -3.841  25.894  0.00  0.00    +0.023 A 
ENDBRANCH  19  21
ENDBRANCH  18  19
ENDBRANCH  14  18
TORSDOF 4
ENDMDL
MODEL 2
REMARK VINA RESULT:      -7.7      1.884      3.008
REMARK  Name = 
REMARK  5 active torsions:
REMARK  status: ('A' for Active; 'I' for Inactive)
REMARK    1  A    between atoms: C_1  and  C_2
REMARK    2  A    between atoms: C_3  and  C_4
REMARK    3  A    between atoms: C_4  and  N_5
REMARK    4  A    between atoms: N_5  and  C_6
REMARK    5  A    between atoms: C_23  and  N_24
REMARK                            x       y       z     vdW  Elec       q    Type
REMARK                         _______ _______ _______ _____ _____    ______ ____
ROOT
ATOM      1  C   UNL     1       6.928  -0.676  24.653  0.00  0.00    +0.045 C 
ATOM      2  C   UNL     1       7.897  -0.402  23.528  0.00  0.00    -0.030 A 
ATOM      3  C   UNL     1       8.738   0.772  23.544  0.00  0.00    +0.062 A 
ATOM      4  C   UNL     1       9.639   0.953  22.488  0.00  0.00    +0.167 A 
ATOM      5  N   UNL     1      10.469   1.978  22.405  0.00  0.00    -0.195 NA
ATOM      6  C   UNL     1      10.422   2.900  23.352  0.00  0.00    +0.216 A 
ATOM      7  N   UNL     1       9.633   2.851  24.415  0.00  0.00    -0.199 NA
ATOM      8  N   UNL     1      11.283   3.970  23.244  0.00  0.00    -0.327 N 
ATOM      9  H   UNL     1      11.477   4.369  24.149  0.00  0.00    +0.145 HD
ATOM     10  H   UNL     1      12.068   3.731  22.653  0.00  0.00    +0.145 HD
ATOM     11  N   UNL     1       9.729   0.085  21.485  0.00  0.00    -0.235 NA
ATOM     12  C   UNL     1       8.948  -1.010  21.480  0.00  0.00    +0.118 A 
ATOM     13  C   UNL     1       8.803   1.806  24.502  0.00  0.00    +0.131 A 
ATOM     14  C   UNL     1       8.040  -1.325  22.475  0.00  0.00    -0.009 A 
ENDROOT
BRANCH  13  15
ATOM     15  N   UNL     1       7.987   1.859  25.635  0.00  0.00    -0.342 N 
ATOM     16  H   UNL     1       8.225   2.629  26.245  0.00  0.00    +0.144 HD
ATOM     17  H   UNL     1       7.029   1.945  25.302  0.00  0.00    +0.144 HD
ENDBRANCH  13  15
BRANCH  14  18
ATOM     18  C   UNL     1       7.387  -2.679  22.443  0.00  0.00    +0.138 C 
BRANCH  18  19
ATOM     19  N   UNL     1       8.165  -3.724  23.063  0.00  0.00    -0.339 N 
ATOM     20  H   UNL     1       9.162  -3.671  22.862  0.00  0.00    +0.146 HD
BRANCH  19  21
ATOM     21  C   UNL     1       7.902  -4.191  24.370  0.00  0.00    +0.037 A 
ATOM     22  C   UNL     1       6.794  -5.026  24.803  0.00  0.00    +0.021 A 
ATOM     23  C   UNL     1       6.805  -5.548  26.123  0.00  0.00    +0.073 A 
ATOM     24  N   UNL     1       5.855  -6.360  26.623  0.00  0.00    -0.255 NA
ATOM     25  C   UNL     1       4.819  -6.708  25.840  0.00  0.00    +0.111 A 
ATOM     26  C   UNL     1       4.660  -6.243  24.563  0.00  0.00    +0.020 A 
ATOM     27  C   UNL     1       7.839  -5.234  26.986  0.00  0.00    +0.028 A 
ATOM     28  C   UNL     1       8.901  -4.431  26.592  0.00  0.00    +0.004 A 
ATOM     29  C   UNL     1       5.637  -5.389  24.064  0.00  0.00    +0.013 A 
ATOM     30  C   UNL     1       8.942  -3.933  25.297  0.00  0.00    +0.023 A 
ENDBRANCH  19  21
ENDBRANCH  18  19
ENDBRANCH  14  18
TORSDOF 4
ENDMDL
MODEL 3
REMARK VINA RESULT:      -7.7      2.169      7.298
REMARK  Name = 
REMARK  5 active torsions:
REMARK  status: ('A' for Active; 'I' for Inactive)
REMARK    1  A    between atoms: C_1  and  C_2
REMARK    2  A    between atoms: C_3  and  C_4
REMARK    3  A    between atoms: C_4  and  N_5
REMARK    4  A    between atoms: N_5  and  C_6
REMARK    5  A    between atoms: C_23  and  N_24
REMARK                            x       y       z     vdW  Elec       q    Type
REMARK                         _______ _______ _______ _____ _____    ______ ____
ROOT
ATOM      1  C   UNL     1       9.307  -3.888  25.001  0.00  0.00    +0.045 C 
ATOM      2  C   UNL     1       7.989  -4.153  24.313  0.00  0.00    -0.030 A 
ATOM      3  C   UNL     1       6.978  -4.975  24.937  0.00  0.00    +0.062 A 
ATOM      4  C   UNL     1       5.765  -5.155  24.263  0.00  0.00    +0.167 A 
ATOM      5  N   UNL     1       4.763  -5.870  24.743  0.00  0.00    -0.195 NA
ATOM      6  C   UNL     1       4.928  -6.477  25.906  0.00  0.00    +0.216 A 
ATOM      7  N   UNL     1       6.014  -6.382  26.660  0.00  0.00    -0.199 NA
ATOM      8  N   UNL     1       3.880  -7.232  26.387  0.00  0.00    -0.327 N 
ATOM      9  H   UNL     1       3.916  -7.298  27.393  0.00  0.00    +0.145 HD
ATOM     10  H   UNL     1       3.012  -6.936  25.962  0.00  0.00    +0.145 HD
ATOM     11  N   UNL     1       5.531  -4.601  23.077  0.00  0.00    -0.235 NA
ATOM     12  C   UNL     1       6.473  -3.830  22.505  0.00  0.00    +0.118 A 
ATOM     13  C   UNL     1       7.021  -5.648  26.176  0.00  0.00    +0.131 A 
ATOM     14  C   UNL     1       7.701  -3.545  23.076  0.00  0.00    -0.009 A 
ENDROOT
BRANCH  13  15
ATOM     15  N   UNL     1       8.133  -5.636  27.022  0.00  0.00    -0.342 N 
ATOM     16  H   UNL     1       8.246  -4.751  27.497  0.00  0.00    +0.144 HD
ATOM     17  H   UNL     1       8.000  -6.391  27.692  0.00  0.00    +0.144 HD
ENDBRANCH  13  15
BRANCH  14  18
ATOM     18  C   UNL     1       8.569  -2.506  22.422  0.00  0.00    +0.138 C 
BRANCH  18  19
ATOM     19  N   UNL     1       8.017  -1.173  22.449  0.00  0.00    -0.339 N 
ATOM     20  H   UNL     1       7.044  -1.136  22.750  0.00  0.00    +0.146 HD
BRANCH  19  21
ATOM     21  C   UNL     1       8.759  -0.053  22.885  0.00  0.00    +0.037 A 
ATOM     22  C   UNL     1       8.380   1.347  22.796  0.00  0.00    +0.021 A 
ATOM     23  C   UNL     1       9.174   2.316  23.461  0.00  0.00    +0.073 A 
ATOM     24  N   UNL     1       8.903   3.634  23.480  0.00  0.00    -0.255 NA
ATOM     25  C   UNL     1       7.815   4.083  22.829  0.00  0.00    +0.111 A 
ATOM     26  C   UNL     1       6.984   3.265  22.112  0.00  0.00    +0.020 A 
ATOM     27  C   UNL     1      10.309   1.929  24.151  0.00  0.00    +0.028 A 
ATOM     28  C   UNL     1      10.692   0.597  24.240  0.00  0.00    +0.004 A 
ATOM     29  C   UNL     1       7.287   1.909  22.083  0.00  0.00    +0.013 A 
ATOM     30  C   UNL     1       9.917  -0.382  23.632  0.00  0.00    +0.023 A 
ENDBRANCH  19  21
ENDBRANCH  18  19
ENDBRANCH  14  18
TORSDOF 4
ENDMDL
MODEL 4
REMARK VINA RESULT:      -7.7      1.404      2.428
REMARK  Name = 
REMARK  5 active torsions:
REMARK  status: ('A' for Active; 'I' for Inactive)
REMARK    1  A    between atoms: C_1  and  C_2
REMARK    2  A    between atoms: C_3  and  C_4
REMARK    3  A    between atoms: C_4  and  N_5
REMARK    4  A    between atoms: N_5  and  C_6
REMARK    5  A    between atoms: C_23  and  N_24
REMARK                            x       y       z     vdW  Elec       q    Type
REMARK                         _______ _______ _______ _____ _____    ______ ____
ROOT
ATOM      1  C   UNL     1       5.989  -1.467  24.908  0.00  0.00    +0.045 C 
ATOM      2  C   UNL     1       7.436  -1.551  24.487  0.00  0.00    -0.030 A 
ATOM      3  C   UNL     1       8.041  -0.501  23.699  0.00  0.00    +0.062 A 
ATOM      4  C   UNL     1       9.396  -0.620  23.369  0.00  0.00    +0.167 A 
ATOM      5  N   UNL     1      10.058   0.284  22.670  0.00  0.00    -0.195 NA
ATOM      6  C   UNL     1       9.398   1.341  22.229  0.00  0.00    +0.216 A 
ATOM      7  N   UNL     1       8.121   1.592  22.478  0.00  0.00    -0.199 NA
ATOM      8  N   UNL     1      10.099   2.268  21.488  0.00  0.00    -0.327 N 
ATOM      9  H   UNL     1       9.672   3.179  21.555  0.00  0.00    +0.145 HD
ATOM     10  H   UNL     1      11.089   2.193  21.679  0.00  0.00    +0.145 HD
ATOM     11  N   UNL     1      10.122  -1.666  23.752  0.00  0.00    -0.235 NA
ATOM     12  C   UNL     1       9.556  -2.636  24.491  0.00  0.00    +0.118 A 
ATOM     13  C   UNL     1       7.457   0.681  23.196  0.00  0.00    +0.131 A 
ATOM     14  C   UNL     1       8.238  -2.627  24.913  0.00  0.00    -0.009 A 
ENDROOT
BRANCH  13  15
ATOM     15  N   UNL     1       6.112   1.013  23.377  0.00  0.00    -0.342 N 
ATOM     16  H   UNL     1       5.807   0.879  24.332  0.00  0.00    +0.144 HD
ATOM     17  H   UNL     1       6.011   1.988  23.100  0.00  0.00    +0.144 HD
ENDBRANCH  13  15
BRANCH  14  18
ATOM     18  C   UNL     1       7.798  -3.669  25.903  0.00  0.00    +0.138 C 
BRANCH  18  19
ATOM     19  N   UNL     1       7.736  -5.006  25.365  0.00  0.00    -0.339 N 
ATOM     20  H   UNL     1       7.732  -5.737  26.075  0.00  0.00    +0.146 HD
BRANCH  19  21
ATOM     21  C   UNL     1       6.940  -5.337  24.246  0.00  0.00    +0.037 A 
ATOM     22  C   UNL     1       5.490  -5.306  24.154  0.00  0.00    +0.021 A 
ATOM     23  C   UNL     1       4.879  -5.491  22.887  0.00  0.00    +0.073 A 
ATOM     24  N   UNL     1       3.551  -5.447  22.672  0.00  0.00    -0.255 NA
ATOM     25  C   UNL     1       2.732  -5.219  23.714  0.00  0.00    +0.111 A 
ATOM     26  C   UNL     1       3.182  -5.064  24.997  0.00  0.00    +0.020 A 
ATOM     27  C   UNL     1       5.658  -5.731  21.769  0.00  0.00    +0.028 A 
ATOM     28  C   UNL     1       7.044  -5.773  21.839  0.00  0.00    +0.004 A 
ATOM     29  C   UNL     1       4.554  -5.132  25.209  0.00  0.00    +0.013 A 
ATOM     30  C   UNL     1       7.677  -5.559  23.057  0.00  0.00    +0.023 A 
ENDBRANCH  19  21
ENDBRANCH  18  19
ENDBRANCH  14  18
TORSDOF 4
ENDMDL
MODEL 5
REMARK VINA RESULT:      -7.5      1.954      7.392
REMARK  Name = 
REMARK  5 active torsions:
REMARK  status: ('A' for Active; 'I' for Inactive)
REMARK    1  A    between atoms: C_1  and  C_2
REMARK    2  A    between atoms: C_3  and  C_4
REMARK    3  A    between atoms: C_4  and  N_5
REMARK    4  A    between atoms: N_5  and  C_6
REMARK    5  A    between atoms: C_23  and  N_24
REMARK                            x       y       z     vdW  Elec       q    Type
REMARK                         _______ _______ _______ _____ _____    ______ ____
ROOT
ATOM      1  C   UNL     1       7.367  -4.388  22.380  0.00  0.00    +0.045 C 
ATOM      2  C   UNL     1       7.162  -4.632  23.856  0.00  0.00    -0.030 A 
ATOM      3  C   UNL     1       6.107  -5.502  24.323  0.00  0.00    +0.062 A 
ATOM      4  C   UNL     1       5.990  -5.715  25.702  0.00  0.00    +0.167 A 
ATOM      5  N   UNL     1       5.077  -6.502  26.243  0.00  0.00    -0.195 NA
ATOM      6  C   UNL     1       4.206  -7.092  25.443  0.00  0.00    +0.216 A 
ATOM      7  N   UNL     1       4.207  -6.995  24.122  0.00  0.00    -0.199 NA
ATOM      8  N   UNL     1       3.250  -7.897  26.024  0.00  0.00    -0.327 N 
ATOM      9  H   UNL     1       2.925  -8.596  25.373  0.00  0.00    +0.145 HD
ATOM     10  H   UNL     1       3.557  -8.204  26.936  0.00  0.00    +0.145 HD
ATOM     11  N   UNL     1       6.811  -5.136  26.574  0.00  0.00    -0.235 NA
ATOM     12  C   UNL     1       7.795  -4.335  26.131  0.00  0.00    +0.118 A 
ATOM     13  C   UNL     1       5.140  -6.207  23.577  0.00  0.00    +0.131 A 
ATOM     14  C   UNL     1       8.042  -4.065  24.797  0.00  0.00    -0.009 A 
ENDROOT
BRANCH  13  15
ATOM     15  N   UNL     1       5.041  -6.138  22.185  0.00  0.00    -0.342 N 
ATOM     16  H   UNL     1       4.283  -6.703  21.824  0.00  0.00    +0.144 HD
ATOM     17  H   UNL     1       4.903  -5.157  21.949  0.00  0.00    +0.144 HD
ENDBRANCH  13  15
BRANCH  14  18
ATOM     18  C   UNL     1       9.298  -3.321  24.439  0.00  0.00    +0.138 C 
BRANCH  18  19
ATOM     19  N   UNL     1       9.257  -1.911  24.745  0.00  0.00    -0.339 N 
ATOM     20  H   UNL     1       9.879  -1.635  25.503  0.00  0.00    +0.146 HD
BRANCH  19  21
ATOM     21  C   UNL     1       9.152  -0.920  23.744  0.00  0.00    +0.037 A 
ATOM     22  C   UNL     1       8.874   0.494  23.928  0.00  0.00    +0.021 A 
ATOM     23  C   UNL     1       8.996   1.367  22.816  0.00  0.00    +0.073 A 
ATOM     24  N   UNL     1       8.800   2.697  22.872  0.00  0.00    -0.255 NA
ATOM     25  C   UNL     1       8.461   3.255  24.048  0.00  0.00    +0.111 A 
ATOM     26  C   UNL     1       8.267   2.527  25.190  0.00  0.00    +0.020 A 
ATOM     27  C   UNL     1       9.342   0.865  21.574  0.00  0.00    +0.028 A 
ATOM     28  C   UNL     1       9.603  -0.485  21.377  0.00  0.00    +0.004 A 
ATOM     29  C   UNL     1       8.453   1.152  25.115  0.00  0.00    +0.013 A 
ATOM     30  C   UNL     1       9.528  -1.362  22.452  0.00  0.00    +0.023 A 
ENDBRANCH  19  21
ENDBRANCH  18  19
ENDBRANCH  14  18
TORSDOF 4
ENDMDL
MODEL 6
REMARK VINA RESULT:      -7.5      1.617      3.257
REMARK  Name = 
REMARK  5 active torsions:
REMARK  status: ('A' for Active; 'I' for Inactive)
REMARK    1  A    between atoms: C_1  and  C_2
REMARK    2  A    between atoms: C_3  and  C_4
REMARK    3  A    between atoms: C_4  and  N_5
REMARK    4  A    between atoms: N_5  and  C_6
REMARK    5  A    between atoms: C_23  and  N_24
REMARK                            x       y       z     vdW  Elec       q    Type
REMARK                         _______ _______ _______ _____ _____    ______ ____
ROOT
ATOM      1  C   UNL     1       9.993  -0.728  21.883  0.00  0.00    +0.045 C 
ATOM      2  C   UNL     1       9.493  -0.370  23.262  0.00  0.00    -0.030 A 
ATOM      3  C   UNL     1       9.159   0.995  23.598  0.00  0.00    +0.062 A 
ATOM      4  C   UNL     1       8.670   1.258  24.883  0.00  0.00    +0.167 A 
ATOM      5  N   UNL     1       8.316   2.462  25.296  0.00  0.00    -0.195 NA
ATOM      6  C   UNL     1       8.465   3.478  24.464  0.00  0.00    +0.216 A 
ATOM      7  N   UNL     1       8.900   3.376  23.216  0.00  0.00    -0.199 NA
ATOM      8  N   UNL     1       8.106   4.731  24.914  0.00  0.00    -0.327 N 
ATOM      9  H   UNL     1       7.858   5.332  24.144  0.00  0.00    +0.145 HD
ATOM     10  H   UNL     1       7.456   4.653  25.684  0.00  0.00    +0.145 HD
ATOM     11  N   UNL     1       8.516   0.295  25.787  0.00  0.00    -0.235 NA
ATOM     12  C   UNL     1       8.821  -0.975  25.465  0.00  0.00    +0.118 A 
ATOM     13  C   UNL     1       9.246   2.154  22.798  0.00  0.00    +0.131 A 
ATOM     14  C   UNL     1       9.283  -1.376  24.224  0.00  0.00    -0.009 A 
ENDROOT
BRANCH  13  15
ATOM     15  N   UNL     1       9.725   2.150  21.485  0.00  0.00    -0.342 N 
ATOM     16  H   UNL     1       9.823   1.214  21.114  0.00  0.00    +0.144 HD
ATOM     17  H   UNL     1       9.065   2.691  20.931  0.00  0.00    +0.144 HD
ENDBRANCH  13  15
BRANCH  14  18
ATOM     18  C   UNL     1       9.385  -2.850  23.943  0.00  0.00    +0.138 C 
BRANCH  18  19
ATOM     19  N   UNL     1       8.408  -3.652  24.637  0.00  0.00    -0.339 N 
ATOM     20  H   UNL     1       7.968  -3.178  25.424  0.00  0.00    +0.146 HD
BRANCH  19  21
ATOM     21  C   UNL     1       7.518  -4.517  23.962  0.00  0.00    +0.037 A 
ATOM     22  C   UNL     1       6.479  -5.347  24.547  0.00  0.00    +0.021 A 
ATOM     23  C   UNL     1       5.561  -6.004  23.688  0.00  0.00    +0.073 A 
ATOM     24  N   UNL     1       4.537  -6.767  24.114  0.00  0.00    -0.255 NA
ATOM     25  C   UNL     1       4.358  -6.934  25.436  0.00  0.00    +0.111 A 
ATOM     26  C   UNL     1       5.193  -6.394  26.377  0.00  0.00    +0.020 A 
ATOM     27  C   UNL     1       5.682  -5.878  22.316  0.00  0.00    +0.028 A 
ATOM     28  C   UNL     1       6.674  -5.096  21.738  0.00  0.00    +0.004 A 
ATOM     29  C   UNL     1       6.259  -5.624  25.924  0.00  0.00    +0.013 A 
ATOM     30  C   UNL     1       7.567  -4.410  22.550  0.00  0.00    +0.023 A 
ENDBRANCH  19  21
ENDBRANCH  18  19
ENDBRANCH  14  18
TORSDOF 4
ENDMDL
MODEL 7
REMARK VINA RESULT:      -7.4      1.960      7.171
REMARK  Name = 
REMARK  5 active torsions:
REMARK  status: ('A' for Active; 'I' for Inactive)
REMARK    1  A    between atoms: C_1  and  C_2
REMARK    2  A    between atoms: C_3  and  C_4
REMARK    3  A    between atoms: C_4  and  N_5
REMARK    4  A    between atoms: N_5  and  C_6
REMARK    5  A    between atoms: C_23  and  N_24
REMARK                            x       y       z     vdW  Elec       q    Type
REMARK                         _______ _______ _______ _____ _____    ______ ____
ROOT
ATOM      1  C   UNL     1       9.104  -4.048  25.741  0.00  0.00    +0.045 C 
ATOM      2  C   UNL     1       7.969  -4.316  24.782  0.00  0.00    -0.030 A 
ATOM      3  C   UNL     1       6.861  -5.162  25.162  0.00  0.00    +0.062 A 
ATOM      4  C   UNL     1       5.822  -5.344  24.241  0.00  0.00    +0.167 A 
ATOM      5  N   UNL     1       4.752  -6.079  24.485  0.00  0.00    -0.195 NA
ATOM      6  C   UNL     1       4.675  -6.706  25.646  0.00  0.00    +0.216 A 
ATOM      7  N   UNL     1       5.572  -6.612  26.616  0.00  0.00    -0.199 NA
ATOM      8  N   UNL     1       3.560  -7.482  25.879  0.00  0.00    -0.327 N 
ATOM      9  H   UNL     1       3.381  -7.567  26.868  0.00  0.00    +0.145 HD
ATOM     10  H   UNL     1       2.798  -7.189  25.283  0.00  0.00    +0.145 HD
ATOM     11  N   UNL     1       5.839  -4.770  23.042  0.00  0.00    -0.235 NA
ATOM     12  C   UNL     1       6.869  -3.977  22.697  0.00  0.00    +0.118 A 
ATOM     13  C   UNL     1       6.648  -5.857  26.371  0.00  0.00    +0.131 A 
ATOM     14  C   UNL     1       7.942  -3.688  23.522  0.00  0.00    -0.009 A 
ENDROOT
BRANCH  13  15
ATOM     15  N   UNL     1       7.554  -5.848  27.435  0.00  0.00    -0.342 N 
ATOM     16  H   UNL     1       8.447  -5.449  27.177  0.00  0.00    +0.144 HD
ATOM     17  H   UNL     1       7.121  -5.309  28.183  0.00  0.00    +0.144 HD
ENDBRANCH  13  15
BRANCH  14  18
ATOM     18  C   UNL     1       8.913  -2.626  23.085  0.00  0.00    +0.138 C 
BRANCH  18  19
ATOM     19  N   UNL     1       8.314  -1.554  22.328  0.00  0.00    -0.339 N 
ATOM     20  H   UNL     1       7.340  -1.717  22.081  0.00  0.00    +0.146 HD
BRANCH  19  21
ATOM     21  C   UNL     1       8.581  -0.193  22.599  0.00  0.00    +0.037 A 
ATOM     22  C   UNL     1       8.147   0.579  23.750  0.00  0.00    +0.021 A 
ATOM     23  C   UNL     1       8.674   1.883  23.940  0.00  0.00    +0.073 A 
ATOM     24  N   UNL     1       8.375   2.677  24.985  0.00  0.00    -0.255 NA
ATOM     25  C   UNL     1       7.520   2.226  25.919  0.00  0.00    +0.111 A 
ATOM     26  C   UNL     1       6.905   1.006  25.841  0.00  0.00    +0.020 A 
ATOM     27  C   UNL     1       9.560   2.414  23.019  0.00  0.00    +0.028 A 
ATOM     28  C   UNL     1       9.980   1.694  21.908  0.00  0.00    +0.004 A 
ATOM     29  C   UNL     1       7.206   0.204  24.746  0.00  0.00    +0.013 A 
ATOM     30  C   UNL     1       9.512   0.401  21.712  0.00  0.00    +0.023 A 
ENDBRANCH  19  21
ENDBRANCH  18  19
ENDBRANCH  14  18
TORSDOF 4
ENDMDL
MODEL 8
REMARK VINA RESULT:      -7.2      1.806      6.745
REMARK  Name = 
REMARK  5 active torsions:
REMARK  status: ('A' for Active; 'I' for Inactive)
REMARK    1  A    between atoms: C_1  and  C_2
REMARK    2  A    between atoms: C_3  and  C_4
REMARK    3  A    between atoms: C_4  and  N_5
REMARK    4  A    between atoms: N_5  and  C_6
REMARK    5  A    between atoms: C_23  and  N_24
REMARK                            x       y       z     vdW  Elec       q    Type
REMARK                         _______ _______ _______ _____ _____    ______ ____
ROOT
ATOM      1  C   UNL     1       7.848  -5.267  26.733  0.00  0.00    +0.045 C 
ATOM      2  C   UNL     1       7.429  -5.145  25.287  0.00  0.00    -0.030 A 
ATOM      3  C   UNL     1       6.171  -5.688  24.831  0.00  0.00    +0.062 A 
ATOM      4  C   UNL     1       5.825  -5.513  23.486  0.00  0.00    +0.167 A 
ATOM      5  N   UNL     1       4.694  -5.951  22.961  0.00  0.00    -0.195 NA
ATOM      6  C   UNL     1       3.861  -6.621  23.739  0.00  0.00    +0.216 A 
ATOM      7  N   UNL     1       4.050  -6.847  25.031  0.00  0.00    -0.199 NA
ATOM      8  N   UNL     1       2.693  -7.085  23.174  0.00  0.00    -0.327 N 
ATOM      9  H   UNL     1       1.974  -7.194  23.872  0.00  0.00    +0.145 HD
ATOM     10  H   UNL     1       2.471  -6.553  22.343  0.00  0.00    +0.145 HD
ATOM     11  N   UNL     1       6.621  -4.874  22.634  0.00  0.00    -0.235 NA
ATOM     12  C   UNL     1       7.787  -4.363  23.067  0.00  0.00    +0.118 A 
ATOM     13  C   UNL     1       5.190  -6.392  25.562  0.00  0.00    +0.131 A 
ATOM     14  C   UNL     1       8.234  -4.438  24.374  0.00  0.00    -0.009 A 
ENDROOT
BRANCH  13  15
ATOM     15  N   UNL     1       5.318  -6.709  26.916  0.00  0.00    -0.342 N 
ATOM     16  H   UNL     1       6.143  -6.298  27.332  0.00  0.00    +0.144 HD
ATOM     17  H   UNL     1       4.475  -6.369  27.377  0.00  0.00    +0.144 HD
ENDBRANCH  13  15
BRANCH  14  18
ATOM     18  C   UNL     1       9.453  -3.646  24.757  0.00  0.00    +0.138 C 
BRANCH  18  19
ATOM     19  N   UNL     1       9.699  -2.497  23.919  0.00  0.00    -0.339 N 
ATOM     20  H   UNL     1       9.591  -2.683  22.923  0.00  0.00    +0.146 HD
BRANCH  19  21
ATOM     21  C   UNL     1       9.281  -1.196  24.274  0.00  0.00    +0.037 A 
ATOM     22  C   UNL     1       9.038  -0.073  23.384  0.00  0.00    +0.021 A 
ATOM     23  C   UNL     1       8.441   1.102  23.909  0.00  0.00    +0.073 A 
ATOM     24  N   UNL     1       8.135   2.188  23.176  0.00  0.00    -0.255 NA
ATOM     25  C   UNL     1       8.410   2.183  21.860  0.00  0.00    +0.111 A 
ATOM     26  C   UNL     1       9.024   1.135  21.230  0.00  0.00    +0.020 A 
ATOM     27  C   UNL     1       8.129   1.180  25.254  0.00  0.00    +0.028 A 
ATOM     28  C   UNL     1       8.362   0.121  26.122  0.00  0.00    +0.004 A 
ATOM     29  C   UNL     1       9.353   0.026  22.001  0.00  0.00    +0.013 A 
ATOM     30  C   UNL     1       8.912  -1.057  25.634  0.00  0.00    +0.023 A 
ENDBRANCH  19  21
ENDBRANCH  18  19
ENDBRANCH  14  18
TORSDOF 4
ENDMDL
MODEL 9
REMARK VINA RESULT:      -7.2      1.495      2.473
REMARK  Name = 
REMARK  5 active torsions:
REMARK  status: ('A' for Active; 'I' for Inactive)
REMARK    1  A    between atoms: C_1  and  C_2
REMARK    2  A    between atoms: C_3  and  C_4
REMARK    3  A    between atoms: C_4  and  N_5
REMARK    4  A    between atoms: N_5  and  C_6
REMARK    5  A    between atoms: C_23  and  N_24
REMARK                            x       y       z     vdW  Elec       q    Type
REMARK                         _______ _______ _______ _____ _____    ______ ____
ROOT
ATOM      1  C   UNL     1       8.047  -1.687  26.331  0.00  0.00    +0.045 C 
ATOM      2  C   UNL     1       8.858  -1.439  25.082  0.00  0.00    -0.030 A 
ATOM      3  C   UNL     1       9.144  -0.094  24.640  0.00  0.00    +0.062 A 
ATOM      4  C   UNL     1       9.929   0.071  23.492  0.00  0.00    +0.167 A 
ATOM      5  N   UNL     1      10.270   1.250  23.005  0.00  0.00    -0.195 NA
ATOM      6  C   UNL     1       9.817   2.333  23.613  0.00  0.00    +0.216 A 
ATOM      7  N   UNL     1       9.080   2.329  24.714  0.00  0.00    -0.199 NA
ATOM      8  N   UNL     1      10.168   3.556  23.083  0.00  0.00    -0.327 N 
ATOM      9  H   UNL     1      10.150   4.274  23.792  0.00  0.00    +0.145 HD
ATOM     10  H   UNL     1      11.002   3.468  22.520  0.00  0.00    +0.145 HD
ATOM     11  N   UNL     1      10.401  -0.969  22.809  0.00  0.00    -0.235 NA
ATOM     12  C   UNL     1      10.138  -2.218  23.232  0.00  0.00    +0.118 A 
ATOM     13  C   UNL     1       8.747   1.133  25.211  0.00  0.00    +0.131 A 
ATOM     14  C   UNL     1       9.403  -2.520  24.364  0.00  0.00    -0.009 A 
ENDROOT
BRANCH  13  15
ATOM     15  N   UNL     1       7.941   1.228  26.349  0.00  0.00    -0.342 N 
ATOM     16  H   UNL     1       8.152   2.048  26.902  0.00  0.00    +0.144 HD
ATOM     17  H   UNL     1       6.977   1.251  26.024  0.00  0.00    +0.144 HD
ENDBRANCH  13  15
BRANCH  14  18
ATOM     18  C   UNL     1       9.363  -3.950  24.828  0.00  0.00    +0.138 C 
BRANCH  18  19
ATOM     19  N   UNL     1       8.446  -4.785  24.091  0.00  0.00    -0.339 N 
ATOM     20  H   UNL     1       8.719  -5.765  24.053  0.00  0.00    +0.146 HD
BRANCH  19  21
ATOM     21  C   UNL     1       7.045  -4.617  24.159  0.00  0.00    +0.037 A 
ATOM     22  C   UNL     1       6.178  -4.884  25.294  0.00  0.00    +0.021 A 
ATOM     23  C   UNL     1       4.821  -4.475  25.232  0.00  0.00    +0.073 A 
ATOM     24  N   UNL     1       3.936  -4.633  26.233  0.00  0.00    -0.255 NA
ATOM     25  C   UNL     1       4.341  -5.220  27.373  0.00  0.00    +0.111 A 
ATOM     26  C   UNL     1       5.610  -5.701  27.554  0.00  0.00    +0.020 A 
ATOM     27  C   UNL     1       4.332  -3.864  24.092  0.00  0.00    +0.028 A 
ATOM     28  C   UNL     1       5.143  -3.609  22.993  0.00  0.00    +0.004 A 
ATOM     29  C   UNL     1       6.510  -5.550  26.505  0.00  0.00    +0.013 A 
ATOM     30  C   UNL     1       6.485  -3.963  23.034  0.00  0.00    +0.023 A 
ENDBRANCH  19  21
ENDBRANCH  18  19
ENDBRANCH  14  18
TORSDOF 4
ENDMDL
