MODEL 1
REMARK VINA RESULT:      -7.5      0.000      0.000
REMARK  Name = 
REMARK  8 active torsions:
REMARK  status: ('A' for Active; 'I' for Inactive)
REMARK    1  A    between atoms: N_1  and  CA_2
REMARK    2  A    between atoms: CA_2  and  C_4
REMARK    3  A    between atoms: CA_2  and  C_26
REMARK    4  A    between atoms: C_4  and  C_5
REMARK    5  A    between atoms: N_9  and  C_10
REMARK    6  A    between atoms: C_13  and  C_15
REMARK    7  A    between atoms: C_21  and  O_22
REMARK    8  A    between atoms: C_26  and  O_27
REMARK                            x       y       z     vdW  Elec       q    Type
REMARK                         _______ _______ _______ _____ _____    ______ ____
ROOT
ATOM      1  C   UNL     1       5.554  -5.076  25.343  0.00  0.00    +0.068 C 
ATOM      2  C   UNL     1       5.930  -5.786  26.629  0.00  0.00    +0.163 C 
ATOM      3  O   UNL     1       5.132  -6.527  27.204  0.00  0.00    -0.292 OA
ATOM      4  C   UNL     1       7.298  -5.677  27.159  0.00  0.00    +0.093 C 
ATOM      5  C   UNL     1       8.201  -4.870  26.607  0.00  0.00    +0.141 C 
ATOM      6  C   UNL     1       7.841  -3.962  25.478  0.00  0.00    +0.078 C 
ATOM      7  N   UNL     1       8.829  -3.319  24.921  0.00  0.00    -0.281 NA
ATOM      8  C   UNL     1       6.366  -3.792  25.162  0.00  0.00    +0.070 C 
ENDROOT
BRANCH   7   9
ATOM      9  C   UNL     1       8.565  -2.296  23.961  0.00  0.00    +0.114 C 
ATOM     10  C   UNL     1       9.790  -1.887  23.149  0.00  0.00    +0.045 C 
ATOM     11  C   UNL     1       8.639  -2.603  22.500  0.00  0.00    +0.037 C 
BRANCH  10  12
ATOM     12  C   UNL     1      10.014  -0.402  23.031  0.00  0.00    -0.042 A 
ATOM     13  C   UNL     1       9.654   0.319  21.886  0.00  0.00    +0.004 A 
ATOM     14  C   UNL     1       9.809   1.708  21.835  0.00  0.00    +0.000 A 
ATOM     15  C   UNL     1      10.331   2.398  22.926  0.00  0.00    +0.000 A 
ATOM     16  C   UNL     1      10.725   1.699  24.061  0.00  0.00    +0.000 A 
ATOM     17  C   UNL     1      10.578   0.315  24.104  0.00  0.00    +0.004 A 
ENDBRANCH  10  12
ENDBRANCH   7   9
BRANCH   5  18
ATOM     18  O   UNL     1       9.487  -4.789  27.099  0.00  0.00    -0.505 OA
ATOM     19  H   UNL     1       9.635  -3.828  27.252  0.00  0.00    +0.292 HD
ENDBRANCH   5  18
BRANCH   1  20
ATOM     20  C   UNL     1       5.686  -5.968  24.090  0.00  0.00    +0.041 C 
BRANCH  20  21
ATOM     21  CA  UNL     1       5.115  -5.421  22.772  0.00  0.00    +0.161 C 
BRANCH  21  22
ATOM     22  N   UNL     1       3.851  -6.084  22.351  0.00  0.00    -0.318 NA
ATOM     23  H1  UNL     1       4.054  -6.773  21.620  0.00  0.00    +0.119 HD
ATOM     24  H2  UNL     1       3.539  -6.675  23.140  0.00  0.00    +0.119 HD
ENDBRANCH  21  22
BRANCH  21  25
ATOM     25  C   UNL     1       6.151  -5.639  21.644  0.00  0.00    +0.322 C 
ATOM     26  OXT UNL     1       5.915  -5.589  20.447  0.00  0.00    -0.249 OA
BRANCH  25  27
ATOM     27  O   UNL     1       7.386  -5.887  22.153  0.00  0.00    -0.480 OA
ATOM     28  H   UNL     1       7.713  -5.008  22.476  0.00  0.00    +0.295 HD
ENDBRANCH  25  27
ENDBRANCH  21  25
ENDBRANCH  20  21
ENDBRANCH   1  20
TORSDOF 8
ENDMDL
MODEL 2
REMARK VINA RESULT:      -7.2      1.598      1.921
REMARK  Name = 
REMARK  8 active torsions:
REMARK  status: ('A' for Active; 'I' for Inactive)
REMARK    1  A    between atoms: N_1  and  CA_2
REMARK    2  A    between atoms: CA_2  and  C_4
REMARK    3  A    between atoms: CA_2  and  C_26
REMARK    4  A    between atoms: C_4  and  C_5
REMARK    5  A    between atoms: N_9  and  C_10
REMARK    6  A    between atoms: C_13  and  C_15
REMARK    7  A    between atoms: C_21  and  O_22
REMARK    8  A    between atoms: C_26  and  O_27
REMARK                            x       y       z     vdW  Elec       q    Type
REMARK                         _______ _______ _______ _____ _____    ______ ____
ROOT
ATOM      1  C   UNL     1       6.364  -4.229  25.218  0.00  0.00    +0.068 C 
ATOM      2  C   UNL     1       6.970  -5.327  26.070  0.00  0.00    +0.163 C 
ATOM      3  O   UNL     1       6.268  -6.024  26.803  0.00  0.00    -0.292 OA
ATOM      4  C   UNL     1       8.402  -5.645  25.957  0.00  0.00    +0.093 C 
ATOM      5  C   UNL     1       9.224  -4.912  25.209  0.00  0.00    +0.141 C 
ATOM      6  C   UNL     1       8.751  -3.674  24.522  0.00  0.00    +0.078 C 
ATOM      7  N   UNL     1       9.597  -3.112  23.704  0.00  0.00    -0.281 NA
ATOM      8  C   UNL     1       7.389  -3.134  24.918  0.00  0.00    +0.070 C 
ENDROOT
BRANCH   7   9
ATOM      9  C   UNL     1       9.305  -1.832  23.144  0.00  0.00    +0.114 C 
ATOM     10  C   UNL     1      10.250  -0.729  23.612  0.00  0.00    +0.045 C 
ATOM     11  C   UNL     1      10.262  -1.199  22.184  0.00  0.00    +0.037 C 
BRANCH  10  12
ATOM     12  C   UNL     1       9.579   0.543  24.060  0.00  0.00    -0.042 A 
ATOM     13  C   UNL     1       8.580   0.555  25.042  0.00  0.00    +0.004 A 
ATOM     14  C   UNL     1       8.028   1.760  25.488  0.00  0.00    +0.000 A 
ATOM     15  C   UNL     1       8.460   2.972  24.955  0.00  0.00    +0.000 A 
ATOM     16  C   UNL     1       9.428   2.982  23.957  0.00  0.00    +0.000 A 
ATOM     17  C   UNL     1       9.968   1.779  23.509  0.00  0.00    +0.004 A 
ENDBRANCH  10  12
ENDBRANCH   7   9
BRANCH   5  18
ATOM     18  O   UNL     1      10.562  -5.228  25.092  0.00  0.00    -0.505 OA
ATOM     19  H   UNL     1      10.636  -5.676  24.219  0.00  0.00    +0.292 HD
ENDBRANCH   5  18
BRANCH   1  20
ATOM     20  C   UNL     1       5.740  -4.747  23.905  0.00  0.00    +0.041 C 
BRANCH  20  21
ATOM     21  CA  UNL     1       6.297  -4.180  22.589  0.00  0.00    +0.161 C 
BRANCH  21  22
ATOM     22  N   UNL     1       5.361  -3.253  21.897  0.00  0.00    -0.318 NA
ATOM     23  H1  UNL     1       5.424  -3.396  20.885  0.00  0.00    +0.119 HD
ATOM     24  H2  UNL     1       4.401  -3.572  22.113  0.00  0.00    +0.119 HD
ENDBRANCH  21  22
BRANCH  21  25
ATOM     25  C   UNL     1       6.591  -5.349  21.620  0.00  0.00    +0.322 C 
ATOM     26  OXT UNL     1       6.048  -5.527  20.541  0.00  0.00    -0.249 OA
BRANCH  25  27
ATOM     27  O   UNL     1       7.556  -6.167  22.116  0.00  0.00    -0.480 OA
ATOM     28  H   UNL     1       8.413  -5.725  21.886  0.00  0.00    +0.295 HD
ENDBRANCH  25  27
ENDBRANCH  21  25
ENDBRANCH  20  21
ENDBRANCH   1  20
TORSDOF 8
ENDMDL
MODEL 3
REMARK VINA RESULT:      -7.0      1.629      2.034
REMARK  Name = 
REMARK  8 active torsions:
REMARK  status: ('A' for Active; 'I' for Inactive)
REMARK    1  A    between atoms: N_1  and  CA_2
REMARK    2  A    between atoms: CA_2  and  C_4
REMARK    3  A    between atoms: CA_2  and  C_26
REMARK    4  A    between atoms: C_4  and  C_5
REMARK    5  A    between atoms: N_9  and  C_10
REMARK    6  A    between atoms: C_13  and  C_15
REMARK    7  A    between atoms: C_21  and  O_22
REMARK    8  A    between atoms: C_26  and  O_27
REMARK                            x       y       z     vdW  Elec       q    Type
REMARK                         _______ _______ _______ _____ _____    ______ ____
ROOT
ATOM      1  C   UNL     1       5.476  -4.994  25.422  0.00  0.00    +0.068 C 
ATOM      2  C   UNL     1       5.872  -5.737  26.684  0.00  0.00    +0.163 C 
ATOM      3  O   UNL     1       5.072  -6.468  27.269  0.00  0.00    -0.292 OA
ATOM      4  C   UNL     1       7.258  -5.675  27.174  0.00  0.00    +0.093 C 
ATOM      5  C   UNL     1       8.164  -4.881  26.609  0.00  0.00    +0.141 C 
ATOM      6  C   UNL     1       7.796  -3.943  25.507  0.00  0.00    +0.078 C 
ATOM      7  N   UNL     1       8.784  -3.316  24.932  0.00  0.00    -0.281 NA
ATOM      8  C   UNL     1       6.317  -3.729  25.240  0.00  0.00    +0.070 C 
ENDROOT
BRANCH   7   9
ATOM      9  C   UNL     1       8.518  -2.269  23.999  0.00  0.00    +0.114 C 
ATOM     10  C   UNL     1       9.748  -1.820  23.217  0.00  0.00    +0.045 C 
ATOM     11  C   UNL     1       8.616  -2.532  22.530  0.00  0.00    +0.037 C 
BRANCH  10  12
ATOM     12  C   UNL     1       9.954  -0.329  23.145  0.00  0.00    -0.042 A 
ATOM     13  C   UNL     1      10.489   0.403  24.212  0.00  0.00    +0.004 A 
ATOM     14  C   UNL     1      10.735   1.775  24.088  0.00  0.00    +0.000 A 
ATOM     15  C   UNL     1      10.443   2.437  22.898  0.00  0.00    +0.000 A 
ATOM     16  C   UNL     1       9.881   1.736  21.837  0.00  0.00    +0.000 A 
ATOM     17  C   UNL     1       9.630   0.372  21.968  0.00  0.00    +0.004 A 
ENDBRANCH  10  12
ENDBRANCH   7   9
BRANCH   5  18
ATOM     18  O   UNL     1       9.467  -4.843  27.062  0.00  0.00    -0.505 OA
ATOM     19  H   UNL     1       9.656  -5.765  27.351  0.00  0.00    +0.292 HD
ENDBRANCH   5  18
BRANCH   1  20
ATOM     20  C   UNL     1       5.547  -5.866  24.150  0.00  0.00    +0.041 C 
BRANCH  20  21
ATOM     21  CA  UNL     1       4.245  -6.059  23.356  0.00  0.00    +0.161 C 
BRANCH  21  22
ATOM     22  N   UNL     1       3.618  -4.782  22.921  0.00  0.00    -0.318 NA
ATOM     23  H1  UNL     1       4.345  -4.071  22.792  0.00  0.00    +0.119 HD
ATOM     24  H2  UNL     1       3.267  -4.925  21.959  0.00  0.00    +0.119 HD
ENDBRANCH  21  22
BRANCH  21  25
ATOM     25  C   UNL     1       3.217  -6.800  24.244  0.00  0.00    +0.322 C 
ATOM     26  OXT UNL     1       2.061  -6.453  24.427  0.00  0.00    -0.249 OA
BRANCH  25  27
ATOM     27  O   UNL     1       3.761  -7.915  24.799  0.00  0.00    -0.480 OA
ATOM     28  H   UNL     1       3.467  -8.662  24.217  0.00  0.00    +0.295 HD
ENDBRANCH  25  27
ENDBRANCH  21  25
ENDBRANCH  20  21
ENDBRANCH   1  20
TORSDOF 8
ENDMDL
MODEL 4
REMARK VINA RESULT:      -6.8      2.014      4.012
REMARK  Name = 
REMARK  8 active torsions:
REMARK  status: ('A' for Active; 'I' for Inactive)
REMARK    1  A    between atoms: N_1  and  CA_2
REMARK    2  A    between atoms: CA_2  and  C_4
REMARK    3  A    between atoms: CA_2  and  C_26
REMARK    4  A    between atoms: C_4  and  C_5
REMARK    5  A    between atoms: N_9  and  C_10
REMARK    6  A    between atoms: C_13  and  C_15
REMARK    7  A    between atoms: C_21  and  O_22
REMARK    8  A    between atoms: C_26  and  O_27
REMARK                            x       y       z     vdW  Elec       q    Type
REMARK                         _______ _______ _______ _____ _____    ______ ____
ROOT
ATOM      1  C   UNL     1       7.153  -4.450  22.607  0.00  0.00    +0.068 C 
ATOM      2  C   UNL     1       5.697  -4.825  22.403  0.00  0.00    +0.163 C 
ATOM      3  O   UNL     1       5.372  -5.692  21.591  0.00  0.00    -0.292 OA
ATOM      4  C   UNL     1       4.654  -4.226  23.250  0.00  0.00    +0.093 C 
ATOM      5  C   UNL     1       4.932  -3.261  24.123  0.00  0.00    +0.141 C 
ATOM      6  C   UNL     1       6.301  -2.673  24.221  0.00  0.00    +0.078 C 
ATOM      7  N   UNL     1       6.498  -1.837  25.202  0.00  0.00    -0.281 NA
ATOM      8  C   UNL     1       7.287  -3.015  23.119  0.00  0.00    +0.070 C 
ENDROOT
BRANCH   7   9
ATOM      9  C   UNL     1       7.712  -1.089  25.269  0.00  0.00    +0.114 C 
ATOM     10  C   UNL     1       7.523   0.406  25.030  0.00  0.00    +0.045 C 
ATOM     11  C   UNL     1       7.930  -0.113  26.381  0.00  0.00    +0.037 C 
BRANCH  10  12
ATOM     12  C   UNL     1       8.489   1.027  24.056  0.00  0.00    -0.042 A 
ATOM     13  C   UNL     1       9.416   2.003  24.443  0.00  0.00    +0.004 A 
ATOM     14  C   UNL     1      10.349   2.508  23.531  0.00  0.00    +0.000 A 
ATOM     15  C   UNL     1      10.365   2.050  22.215  0.00  0.00    +0.000 A 
ATOM     16  C   UNL     1       9.434   1.105  21.801  0.00  0.00    +0.000 A 
ATOM     17  C   UNL     1       8.501   0.612  22.711  0.00  0.00    +0.004 A 
ENDBRANCH  10  12
ENDBRANCH   7   9
BRANCH   5  18
ATOM     18  O   UNL     1       3.952  -2.717  24.928  0.00  0.00    -0.505 OA
ATOM     19  H   UNL     1       3.509  -2.046  24.362  0.00  0.00    +0.292 HD
ENDBRANCH   5  18
BRANCH   1  20
ATOM     20  C   UNL     1       7.909  -5.420  23.539  0.00  0.00    +0.041 C 
BRANCH  20  21
ATOM     21  CA  UNL     1       8.600  -4.815  24.773  0.00  0.00    +0.161 C 
BRANCH  21  22
ATOM     22  N   UNL     1      10.042  -5.166  24.878  0.00  0.00    -0.318 NA
ATOM     23  H1  UNL     1      10.172  -6.154  24.638  0.00  0.00    +0.119 HD
ATOM     24  H2  UNL     1      10.532  -4.678  24.109  0.00  0.00    +0.119 HD
ENDBRANCH  21  22
BRANCH  21  25
ATOM     25  C   UNL     1       7.901  -5.339  26.050  0.00  0.00    +0.322 C 
ATOM     26  OXT UNL     1       6.797  -5.859  26.089  0.00  0.00    -0.249 OA
BRANCH  25  27
ATOM     27  O   UNL     1       8.684  -5.163  27.146  0.00  0.00    -0.480 OA
ATOM     28  H   UNL     1       8.191  -4.517  27.714  0.00  0.00    +0.295 HD
ENDBRANCH  25  27
ENDBRANCH  21  25
ENDBRANCH  20  21
ENDBRANCH   1  20
TORSDOF 8
ENDMDL
MODEL 5
REMARK VINA RESULT:      -6.6      2.490      4.752
REMARK  Name = 
REMARK  8 active torsions:
REMARK  status: ('A' for Active; 'I' for Inactive)
REMARK    1  A    between atoms: N_1  and  CA_2
REMARK    2  A    between atoms: CA_2  and  C_4
REMARK    3  A    between atoms: CA_2  and  C_26
REMARK    4  A    between atoms: C_4  and  C_5
REMARK    5  A    between atoms: N_9  and  C_10
REMARK    6  A    between atoms: C_13  and  C_15
REMARK    7  A    between atoms: C_21  and  O_22
REMARK    8  A    between atoms: C_26  and  O_27
REMARK                            x       y       z     vdW  Elec       q    Type
REMARK                         _______ _______ _______ _____ _____    ______ ____
ROOT
ATOM      1  C   UNL     1       9.254  -3.414  24.152  0.00  0.00    +0.068 C 
ATOM      2  C   UNL     1       8.030  -4.040  23.511  0.00  0.00    +0.163 C 
ATOM      3  O   UNL     1       7.852  -5.258  23.535  0.00  0.00    -0.292 OA
ATOM      4  C   UNL     1       6.980  -3.186  22.934  0.00  0.00    +0.093 C 
ATOM      5  C   UNL     1       7.122  -1.865  22.846  0.00  0.00    +0.141 C 
ATOM      6  C   UNL     1       8.395  -1.194  23.243  0.00  0.00    +0.078 C 
ATOM      7  N   UNL     1       8.379   0.110  23.250  0.00  0.00    -0.281 NA
ATOM      8  C   UNL     1       9.603  -2.080  23.490  0.00  0.00    +0.070 C 
ENDROOT
BRANCH   7   9
ATOM      9  C   UNL     1       9.593   0.838  23.437  0.00  0.00    +0.114 C 
ATOM     10  C   UNL     1       9.482   1.957  24.467  0.00  0.00    +0.045 C 
ATOM     11  C   UNL     1      10.329   0.745  24.735  0.00  0.00    +0.037 C 
BRANCH  10  12
ATOM     12  C   UNL     1      10.048   3.284  24.035  0.00  0.00    -0.042 A 
ATOM     13  C   UNL     1       9.320   4.476  24.136  0.00  0.00    +0.004 A 
ATOM     14  C   UNL     1       9.900   5.702  23.794  0.00  0.00    +0.000 A 
ATOM     15  C   UNL     1      11.216   5.755  23.339  0.00  0.00    +0.000 A 
ATOM     16  C   UNL     1      11.947   4.582  23.201  0.00  0.00    +0.000 A 
ATOM     17  C   UNL     1      11.362   3.362  23.534  0.00  0.00    +0.004 A 
ENDBRANCH  10  12
ENDBRANCH   7   9
BRANCH   5  18
ATOM     18  O   UNL     1       6.124  -1.070  22.322  0.00  0.00    -0.505 OA
ATOM     19  H   UNL     1       5.508  -1.700  21.885  0.00  0.00    +0.292 HD
ENDBRANCH   5  18
BRANCH   1  20
ATOM     20  C   UNL     1       9.118  -3.229  25.678  0.00  0.00    +0.041 C 
BRANCH  20  21
ATOM     21  CA  UNL     1       9.238  -4.487  26.554  0.00  0.00    +0.161 C 
BRANCH  21  22
ATOM     22  N   UNL     1       9.920  -5.622  25.873  0.00  0.00    -0.318 NA
ATOM     23  H1  UNL     1      10.929  -5.445  25.841  0.00  0.00    +0.119 HD
ATOM     24  H2  UNL     1       9.852  -6.440  26.502  0.00  0.00    +0.119 HD
ENDBRANCH  21  22
BRANCH  21  25
ATOM     25  C   UNL     1       7.821  -4.966  26.946  0.00  0.00    +0.322 C 
ATOM     26  OXT UNL     1       7.029  -4.342  27.635  0.00  0.00    -0.249 OA
BRANCH  25  27
ATOM     27  O   UNL     1       7.549  -6.185  26.411  0.00  0.00    -0.480 OA
ATOM     28  H   UNL     1       7.056  -6.673  27.119  0.00  0.00    +0.295 HD
ENDBRANCH  25  27
ENDBRANCH  21  25
ENDBRANCH  20  21
ENDBRANCH   1  20
TORSDOF 8
ENDMDL
MODEL 6
REMARK VINA RESULT:      -6.6      3.805      7.078
REMARK  Name = 
REMARK  8 active torsions:
REMARK  status: ('A' for Active; 'I' for Inactive)
REMARK    1  A    between atoms: N_1  and  CA_2
REMARK    2  A    between atoms: CA_2  and  C_4
REMARK    3  A    between atoms: CA_2  and  C_26
REMARK    4  A    between atoms: C_4  and  C_5
REMARK    5  A    between atoms: N_9  and  C_10
REMARK    6  A    between atoms: C_13  and  C_15
REMARK    7  A    between atoms: C_21  and  O_22
REMARK    8  A    between atoms: C_26  and  O_27
REMARK                            x       y       z     vdW  Elec       q    Type
REMARK                         _______ _______ _______ _____ _____    ______ ____
ROOT
ATOM      1  C   UNL     1       8.630  -0.159  23.240  0.00  0.00    +0.068 C 
ATOM      2  C   UNL     1       9.832   0.395  23.980  0.00  0.00    +0.163 C 
ATOM      3  O   UNL     1      10.683   1.068  23.397  0.00  0.00    -0.292 OA
ATOM      4  C   UNL     1       9.949   0.219  25.435  0.00  0.00    +0.093 C 
ATOM      5  C   UNL     1       9.084  -0.524  26.122  0.00  0.00    +0.141 C 
ATOM      6  C   UNL     1       8.005  -1.293  25.434  0.00  0.00    +0.078 C 
ATOM      7  N   UNL     1       7.130  -1.872  26.208  0.00  0.00    -0.281 NA
ATOM      8  C   UNL     1       8.092  -1.417  23.924  0.00  0.00    +0.070 C 
ENDROOT
BRANCH   7   9
ATOM      9  C   UNL     1       6.173  -2.775  25.653  0.00  0.00    +0.114 C 
ATOM     10  C   UNL     1       6.661  -4.219  25.589  0.00  0.00    +0.045 C 
ATOM     11  C   UNL     1       5.545  -3.823  26.515  0.00  0.00    +0.037 C 
BRANCH  10  12
ATOM     12  C   UNL     1       6.436  -4.913  24.272  0.00  0.00    -0.042 A 
ATOM     13  C   UNL     1       5.166  -5.325  23.852  0.00  0.00    +0.004 A 
ATOM     14  C   UNL     1       4.979  -5.903  22.591  0.00  0.00    +0.000 A 
ATOM     15  C   UNL     1       6.062  -6.083  21.733  0.00  0.00    +0.000 A 
ATOM     16  C   UNL     1       7.337  -5.710  22.142  0.00  0.00    +0.000 A 
ATOM     17  C   UNL     1       7.519  -5.145  23.402  0.00  0.00    +0.004 A 
ENDBRANCH  10  12
ENDBRANCH   7   9
BRANCH   5  18
ATOM     18  O   UNL     1       9.189  -0.668  27.490  0.00  0.00    -0.505 OA
ATOM     19  H   UNL     1       8.609  -1.432  27.705  0.00  0.00    +0.292 HD
ENDBRANCH   5  18
BRANCH   1  20
ATOM     20  C   UNL     1       7.496   0.872  23.057  0.00  0.00    +0.041 C 
BRANCH  20  21
ATOM     21  CA  UNL     1       7.569   1.789  21.825  0.00  0.00    +0.161 C 
BRANCH  21  22
ATOM     22  N   UNL     1       8.709   1.480  20.921  0.00  0.00    -0.318 NA
ATOM     23  H1  UNL     1       8.400   0.831  20.191  0.00  0.00    +0.119 HD
ATOM     24  H2  UNL     1       8.918   2.341  20.387  0.00  0.00    +0.119 HD
ENDBRANCH  21  22
BRANCH  21  25
ATOM     25  C   UNL     1       7.735   3.253  22.296  0.00  0.00    +0.322 C 
ATOM     26  OXT UNL     1       6.836   4.076  22.379  0.00  0.00    -0.249 OA
BRANCH  25  27
ATOM     27  O   UNL     1       9.026   3.520  22.626  0.00  0.00    -0.480 OA
ATOM     28  H   UNL     1       9.260   2.846  23.315  0.00  0.00    +0.295 HD
ENDBRANCH  25  27
ENDBRANCH  21  25
ENDBRANCH  20  21
ENDBRANCH   1  20
TORSDOF 8
ENDMDL
MODEL 7
REMARK VINA RESULT:      -6.5      3.093      7.347
REMARK  Name = 
REMARK  8 active torsions:
REMARK  status: ('A' for Active; 'I' for Inactive)
REMARK    1  A    between atoms: N_1  and  CA_2
REMARK    2  A    between atoms: CA_2  and  C_4
REMARK    3  A    between atoms: CA_2  and  C_26
REMARK    4  A    between atoms: C_4  and  C_5
REMARK    5  A    between atoms: N_9  and  C_10
REMARK    6  A    between atoms: C_13  and  C_15
REMARK    7  A    between atoms: C_21  and  O_22
REMARK    8  A    between atoms: C_26  and  O_27
REMARK                            x       y       z     vdW  Elec       q    Type
REMARK                         _______ _______ _______ _____ _____    ______ ____
ROOT
ATOM      1  C   UNL     1       7.421   0.859  23.335  0.00  0.00    +0.068 C 
ATOM      2  C   UNL     1       8.164   1.292  22.085  0.00  0.00    +0.163 C 
ATOM      3  O   UNL     1       7.986   2.407  21.594  0.00  0.00    -0.292 OA
ATOM      4  C   UNL     1       9.189   0.417  21.495  0.00  0.00    +0.093 C 
ATOM      5  C   UNL     1       9.409  -0.812  21.955  0.00  0.00    +0.141 C 
ATOM      6  C   UNL     1       8.560  -1.400  23.034  0.00  0.00    +0.078 C 
ATOM      7  N   UNL     1       8.948  -2.552  23.506  0.00  0.00    -0.281 NA
ATOM      8  C   UNL     1       7.283  -0.664  23.396  0.00  0.00    +0.070 C 
ENDROOT
BRANCH   7   9
ATOM      9  C   UNL     1       8.107  -3.275  24.405  0.00  0.00    +0.114 C 
ATOM     10  C   UNL     1       7.936  -4.744  24.034  0.00  0.00    +0.045 C 
ATOM     11  C   UNL     1       8.685  -4.345  25.274  0.00  0.00    +0.037 C 
BRANCH  10  12
ATOM     12  C   UNL     1       6.517  -5.249  24.050  0.00  0.00    -0.042 A 
ATOM     13  C   UNL     1       5.728  -5.295  22.894  0.00  0.00    +0.004 A 
ATOM     14  C   UNL     1       4.438  -5.836  22.927  0.00  0.00    +0.000 A 
ATOM     15  C   UNL     1       3.915  -6.333  24.119  0.00  0.00    +0.000 A 
ATOM     16  C   UNL     1       4.668  -6.269  25.285  0.00  0.00    +0.000 A 
ATOM     17  C   UNL     1       5.948  -5.720  25.248  0.00  0.00    +0.004 A 
ENDBRANCH  10  12
ENDBRANCH   7   9
BRANCH   5  18
ATOM     18  O   UNL     1      10.386  -1.619  21.409  0.00  0.00    -0.505 OA
ATOM     19  H   UNL     1      10.709  -2.162  22.163  0.00  0.00    +0.292 HD
ENDBRANCH   5  18
BRANCH   1  20
ATOM     20  C   UNL     1       8.056   1.387  24.638  0.00  0.00    +0.041 C 
BRANCH  20  21
ATOM     21  CA  UNL     1       7.731   0.630  25.937  0.00  0.00    +0.161 C 
BRANCH  21  22
ATOM     22  N   UNL     1       7.396   1.525  27.078  0.00  0.00    -0.318 NA
ATOM     23  H1  UNL     1       7.123   0.959  27.887  0.00  0.00    +0.119 HD
ATOM     24  H2  UNL     1       8.278   1.963  27.393  0.00  0.00    +0.119 HD
ENDBRANCH  21  22
BRANCH  21  25
ATOM     25  C   UNL     1       8.963  -0.208  26.353  0.00  0.00    +0.322 C 
ATOM     26  OXT UNL     1       8.942  -1.167  27.109  0.00  0.00    -0.249 OA
BRANCH  25  27
ATOM     27  O   UNL     1      10.093   0.248  25.755  0.00  0.00    -0.480 OA
ATOM     28  H   UNL     1      10.462  -0.533  25.269  0.00  0.00    +0.295 HD
ENDBRANCH  25  27
ENDBRANCH  21  25
ENDBRANCH  20  21
ENDBRANCH   1  20
TORSDOF 8
ENDMDL
MODEL 8
REMARK VINA RESULT:      -6.4      3.662      6.180
REMARK  Name = 
REMARK  8 active torsions:
REMARK  status: ('A' for Active; 'I' for Inactive)
REMARK    1  A    between atoms: N_1  and  CA_2
REMARK    2  A    between atoms: CA_2  and  C_4
REMARK    3  A    between atoms: CA_2  and  C_26
REMARK    4  A    between atoms: C_4  and  C_5
REMARK    5  A    between atoms: N_9  and  C_10
REMARK    6  A    between atoms: C_13  and  C_15
REMARK    7  A    between atoms: C_21  and  O_22
REMARK    8  A    between atoms: C_26  and  O_27
REMARK                            x       y       z     vdW  Elec       q    Type
REMARK                         _______ _______ _______ _____ _____    ______ ____
ROOT
ATOM      1  C   UNL     1       9.476  -0.769  24.703  0.00  0.00    +0.068 C 
ATOM      2  C   UNL     1       9.734  -1.523  23.412  0.00  0.00    +0.163 C 
ATOM      3  O   UNL     1      10.045  -2.714  23.423  0.00  0.00    -0.292 OA
ATOM      4  C   UNL     1       9.517  -0.862  22.115  0.00  0.00    +0.093 C 
ATOM      5  C   UNL     1       9.212   0.430  22.031  0.00  0.00    +0.141 C 
ATOM      6  C   UNL     1       9.167   1.298  23.245  0.00  0.00    +0.078 C 
ATOM      7  N   UNL     1       8.722   2.511  23.069  0.00  0.00    -0.281 NA
ATOM      8  C   UNL     1       9.740   0.728  24.530  0.00  0.00    +0.070 C 
ENDROOT
BRANCH   7   9
ATOM      9  C   UNL     1       8.814   3.465  24.126  0.00  0.00    +0.114 C 
ATOM     10  C   UNL     1       8.948   4.905  23.640  0.00  0.00    +0.045 C 
ATOM     11  C   UNL     1       7.705   4.444  24.349  0.00  0.00    +0.037 C 
BRANCH  10  12
ATOM     12  C   UNL     1      10.033   5.709  24.309  0.00  0.00    -0.042 A 
ATOM     13  C   UNL     1       9.809   6.430  25.488  0.00  0.00    +0.004 A 
ATOM     14  C   UNL     1      10.855   7.107  26.124  0.00  0.00    +0.000 A 
ATOM     15  C   UNL     1      12.140   7.079  25.586  0.00  0.00    +0.000 A 
ATOM     16  C   UNL     1      12.378   6.397  24.400  0.00  0.00    +0.000 A 
ATOM     17  C   UNL     1      11.331   5.732  23.765  0.00  0.00    +0.004 A 
ENDBRANCH  10  12
ENDBRANCH   7   9
BRANCH   5  18
ATOM     18  O   UNL     1       8.990   1.037  20.812  0.00  0.00    -0.505 OA
ATOM     19  H   UNL     1       8.420   1.812  21.020  0.00  0.00    +0.292 HD
ENDBRANCH   5  18
BRANCH   1  20
ATOM     20  C   UNL     1       8.059  -0.996  25.272  0.00  0.00    +0.041 C 
BRANCH  20  21
ATOM     21  CA  UNL     1       7.078  -1.811  24.413  0.00  0.00    +0.161 C 
BRANCH  21  22
ATOM     22  N   UNL     1       5.759  -1.146  24.226  0.00  0.00    -0.318 NA
ATOM     23  H1  UNL     1       5.064  -1.588  24.835  0.00  0.00    +0.119 HD
ATOM     24  H2  UNL     1       5.838  -0.194  24.623  0.00  0.00    +0.119 HD
ENDBRANCH  21  22
BRANCH  21  25
ATOM     25  C   UNL     1       6.817  -3.172  25.099  0.00  0.00    +0.322 C 
ATOM     26  OXT UNL     1       5.914  -3.405  25.888  0.00  0.00    -0.249 OA
BRANCH  25  27
ATOM     27  O   UNL     1       7.723  -4.104  24.702  0.00  0.00    -0.480 OA
ATOM     28  H   UNL     1       8.137  -4.434  25.540  0.00  0.00    +0.295 HD
ENDBRANCH  25  27
ENDBRANCH  21  25
ENDBRANCH  20  21
ENDBRANCH   1  20
TORSDOF 8
ENDMDL
MODEL 9
REMARK VINA RESULT:      -6.3      4.030      7.826
REMARK  Name = 
REMARK  8 active torsions:
REMARK  status: ('A' for Active; 'I' for Inactive)
REMARK    1  A    between atoms: N_1  and  CA_2
REMARK    2  A    between atoms: CA_2  and  C_4
REMARK    3  A    between atoms: CA_2  and  C_26
REMARK    4  A    between atoms: C_4  and  C_5
REMARK    5  A    between atoms: N_9  and  C_10
REMARK    6  A    between atoms: C_13  and  C_15
REMARK    7  A    between atoms: C_21  and  O_22
REMARK    8  A    between atoms: C_26  and  O_27
REMARK                            x       y       z     vdW  Elec       q    Type
REMARK                         _______ _______ _______ _____ _____    ______ ____
ROOT
ATOM      1  C   UNL     1       7.417   0.839  23.298  0.00  0.00    +0.068 C 
ATOM      2  C   UNL     1       8.127   1.250  22.022  0.00  0.00    +0.163 C 
ATOM      3  O   UNL     1       7.865   2.316  21.464  0.00  0.00    -0.292 OA
ATOM      4  C   UNL     1       9.218   0.422  21.485  0.00  0.00    +0.093 C 
ATOM      5  C   UNL     1       9.531  -0.756  22.019  0.00  0.00    +0.141 C 
ATOM      6  C   UNL     1       8.728  -1.340  23.135  0.00  0.00    +0.078 C 
ATOM      7  N   UNL     1       9.202  -2.426  23.676  0.00  0.00    -0.281 NA
ATOM      8  C   UNL     1       7.397  -0.683  23.453  0.00  0.00    +0.070 C 
ENDROOT
BRANCH   7   9
ATOM      9  C   UNL     1       8.417  -3.155  24.620  0.00  0.00    +0.114 C 
ATOM     10  C   UNL     1       8.325  -4.647  24.316  0.00  0.00    +0.045 C 
ATOM     11  C   UNL     1       9.068  -4.152  25.525  0.00  0.00    +0.037 C 
BRANCH  10  12
ATOM     12  C   UNL     1       6.936  -5.229  24.379  0.00  0.00    -0.042 A 
ATOM     13  C   UNL     1       6.149  -5.407  23.235  0.00  0.00    +0.004 A 
ATOM     14  C   UNL     1       4.893  -6.017  23.317  0.00  0.00    +0.000 A 
ATOM     15  C   UNL     1       4.402  -6.453  24.545  0.00  0.00    +0.000 A 
ATOM     16  C   UNL     1       5.153  -6.259  25.698  0.00  0.00    +0.000 A 
ATOM     17  C   UNL     1       6.399  -5.642  25.613  0.00  0.00    +0.004 A 
ENDBRANCH  10  12
ENDBRANCH   7   9
BRANCH   5  18
ATOM     18  O   UNL     1      10.568  -1.517  21.522  0.00  0.00    -0.505 OA
ATOM     19  H   UNL     1      11.140  -1.697  22.302  0.00  0.00    +0.292 HD
ENDBRANCH   5  18
BRANCH   1  20
ATOM     20  C   UNL     1       8.007   1.494  24.565  0.00  0.00    +0.041 C 
BRANCH  20  21
ATOM     21  CA  UNL     1       7.432   2.856  24.987  0.00  0.00    +0.161 C 
BRANCH  21  22
ATOM     22  N   UNL     1       6.309   3.320  24.127  0.00  0.00    -0.318 NA
ATOM     23  H1  UNL     1       5.650   3.865  24.691  0.00  0.00    +0.119 HD
ATOM     24  H2  UNL     1       6.693   4.027  23.478  0.00  0.00    +0.119 HD
ENDBRANCH  21  22
BRANCH  21  25
ATOM     25  C   UNL     1       8.549   3.923  24.904  0.00  0.00    +0.322 C 
ATOM     26  OXT UNL     1       8.693   4.858  25.676  0.00  0.00    -0.249 OA
BRANCH  25  27
ATOM     27  O   UNL     1       9.379   3.684  23.855  0.00  0.00    -0.480 OA
ATOM     28  H   UNL     1      10.279   3.581  24.257  0.00  0.00    +0.295 HD
ENDBRANCH  25  27
ENDBRANCH  21  25
ENDBRANCH  20  21
ENDBRANCH   1  20
TORSDOF 8
ENDMDL
