MODEL 1
REMARK VINA RESULT:      -7.6      0.000      0.000
REMARK  Name = 
REMARK  5 active torsions:
REMARK  status: ('A' for Active; 'I' for Inactive)
REMARK    1  A    between atoms: C_1  and  N_2
REMARK    2  A    between atoms: N_2  and  C_3
REMARK    3  A    between atoms: N_2  and  S_4
REMARK    4  A    between atoms: S_4  and  C_7
REMARK    5  A    between atoms: C_15  and  C_16
REMARK                            x       y       z     vdW  Elec       q    Type
REMARK                         _______ _______ _______ _____ _____    ______ ____
ROOT
ATOM      1  C   UNL     1       7.276  -3.967  25.325  0.00  0.00    +0.106 A 
ATOM      2  C   UNL     1       7.706  -2.639  25.311  0.00  0.00    +0.039 A 
ATOM      3  C   UNL     1       8.136  -2.118  24.106  0.00  0.00    +0.010 A 
ATOM      4  C   UNL     1       8.121  -2.883  22.939  0.00  0.00    +0.042 A 
ATOM      5  N   UNL     1       8.605  -2.136  21.869  0.00  0.00    -0.281 N 
ATOM      6  H   UNL     1       8.708  -2.459  20.919  0.00  0.00    +0.155 HD
ATOM      7  C   UNL     1       8.988  -0.860  22.271  0.00  0.00    +0.249 C 
ATOM      8  O   UNL     1       9.524  -0.011  21.585  0.00  0.00    -0.270 OA
ATOM      9  C   UNL     1       7.678  -4.191  22.929  0.00  0.00    +0.026 A 
ATOM     10  C   UNL     1       8.648  -0.796  23.739  0.00  0.00    +0.048 C 
ATOM     11  C   UNL     1       8.695   0.207  24.627  0.00  0.00    +0.039 C 
ATOM     12  C   UNL     1       7.247  -4.739  24.145  0.00  0.00    +0.030 A 
ENDROOT
BRANCH  11  13
ATOM     13  C   UNL     1       9.073   1.546  24.406  0.00  0.00    +0.040 A 
ATOM     14  N   UNL     1      10.291   1.887  23.875  0.00  0.00    -0.358 N 
ATOM     15  H   UNL     1      10.981   1.235  23.516  0.00  0.00    +0.166 HD
ATOM     16  C   UNL     1      10.404   3.251  23.850  0.00  0.00    +0.020 A 
ATOM     17  C   UNL     1      11.600   3.964  23.371  0.00  0.00    +0.053 C 
ATOM     18  C   UNL     1      11.428   5.487  23.390  0.00  0.00    +0.006 C 
ATOM     19  C   UNL     1      10.110   6.122  23.880  0.00  0.00    +0.005 C 
ATOM     20  C   UNL     1       8.961   5.242  24.385  0.00  0.00    +0.037 C 
ATOM     21  C   UNL     1       9.234   3.795  24.316  0.00  0.00    -0.026 A 
ATOM     22  C   UNL     1       8.400   2.719  24.690  0.00  0.00    +0.031 A 
ENDBRANCH  11  13
BRANCH   1  23
ATOM     23  S   UNL     1       6.660  -4.634  26.855  0.00  0.00    +0.060 S 
ATOM     24  O   UNL     1       7.673  -5.512  27.400  0.00  0.00    -0.153 OA
ATOM     25  O   UNL     1       6.144  -3.525  27.628  0.00  0.00    -0.153 OA
BRANCH  23  27
ATOM     26  C   UNL     1       5.006  -6.737  27.252  0.00  0.00    +0.131 C 
ATOM     27  N   UNL     1       5.342  -5.605  26.355  0.00  0.00    -0.183 NA
ATOM     28  C   UNL     1       4.139  -4.799  26.043  0.00  0.00    +0.131 C 
ENDBRANCH  23  27
ENDBRANCH   1  23
TORSDOF 3
ENDMDL
MODEL 2
REMARK VINA RESULT:      -7.3      2.234      2.523
REMARK  Name = 
REMARK  5 active torsions:
REMARK  status: ('A' for Active; 'I' for Inactive)
REMARK    1  A    between atoms: C_1  and  N_2
REMARK    2  A    between atoms: N_2  and  C_3
REMARK    3  A    between atoms: N_2  and  S_4
REMARK    4  A    between atoms: S_4  and  C_7
REMARK    5  A    between atoms: C_15  and  C_16
REMARK                            x       y       z     vdW  Elec       q    Type
REMARK                         _______ _______ _______ _____ _____    ______ ____
ROOT
ATOM      1  C   UNL     1       5.667  -3.604  23.491  0.00  0.00    +0.106 A 
ATOM      2  C   UNL     1       5.888  -2.227  23.532  0.00  0.00    +0.039 A 
ATOM      3  C   UNL     1       7.073  -1.752  23.006  0.00  0.00    +0.010 A 
ATOM      4  C   UNL     1       8.008  -2.615  22.431  0.00  0.00    +0.042 A 
ATOM      5  N   UNL     1       9.112  -1.896  21.981  0.00  0.00    -0.281 N 
ATOM      6  H   UNL     1       9.931  -2.284  21.539  0.00  0.00    +0.155 HD
ATOM      7  C   UNL     1       8.981  -0.538  22.256  0.00  0.00    +0.249 C 
ATOM      8  O   UNL     1       9.814   0.327  22.062  0.00  0.00    -0.270 OA
ATOM      9  C   UNL     1       7.797  -3.978  22.360  0.00  0.00    +0.026 A 
ATOM     10  C   UNL     1       7.621  -0.398  22.893  0.00  0.00    +0.048 C 
ATOM     11  C   UNL     1       6.914   0.676  23.269  0.00  0.00    +0.039 C 
ATOM     12  C   UNL     1       6.603  -4.478  22.899  0.00  0.00    +0.030 A 
ENDROOT
BRANCH  11  13
ATOM     13  C   UNL     1       7.263   2.034  23.141  0.00  0.00    +0.040 A 
ATOM     14  N   UNL     1       8.355   2.575  23.773  0.00  0.00    -0.358 N 
ATOM     15  H   UNL     1       9.047   2.054  24.302  0.00  0.00    +0.166 HD
ATOM     16  C   UNL     1       8.396   3.921  23.526  0.00  0.00    +0.020 A 
ATOM     17  C   UNL     1       9.421   4.821  24.079  0.00  0.00    +0.053 C 
ATOM     18  C   UNL     1       9.267   6.265  23.586  0.00  0.00    +0.006 C 
ATOM     19  C   UNL     1       8.128   6.647  22.618  0.00  0.00    +0.005 C 
ATOM     20  C   UNL     1       7.111   5.595  22.157  0.00  0.00    +0.037 C 
ATOM     21  C   UNL     1       7.359   4.243  22.688  0.00  0.00    -0.026 A 
ATOM     22  C   UNL     1       6.628   3.056  22.463  0.00  0.00    +0.031 A 
ENDBRANCH  11  13
BRANCH   1  23
ATOM     23  S   UNL     1       4.118  -4.225  24.109  0.00  0.00    +0.060 S 
ATOM     24  O   UNL     1       3.475  -3.162  24.851  0.00  0.00    -0.153 OA
ATOM     25  O   UNL     1       3.445  -4.873  23.004  0.00  0.00    -0.153 OA
BRANCH  23  27
ATOM     26  C   UNL     1       4.042  -5.286  26.596  0.00  0.00    +0.131 C 
ATOM     27  N   UNL     1       4.599  -5.427  25.229  0.00  0.00    -0.183 NA
ATOM     28  C   UNL     1       4.386  -6.797  24.707  0.00  0.00    +0.131 C 
ENDBRANCH  23  27
ENDBRANCH   1  23
TORSDOF 3
ENDMDL
MODEL 3
REMARK VINA RESULT:      -7.2      1.427      1.662
REMARK  Name = 
REMARK  5 active torsions:
REMARK  status: ('A' for Active; 'I' for Inactive)
REMARK    1  A    between atoms: C_1  and  N_2
REMARK    2  A    between atoms: N_2  and  C_3
REMARK    3  A    between atoms: N_2  and  S_4
REMARK    4  A    between atoms: S_4  and  C_7
REMARK    5  A    between atoms: C_15  and  C_16
REMARK                            x       y       z     vdW  Elec       q    Type
REMARK                         _______ _______ _______ _____ _____    ______ ____
ROOT
ATOM      1  C   UNL     1       7.511  -3.868  26.132  0.00  0.00    +0.106 A 
ATOM      2  C   UNL     1       7.484  -2.507  25.822  0.00  0.00    +0.039 A 
ATOM      3  C   UNL     1       8.446  -2.028  24.954  0.00  0.00    +0.010 A 
ATOM      4  C   UNL     1       9.399  -2.876  24.389  0.00  0.00    +0.042 A 
ATOM      5  N   UNL     1      10.253  -2.155  23.560  0.00  0.00    -0.281 N 
ATOM      6  H   UNL     1      11.032  -2.530  23.042  0.00  0.00    +0.155 HD
ATOM      7  C   UNL     1       9.931  -0.801  23.553  0.00  0.00    +0.249 C 
ATOM      8  O   UNL     1      10.544   0.090  22.995  0.00  0.00    -0.270 OA
ATOM      9  C   UNL     1       9.429  -4.230  24.666  0.00  0.00    +0.026 A 
ATOM     10  C   UNL     1       8.709  -0.686  24.430  0.00  0.00    +0.048 C 
ATOM     11  C   UNL     1       7.901   0.345  24.710  0.00  0.00    +0.039 C 
ATOM     12  C   UNL     1       8.465  -4.731  25.552  0.00  0.00    +0.030 A 
ENDROOT
BRANCH  11  13
ATOM     13  C   UNL     1       7.969   1.662  24.215  0.00  0.00    +0.040 A 
ATOM     14  N   UNL     1       8.962   2.535  24.583  0.00  0.00    -0.358 N 
ATOM     15  H   UNL     1       9.767   2.304  25.156  0.00  0.00    +0.166 HD
ATOM     16  C   UNL     1       8.725   3.754  24.006  0.00  0.00    +0.020 A 
ATOM     17  C   UNL     1       9.577   4.936  24.214  0.00  0.00    +0.053 C 
ATOM     18  C   UNL     1       9.118   6.147  23.394  0.00  0.00    +0.006 C 
ATOM     19  C   UNL     1       7.881   6.052  22.477  0.00  0.00    +0.005 C 
ATOM     20  C   UNL     1       7.071   4.752  22.394  0.00  0.00    +0.037 C 
ATOM     21  C   UNL     1       7.606   3.654  23.218  0.00  0.00    -0.026 A 
ATOM     22  C   UNL     1       7.113   2.339  23.367  0.00  0.00    +0.031 A 
ENDBRANCH  11  13
BRANCH   1  23
ATOM     23  S   UNL     1       6.241  -4.512  27.198  0.00  0.00    +0.060 S 
ATOM     24  O   UNL     1       6.886  -5.223  28.281  0.00  0.00    -0.153 OA
ATOM     25  O   UNL     1       5.317  -3.431  27.465  0.00  0.00    -0.153 OA
BRANCH  23  27
ATOM     26  C   UNL     1       4.736  -6.744  26.936  0.00  0.00    +0.131 C 
ATOM     27  N   UNL     1       5.453  -5.667  26.211  0.00  0.00    -0.183 NA
ATOM     28  C   UNL     1       4.576  -5.034  25.198  0.00  0.00    +0.131 C 
ENDBRANCH  23  27
ENDBRANCH   1  23
TORSDOF 3
ENDMDL
MODEL 4
REMARK VINA RESULT:      -7.1      3.465      8.412
REMARK  Name = 
REMARK  5 active torsions:
REMARK  status: ('A' for Active; 'I' for Inactive)
REMARK    1  A    between atoms: C_1  and  N_2
REMARK    2  A    between atoms: N_2  and  C_3
REMARK    3  A    between atoms: N_2  and  S_4
REMARK    4  A    between atoms: S_4  and  C_7
REMARK    5  A    between atoms: C_15  and  C_16
REMARK                            x       y       z     vdW  Elec       q    Type
REMARK                         _______ _______ _______ _____ _____    ______ ____
ROOT
ATOM      1  C   UNL     1       8.557   3.818  23.346  0.00  0.00    +0.106 A 
ATOM      2  C   UNL     1       7.970   2.558  23.223  0.00  0.00    +0.039 A 
ATOM      3  C   UNL     1       8.789   1.453  23.356  0.00  0.00    +0.010 A 
ATOM      4  C   UNL     1      10.151   1.590  23.625  0.00  0.00    +0.042 A 
ATOM      5  N   UNL     1      10.753   0.337  23.707  0.00  0.00    -0.281 N 
ATOM      6  H   UNL     1      11.730   0.160  23.881  0.00  0.00    +0.155 HD
ATOM      7  C   UNL     1       9.836  -0.683  23.471  0.00  0.00    +0.249 C 
ATOM      8  O   UNL     1      10.077  -1.873  23.390  0.00  0.00    -0.270 OA
ATOM      9  C   UNL     1      10.746   2.828  23.773  0.00  0.00    +0.026 A 
ATOM     10  C   UNL     1       8.514   0.016  23.280  0.00  0.00    +0.048 C 
ATOM     11  C   UNL     1       7.267  -0.450  23.127  0.00  0.00    +0.039 C 
ATOM     12  C   UNL     1       9.931   3.960  23.632  0.00  0.00    +0.030 A 
ENDROOT
BRANCH  11  13
ATOM     13  C   UNL     1       6.835  -1.791  23.126  0.00  0.00    +0.040 A 
ATOM     14  N   UNL     1       7.385  -2.739  22.301  0.00  0.00    -0.358 N 
ATOM     15  H   UNL     1       8.189  -2.600  21.697  0.00  0.00    +0.166 HD
ATOM     16  C   UNL     1       6.716  -3.922  22.467  0.00  0.00    +0.020 A 
ATOM     17  C   UNL     1       7.023  -5.147  21.713  0.00  0.00    +0.053 C 
ATOM     18  C   UNL     1       6.164  -6.341  22.147  0.00  0.00    +0.006 C 
ATOM     19  C   UNL     1       5.109  -6.184  23.263  0.00  0.00    +0.005 C 
ATOM     20  C   UNL     1       4.881  -4.824  23.934  0.00  0.00    +0.037 C 
ATOM     21  C   UNL     1       5.765  -3.752  23.442  0.00  0.00    -0.026 A 
ATOM     22  C   UNL     1       5.823  -2.399  23.843  0.00  0.00    +0.031 A 
ENDBRANCH  11  13
BRANCH   1  23
ATOM     23  S   UNL     1       7.505   5.248  23.240  0.00  0.00    +0.060 S 
ATOM     24  O   UNL     1       8.015   6.247  24.155  0.00  0.00    -0.153 OA
ATOM     25  O   UNL     1       7.329   5.547  21.835  0.00  0.00    -0.153 OA
BRANCH  23  27
ATOM     26  C   UNL     1       5.636   5.215  25.195  0.00  0.00    +0.131 C 
ATOM     27  N   UNL     1       6.014   4.683  23.863  0.00  0.00    -0.183 NA
ATOM     28  C   UNL     1       4.905   4.841  22.894  0.00  0.00    +0.131 C 
ENDBRANCH  23  27
ENDBRANCH   1  23
TORSDOF 3
ENDMDL
MODEL 5
REMARK VINA RESULT:      -7.0      3.077      8.491
REMARK  Name = 
REMARK  5 active torsions:
REMARK  status: ('A' for Active; 'I' for Inactive)
REMARK    1  A    between atoms: C_1  and  N_2
REMARK    2  A    between atoms: N_2  and  C_3
REMARK    3  A    between atoms: N_2  and  S_4
REMARK    4  A    between atoms: S_4  and  C_7
REMARK    5  A    between atoms: C_15  and  C_16
REMARK                            x       y       z     vdW  Elec       q    Type
REMARK                         _______ _______ _______ _____ _____    ______ ____
ROOT
ATOM      1  C   UNL     1       8.803   1.716  23.429  0.00  0.00    +0.106 A 
ATOM      2  C   UNL     1       7.902   0.652  23.477  0.00  0.00    +0.039 A 
ATOM      3  C   UNL     1       8.420  -0.620  23.629  0.00  0.00    +0.010 A 
ATOM      4  C   UNL     1       9.793  -0.833  23.755  0.00  0.00    +0.042 A 
ATOM      5  N   UNL     1      10.057  -2.193  23.891  0.00  0.00    -0.281 N 
ATOM      6  H   UNL     1      10.969  -2.612  23.986  0.00  0.00    +0.155 HD
ATOM      7  C   UNL     1       8.889  -2.946  23.836  0.00  0.00    +0.249 C 
ATOM      8  O   UNL     1       8.805  -4.160  23.840  0.00  0.00    -0.270 OA
ATOM      9  C   UNL     1      10.699   0.210  23.733  0.00  0.00    +0.026 A 
ATOM     10  C   UNL     1       7.778  -1.934  23.709  0.00  0.00    +0.048 C 
ATOM     11  C   UNL     1       6.444  -2.061  23.719  0.00  0.00    +0.039 C 
ATOM     12  C   UNL     1      10.191   1.506  23.569  0.00  0.00    +0.030 A 
ENDROOT
BRANCH  11  13
ATOM     13  C   UNL     1       5.685  -3.237  23.880  0.00  0.00    +0.040 A 
ATOM     14  N   UNL     1       5.804  -4.044  24.983  0.00  0.00    -0.358 N 
ATOM     15  H   UNL     1       6.362  -3.837  25.806  0.00  0.00    +0.166 HD
ATOM     16  C   UNL     1       5.004  -5.143  24.824  0.00  0.00    +0.020 A 
ATOM     17  C   UNL     1       4.913  -6.235  25.807  0.00  0.00    +0.053 C 
ATOM     18  C   UNL     1       3.891  -7.306  25.408  0.00  0.00    +0.006 C 
ATOM     19  C   UNL     1       3.090  -7.177  24.095  0.00  0.00    +0.005 C 
ATOM     20  C   UNL     1       3.326  -5.990  23.153  0.00  0.00    +0.037 C 
ATOM     21  C   UNL     1       4.324  -5.021  23.639  0.00  0.00    -0.026 A 
ATOM     22  C   UNL     1       4.770  -3.829  23.029  0.00  0.00    +0.031 A 
ENDBRANCH  11  13
BRANCH   1  23
ATOM     23  S   UNL     1       8.149   3.365  23.295  0.00  0.00    +0.060 S 
ATOM     24  O   UNL     1       9.219   4.295  23.587  0.00  0.00    -0.153 OA
ATOM     25  O   UNL     1       7.422   3.437  22.047  0.00  0.00    -0.153 OA
BRANCH  23  27
ATOM     26  C   UNL     1       7.611   3.598  25.936  0.00  0.00    +0.131 C 
ATOM     27  N   UNL     1       7.024   3.444  24.583  0.00  0.00    -0.183 NA
ATOM     28  C   UNL     1       5.968   4.455  24.344  0.00  0.00    +0.131 C 
ENDBRANCH  23  27
ENDBRANCH   1  23
TORSDOF 3
ENDMDL
MODEL 6
REMARK VINA RESULT:      -6.9      2.807      3.711
REMARK  Name = 
REMARK  5 active torsions:
REMARK  status: ('A' for Active; 'I' for Inactive)
REMARK    1  A    between atoms: C_1  and  N_2
REMARK    2  A    between atoms: N_2  and  C_3
REMARK    3  A    between atoms: N_2  and  S_4
REMARK    4  A    between atoms: S_4  and  C_7
REMARK    5  A    between atoms: C_15  and  C_16
REMARK                            x       y       z     vdW  Elec       q    Type
REMARK                         _______ _______ _______ _____ _____    ______ ____
ROOT
ATOM      1  C   UNL     1       5.533  -2.969  23.985  0.00  0.00    +0.106 A 
ATOM      2  C   UNL     1       6.303  -1.828  23.756  0.00  0.00    +0.039 A 
ATOM      3  C   UNL     1       6.511  -0.971  24.818  0.00  0.00    +0.010 A 
ATOM      4  C   UNL     1       5.989  -1.245  26.083  0.00  0.00    +0.042 A 
ATOM      5  N   UNL     1       6.331  -0.232  26.974  0.00  0.00    -0.281 N 
ATOM      6  H   UNL     1       6.068  -0.185  27.946  0.00  0.00    +0.155 HD
ATOM      7  C   UNL     1       7.067   0.769  26.348  0.00  0.00    +0.249 C 
ATOM      8  O   UNL     1       7.435   1.818  26.841  0.00  0.00    -0.270 OA
ATOM      9  C   UNL     1       5.243  -2.381  26.335  0.00  0.00    +0.026 A 
ATOM     10  C   UNL     1       7.246   0.292  24.928  0.00  0.00    +0.048 C 
ATOM     11  C   UNL     1       7.950   0.782  23.899  0.00  0.00    +0.039 C 
ATOM     12  C   UNL     1       5.015  -3.257  25.264  0.00  0.00    +0.030 A 
ENDROOT
BRANCH  11  13
ATOM     13  C   UNL     1       8.773   1.925  23.877  0.00  0.00    +0.040 A 
ATOM     14  N   UNL     1       8.314   3.169  24.232  0.00  0.00    -0.358 N 
ATOM     15  H   UNL     1       7.397   3.370  24.618  0.00  0.00    +0.166 HD
ATOM     16  C   UNL     1       9.310   4.088  24.038  0.00  0.00    +0.020 A 
ATOM     17  C   UNL     1       9.150   5.530  24.287  0.00  0.00    +0.053 C 
ATOM     18  C   UNL     1      10.445   6.317  24.052  0.00  0.00    +0.006 C 
ATOM     19  C   UNL     1      11.731   5.595  23.598  0.00  0.00    +0.005 C 
ATOM     20  C   UNL     1      11.728   4.083  23.345  0.00  0.00    +0.037 C 
ATOM     21  C   UNL     1      10.433   3.429  23.608  0.00  0.00    -0.026 A 
ATOM     22  C   UNL     1      10.090   2.066  23.483  0.00  0.00    +0.031 A 
ENDBRANCH  11  13
BRANCH   1  23
ATOM     23  S   UNL     1       5.309  -4.115  22.642  0.00  0.00    +0.060 S 
ATOM     24  O   UNL     1       3.987  -4.690  22.762  0.00  0.00    -0.153 OA
ATOM     25  O   UNL     1       5.719  -3.439  21.430  0.00  0.00    -0.153 OA
BRANCH  23  27
ATOM     26  C   UNL     1       6.638  -6.357  21.918  0.00  0.00    +0.131 C 
ATOM     27  N   UNL     1       6.447  -5.346  22.987  0.00  0.00    -0.183 NA
ATOM     28  C   UNL     1       7.747  -4.798  23.438  0.00  0.00    +0.131 C 
ENDBRANCH  23  27
ENDBRANCH   1  23
TORSDOF 3
ENDMDL
MODEL 7
REMARK VINA RESULT:      -6.8      3.039      8.381
REMARK  Name = 
REMARK  5 active torsions:
REMARK  status: ('A' for Active; 'I' for Inactive)
REMARK    1  A    between atoms: C_1  and  N_2
REMARK    2  A    between atoms: N_2  and  C_3
REMARK    3  A    between atoms: N_2  and  S_4
REMARK    4  A    between atoms: S_4  and  C_7
REMARK    5  A    between atoms: C_15  and  C_16
REMARK                            x       y       z     vdW  Elec       q    Type
REMARK                         _______ _______ _______ _____ _____    ______ ____
ROOT
ATOM      1  C   UNL     1       9.015   2.041  23.220  0.00  0.00    +0.106 A 
ATOM      2  C   UNL     1       8.383   0.994  23.893  0.00  0.00    +0.039 A 
ATOM      3  C   UNL     1       8.463  -0.267  23.336  0.00  0.00    +0.010 A 
ATOM      4  C   UNL     1       9.169  -0.493  22.154  0.00  0.00    +0.042 A 
ATOM      5  N   UNL     1       9.095  -1.838  21.800  0.00  0.00    -0.281 N 
ATOM      6  H   UNL     1       9.510  -2.258  20.983  0.00  0.00    +0.155 HD
ATOM      7  C   UNL     1       8.322  -2.559  22.704  0.00  0.00    +0.249 C 
ATOM      8  O   UNL     1       8.005  -3.731  22.618  0.00  0.00    -0.270 OA
ATOM      9  C   UNL     1       9.820   0.525  21.485  0.00  0.00    +0.026 A 
ATOM     10  C   UNL     1       7.924  -1.561  23.762  0.00  0.00    +0.048 C 
ATOM     11  C   UNL     1       7.273  -1.698  24.925  0.00  0.00    +0.039 C 
ATOM     12  C   UNL     1       9.740   1.814  22.032  0.00  0.00    +0.030 A 
ENDROOT
BRANCH  11  13
ATOM     13  C   UNL     1       6.779  -2.881  25.509  0.00  0.00    +0.040 A 
ATOM     14  N   UNL     1       5.833  -3.664  24.897  0.00  0.00    -0.358 N 
ATOM     15  H   UNL     1       5.472  -3.526  23.958  0.00  0.00    +0.166 HD
ATOM     16  C   UNL     1       5.495  -4.695  25.732  0.00  0.00    +0.020 A 
ATOM     17  C   UNL     1       4.482  -5.711  25.405  0.00  0.00    +0.053 C 
ATOM     18  C   UNL     1       4.354  -6.788  26.489  0.00  0.00    +0.006 C 
ATOM     19  C   UNL     1       5.230  -6.733  27.758  0.00  0.00    +0.005 C 
ATOM     20  C   UNL     1       6.222  -5.583  27.970  0.00  0.00    +0.037 C 
ATOM     21  C   UNL     1       6.265  -4.611  26.864  0.00  0.00    -0.026 A 
ATOM     22  C   UNL     1       7.060  -3.451  26.736  0.00  0.00    +0.031 A 
ENDBRANCH  11  13
BRANCH   1  23
ATOM     23  S   UNL     1       8.974   3.660  23.957  0.00  0.00    +0.060 S 
ATOM     24  O   UNL     1       8.353   3.542  25.258  0.00  0.00    -0.153 OA
ATOM     25  O   UNL     1      10.296   4.229  23.812  0.00  0.00    -0.153 OA
BRANCH  23  27
ATOM     26  C   UNL     1       6.832   3.713  22.306  0.00  0.00    +0.131 C 
ATOM     27  N   UNL     1       7.899   4.523  22.942  0.00  0.00    -0.183 NA
ATOM     28  C   UNL     1       7.332   5.716  23.612  0.00  0.00    +0.131 C 
ENDBRANCH  23  27
ENDBRANCH   1  23
TORSDOF 3
ENDMDL
MODEL 8
REMARK VINA RESULT:      -6.7      3.745      8.061
REMARK  Name = 
REMARK  5 active torsions:
REMARK  status: ('A' for Active; 'I' for Inactive)
REMARK    1  A    between atoms: C_1  and  N_2
REMARK    2  A    between atoms: N_2  and  C_3
REMARK    3  A    between atoms: N_2  and  S_4
REMARK    4  A    between atoms: S_4  and  C_7
REMARK    5  A    between atoms: C_15  and  C_16
REMARK                            x       y       z     vdW  Elec       q    Type
REMARK                         _______ _______ _______ _____ _____    ______ ____
ROOT
ATOM      1  C   UNL     1       8.236   4.758  25.361  0.00  0.00    +0.106 A 
ATOM      2  C   UNL     1       7.891   3.440  25.062  0.00  0.00    +0.039 A 
ATOM      3  C   UNL     1       8.641   2.782  24.107  0.00  0.00    +0.010 A 
ATOM      4  C   UNL     1       9.720   3.404  23.478  0.00  0.00    +0.042 A 
ATOM      5  N   UNL     1      10.305   2.538  22.558  0.00  0.00    -0.281 N 
ATOM      6  H   UNL     1      11.093   2.749  21.966  0.00  0.00    +0.155 HD
ATOM      7  C   UNL     1       9.635   1.320  22.510  0.00  0.00    +0.249 C 
ATOM      8  O   UNL     1       9.856   0.397  21.747  0.00  0.00    -0.270 OA
ATOM      9  C   UNL     1      10.091   4.701  23.777  0.00  0.00    +0.026 A 
ATOM     10  C   UNL     1       8.554   1.427  23.556  0.00  0.00    +0.048 C 
ATOM     11  C   UNL     1       7.673   0.536  24.029  0.00  0.00    +0.039 C 
ATOM     12  C   UNL     1       9.334   5.386  24.737  0.00  0.00    +0.030 A 
ENDROOT
BRANCH  11  13
ATOM     13  C   UNL     1       7.529  -0.819  23.669  0.00  0.00    +0.040 A 
ATOM     14  N   UNL     1       6.579  -1.245  22.776  0.00  0.00    -0.358 N 
ATOM     15  H   UNL     1       5.966  -0.642  22.235  0.00  0.00    +0.166 HD
ATOM     16  C   UNL     1       6.628  -2.610  22.685  0.00  0.00    +0.020 A 
ATOM     17  C   UNL     1       5.723  -3.405  21.839  0.00  0.00    +0.053 C 
ATOM     18  C   UNL     1       6.045  -4.904  21.875  0.00  0.00    +0.006 C 
ATOM     19  C   UNL     1       7.208  -5.437  22.737  0.00  0.00    +0.005 C 
ATOM     20  C   UNL     1       8.043  -4.479  23.596  0.00  0.00    +0.037 C 
ATOM     21  C   UNL     1       7.649  -3.064  23.480  0.00  0.00    -0.026 A 
ATOM     22  C   UNL     1       8.205  -1.936  24.121  0.00  0.00    +0.031 A 
ENDBRANCH  11  13
BRANCH   1  23
ATOM     23  S   UNL     1       7.319   5.598  26.634  0.00  0.00    +0.060 S 
ATOM     24  O   UNL     1       8.252   5.999  27.665  0.00  0.00    -0.153 OA
ATOM     25  O   UNL     1       6.471   6.571  25.979  0.00  0.00    -0.153 OA
BRANCH  23  27
ATOM     26  C   UNL     1       6.757   3.815  28.588  0.00  0.00    +0.131 C 
ATOM     27  N   UNL     1       6.326   4.362  27.279  0.00  0.00    -0.183 NA
ATOM     28  C   UNL     1       4.897   4.750  27.310  0.00  0.00    +0.131 C 
ENDBRANCH  23  27
ENDBRANCH   1  23
TORSDOF 3
ENDMDL
MODEL 9
REMARK VINA RESULT:      -6.7      2.272      2.676
REMARK  Name = 
REMARK  5 active torsions:
REMARK  status: ('A' for Active; 'I' for Inactive)
REMARK    1  A    between atoms: C_1  and  N_2
REMARK    2  A    between atoms: N_2  and  C_3
REMARK    3  A    between atoms: N_2  and  S_4
REMARK    4  A    between atoms: S_4  and  C_7
REMARK    5  A    between atoms: C_15  and  C_16
REMARK                            x       y       z     vdW  Elec       q    Type
REMARK                         _______ _______ _______ _____ _____    ______ ____
ROOT
ATOM      1  C   UNL     1       6.162  -4.376  24.118  0.00  0.00    +0.106 A 
ATOM      2  C   UNL     1       6.235  -2.987  24.006  0.00  0.00    +0.039 A 
ATOM      3  C   UNL     1       7.490  -2.409  24.008  0.00  0.00    +0.010 A 
ATOM      4  C   UNL     1       8.645  -3.186  24.095  0.00  0.00    +0.042 A 
ATOM      5  N   UNL     1       9.774  -2.372  24.082  0.00  0.00    -0.281 N 
ATOM      6  H   UNL     1      10.730  -2.685  24.144  0.00  0.00    +0.155 HD
ATOM      7  C   UNL     1       9.429  -1.026  24.013  0.00  0.00    +0.249 C 
ATOM      8  O   UNL     1      10.188  -0.076  24.071  0.00  0.00    -0.270 OA
ATOM      9  C   UNL     1       8.594  -4.564  24.183  0.00  0.00    +0.026 A 
ATOM     10  C   UNL     1       7.924  -1.013  23.916  0.00  0.00    +0.048 C 
ATOM     11  C   UNL     1       7.047  -0.019  23.723  0.00  0.00    +0.039 C 
ATOM     12  C   UNL     1       7.328  -5.166  24.193  0.00  0.00    +0.030 A 
ENDROOT
BRANCH  11  13
ATOM     13  C   UNL     1       7.315   1.350  23.526  0.00  0.00    +0.040 A 
ATOM     14  N   UNL     1       8.138   2.065  24.359  0.00  0.00    -0.358 N 
ATOM     15  H   UNL     1       8.688   1.676  25.118  0.00  0.00    +0.166 HD
ATOM     16  C   UNL     1       8.145   3.376  23.967  0.00  0.00    +0.020 A 
ATOM     17  C   UNL     1       8.900   4.432  24.661  0.00  0.00    +0.053 C 
ATOM     18  C   UNL     1       8.784   5.795  23.968  0.00  0.00    +0.006 C 
ATOM     19  C   UNL     1       7.941   5.954  22.686  0.00  0.00    +0.005 C 
ATOM     20  C   UNL     1       7.179   4.759  22.100  0.00  0.00    +0.037 C 
ATOM     21  C   UNL     1       7.368   3.500  22.844  0.00  0.00    -0.026 A 
ATOM     22  C   UNL     1       6.823   2.225  22.577  0.00  0.00    +0.031 A 
ENDBRANCH  11  13
BRANCH   1  23
ATOM     23  S   UNL     1       4.556  -5.140  24.055  0.00  0.00    +0.060 S 
ATOM     24  O   UNL     1       3.899  -4.698  22.844  0.00  0.00    -0.153 OA
ATOM     25  O   UNL     1       4.742  -6.549  24.329  0.00  0.00    -0.153 OA
BRANCH  23  27
ATOM     26  C   UNL     1       2.410  -3.847  25.074  0.00  0.00    +0.131 C 
ATOM     27  N   UNL     1       3.736  -4.434  25.382  0.00  0.00    -0.183 NA
ATOM     28  C   UNL     1       3.655  -5.351  26.543  0.00  0.00    +0.131 C 
ENDBRANCH  23  27
ENDBRANCH   1  23
TORSDOF 3
ENDMDL
