MODEL 1
REMARK VINA RESULT:      -5.3      0.000      0.000
REMARK  Name = 
REMARK  5 active torsions:
REMARK  status: ('A' for Active; 'I' for Inactive)
REMARK    1  A    between atoms: C_2  and  N_3
REMARK    2  A    between atoms: C_2  and  C_4
REMARK    3  A    between atoms: C_2  and  C_12
REMARK    4  A    between atoms: C_4  and  C_5
REMARK    5  A    between atoms: N_14  and  O_15
REMARK                            x       y       z     vdW  Elec       q    Type
REMARK                         _______ _______ _______ _____ _____    ______ ____
ROOT
ATOM      1  C   UNL     1       9.253   1.434  22.197  0.00  0.00    +0.144 C 
ENDROOT
BRANCH   1   2
ATOM      2  C   UNL     1       7.888   2.126  22.078  0.00  0.00    +0.253 C 
ATOM      3  N   UNL     1       7.968   3.486  21.875  0.00  0.00    -0.196 N 
ATOM      4  H   UNL     1       8.774   3.974  22.264  0.00  0.00    +0.182 HD
ATOM      5  O   UNL     1       6.814   1.527  22.130  0.00  0.00    -0.272 OA
BRANCH   3   6
ATOM      6  O   UNL     1       6.735   4.180  21.888  0.00  0.00    -0.295 OA
ATOM      7  H   UNL     1       6.132   3.535  22.320  0.00  0.00    +0.241 HD
ENDBRANCH   3   6
ENDBRANCH   1   2
BRANCH   1   8
ATOM      8  N   UNL     1      10.296   2.349  21.671  0.00  0.00    -0.320 NA
ATOM      9  H   UNL     1       9.844   3.228  21.404  0.00  0.00    +0.119 HD
ATOM     10  H   UNL     1      10.918   2.599  22.445  0.00  0.00    +0.119 HD
ENDBRANCH   1   8
BRANCH   1  11
ATOM     11  C   UNL     1       9.202   0.101  21.427  0.00  0.00    +0.063 C 
BRANCH  11  12
ATOM     12  C   UNL     1       9.107  -1.133  22.296  0.00  0.00    -0.045 A 
ATOM     13  C   UNL     1       7.951  -1.928  22.260  0.00  0.00    +0.005 A 
ATOM     14  C   UNL     1       7.832  -3.050  23.084  0.00  0.00    +0.014 A 
ATOM     15  C   UNL     1       8.872  -3.385  23.949  0.00  0.00    +0.013 A 
ATOM     16  I   UNL     1       8.690  -5.042  25.191  0.00  0.00    -0.044 I 
ATOM     17  C   UNL     1      10.027  -2.607  23.994  0.00  0.00    +0.014 A 
ATOM     18  C   UNL     1      10.142  -1.483  23.173  0.00  0.00    +0.005 A 
ENDBRANCH  11  12
ENDBRANCH   1  11
TORSDOF 5
ENDMDL
MODEL 2
REMARK VINA RESULT:      -5.3      5.440      6.744
REMARK  Name = 
REMARK  5 active torsions:
REMARK  status: ('A' for Active; 'I' for Inactive)
REMARK    1  A    between atoms: C_2  and  N_3
REMARK    2  A    between atoms: C_2  and  C_4
REMARK    3  A    between atoms: C_2  and  C_12
REMARK    4  A    between atoms: C_4  and  C_5
REMARK    5  A    between atoms: N_14  and  O_15
REMARK                            x       y       z     vdW  Elec       q    Type
REMARK                         _______ _______ _______ _____ _____    ______ ____
ROOT
ATOM      1  C   UNL     1       5.868  -4.999  22.003  0.00  0.00    +0.144 C 
ENDROOT
BRANCH   1   2
ATOM      2  C   UNL     1       4.708  -5.680  22.742  0.00  0.00    +0.253 C 
ATOM      3  N   UNL     1       5.061  -6.851  23.374  0.00  0.00    -0.196 N 
ATOM      4  H   UNL     1       5.818  -7.398  22.966  0.00  0.00    +0.182 HD
ATOM      5  O   UNL     1       3.570  -5.216  22.796  0.00  0.00    -0.272 OA
BRANCH   3   6
ATOM      6  O   UNL     1       3.994  -7.575  23.960  0.00  0.00    -0.295 OA
ATOM      7  H   UNL     1       4.226  -8.505  23.746  0.00  0.00    +0.241 HD
ENDBRANCH   3   6
ENDBRANCH   1   2
BRANCH   1   8
ATOM      8  N   UNL     1       5.983  -5.595  20.648  0.00  0.00    -0.320 NA
ATOM      9  H   UNL     1       5.193  -6.233  20.514  0.00  0.00    +0.119 HD
ATOM     10  H   UNL     1       5.839  -4.851  19.960  0.00  0.00    +0.119 HD
ENDBRANCH   1   8
BRANCH   1  11
ATOM     11  C   UNL     1       7.155  -5.173  22.830  0.00  0.00    +0.063 C 
BRANCH  11  12
ATOM     12  C   UNL     1       7.893  -3.889  23.137  0.00  0.00    -0.045 A 
ATOM     13  C   UNL     1       8.755  -3.825  24.243  0.00  0.00    +0.005 A 
ATOM     14  C   UNL     1       9.415  -2.636  24.562  0.00  0.00    +0.014 A 
ATOM     15  C   UNL     1       9.218  -1.502  23.776  0.00  0.00    +0.013 A 
ATOM     16  I   UNL     1      10.183   0.273  24.261  0.00  0.00    -0.044 I 
ATOM     17  C   UNL     1       8.367  -1.552  22.673  0.00  0.00    +0.014 A 
ATOM     18  C   UNL     1       7.704  -2.741  22.358  0.00  0.00    +0.005 A 
ENDBRANCH  11  12
ENDBRANCH   1  11
TORSDOF 5
ENDMDL
MODEL 3
REMARK VINA RESULT:      -5.2      5.447      6.645
REMARK  Name = 
REMARK  5 active torsions:
REMARK  status: ('A' for Active; 'I' for Inactive)
REMARK    1  A    between atoms: C_2  and  N_3
REMARK    2  A    between atoms: C_2  and  C_4
REMARK    3  A    between atoms: C_2  and  C_12
REMARK    4  A    between atoms: C_4  and  C_5
REMARK    5  A    between atoms: N_14  and  O_15
REMARK                            x       y       z     vdW  Elec       q    Type
REMARK                         _______ _______ _______ _____ _____    ______ ____
ROOT
ATOM      1  C   UNL     1       7.955  -4.483  24.347  0.00  0.00    +0.144 C 
ENDROOT
BRANCH   1   2
ATOM      2  C   UNL     1       7.366  -5.203  25.567  0.00  0.00    +0.253 C 
ATOM      3  N   UNL     1       8.235  -5.299  26.632  0.00  0.00    -0.196 N 
ATOM      4  H   UNL     1       9.231  -5.345  26.424  0.00  0.00    +0.182 HD
ATOM      5  O   UNL     1       6.214  -5.634  25.612  0.00  0.00    -0.272 OA
BRANCH   3   6
ATOM      6  O   UNL     1       7.775  -6.066  27.728  0.00  0.00    -0.295 OA
ATOM      7  H   UNL     1       6.849  -5.755  27.833  0.00  0.00    +0.241 HD
ENDBRANCH   3   6
ENDBRANCH   1   2
BRANCH   1   8
ATOM      8  N   UNL     1       8.081  -5.458  23.235  0.00  0.00    -0.320 NA
ATOM      9  H   UNL     1       8.078  -6.400  23.636  0.00  0.00    +0.119 HD
ATOM     10  H   UNL     1       7.228  -5.410  22.672  0.00  0.00    +0.119 HD
ENDBRANCH   1   8
BRANCH   1  11
ATOM     11  C   UNL     1       9.309  -3.866  24.740  0.00  0.00    +0.063 C 
BRANCH  11  12
ATOM     12  C   UNL     1       9.458  -2.395  24.417  0.00  0.00    -0.045 A 
ATOM     13  C   UNL     1      10.097  -1.999  23.233  0.00  0.00    +0.005 A 
ATOM     14  C   UNL     1      10.275  -0.645  22.938  0.00  0.00    +0.014 A 
ATOM     15  C   UNL     1       9.813   0.322  23.828  0.00  0.00    +0.013 A 
ATOM     16  I   UNL     1      10.095   2.337  23.402  0.00  0.00    -0.044 I 
ATOM     17  C   UNL     1       9.174  -0.055  25.007  0.00  0.00    +0.014 A 
ATOM     18  C   UNL     1       9.000  -1.410  25.302  0.00  0.00    +0.005 A 
ENDBRANCH  11  12
ENDBRANCH   1  11
TORSDOF 5
ENDMDL
MODEL 4
REMARK VINA RESULT:      -5.2      5.179      6.479
REMARK  Name = 
REMARK  5 active torsions:
REMARK  status: ('A' for Active; 'I' for Inactive)
REMARK    1  A    between atoms: C_2  and  N_3
REMARK    2  A    between atoms: C_2  and  C_4
REMARK    3  A    between atoms: C_2  and  C_12
REMARK    4  A    between atoms: C_4  and  C_5
REMARK    5  A    between atoms: N_14  and  O_15
REMARK                            x       y       z     vdW  Elec       q    Type
REMARK                         _______ _______ _______ _____ _____    ______ ____
ROOT
ATOM      1  C   UNL     1       8.482  -4.993  24.330  0.00  0.00    +0.144 C 
ENDROOT
BRANCH   1   2
ATOM      2  C   UNL     1       7.646  -5.203  25.600  0.00  0.00    +0.253 C 
ATOM      3  N   UNL     1       8.361  -5.714  26.661  0.00  0.00    -0.196 N 
ATOM      4  H   UNL     1       9.155  -6.316  26.449  0.00  0.00    +0.182 HD
ATOM      5  O   UNL     1       6.452  -4.918  25.683  0.00  0.00    -0.272 OA
BRANCH   3   6
ATOM      6  O   UNL     1       7.601  -6.040  27.809  0.00  0.00    -0.295 OA
ATOM      7  H   UNL     1       8.296  -6.241  28.475  0.00  0.00    +0.241 HD
ENDBRANCH   3   6
ENDBRANCH   1   2
BRANCH   1   8
ATOM      8  N   UNL     1       9.848  -4.568  24.727  0.00  0.00    -0.320 NA
ATOM      9  H   UNL     1      10.074  -3.708  24.218  0.00  0.00    +0.119 HD
ATOM     10  H   UNL     1       9.821  -4.290  25.711  0.00  0.00    +0.119 HD
ENDBRANCH   1   8
BRANCH   1  11
ATOM     11  C   UNL     1       7.780  -3.952  23.440  0.00  0.00    +0.063 C 
BRANCH  11  12
ATOM     12  C   UNL     1       8.369  -2.560  23.502  0.00  0.00    -0.045 A 
ATOM     13  C   UNL     1       8.071  -1.722  24.587  0.00  0.00    +0.005 A 
ATOM     14  C   UNL     1       8.576  -0.421  24.642  0.00  0.00    +0.014 A 
ATOM     15  C   UNL     1       9.384   0.051  23.609  0.00  0.00    +0.013 A 
ATOM     16  I   UNL     1      10.119   1.993  23.676  0.00  0.00    -0.044 I 
ATOM     17  C   UNL     1       9.690  -0.770  22.526  0.00  0.00    +0.014 A 
ATOM     18  C   UNL     1       9.181  -2.070  22.471  0.00  0.00    +0.005 A 
ENDBRANCH  11  12
ENDBRANCH   1  11
TORSDOF 5
ENDMDL
MODEL 5
REMARK VINA RESULT:      -5.1      5.071      6.401
REMARK  Name = 
REMARK  5 active torsions:
REMARK  status: ('A' for Active; 'I' for Inactive)
REMARK    1  A    between atoms: C_2  and  N_3
REMARK    2  A    between atoms: C_2  and  C_4
REMARK    3  A    between atoms: C_2  and  C_12
REMARK    4  A    between atoms: C_4  and  C_5
REMARK    5  A    between atoms: N_14  and  O_15
REMARK                            x       y       z     vdW  Elec       q    Type
REMARK                         _______ _______ _______ _____ _____    ______ ____
ROOT
ATOM      1  C   UNL     1       8.699  -3.182  24.074  0.00  0.00    +0.144 C 
ENDROOT
BRANCH   1   2
ATOM      2  C   UNL     1       9.108  -4.388  24.930  0.00  0.00    +0.253 C 
ATOM      3  N   UNL     1       8.085  -4.900  25.697  0.00  0.00    -0.196 N 
ATOM      4  H   UNL     1       7.361  -4.255  26.009  0.00  0.00    +0.182 HD
ATOM      5  O   UNL     1      10.236  -4.879  24.919  0.00  0.00    -0.272 OA
BRANCH   3   6
ATOM      6  O   UNL     1       8.451  -5.931  26.595  0.00  0.00    -0.295 OA
ATOM      7  H   UNL     1       8.974  -6.535  26.023  0.00  0.00    +0.241 HD
ENDBRANCH   3   6
ENDBRANCH   1   2
BRANCH   1   8
ATOM      8  N   UNL     1       7.890  -3.666  22.927  0.00  0.00    -0.320 NA
ATOM      9  H   UNL     1       8.267  -4.571  22.632  0.00  0.00    +0.119 HD
ATOM     10  H   UNL     1       6.948  -3.873  23.268  0.00  0.00    +0.119 HD
ENDBRANCH   1   8
BRANCH   1  11
ATOM     11  C   UNL     1       9.970  -2.440  23.621  0.00  0.00    +0.063 C 
BRANCH  11  12
ATOM     12  C   UNL     1       9.873  -0.931  23.652  0.00  0.00    -0.045 A 
ATOM     13  C   UNL     1       9.599  -0.271  24.859  0.00  0.00    +0.005 A 
ATOM     14  C   UNL     1       9.469   1.119  24.897  0.00  0.00    +0.014 A 
ATOM     15  C   UNL     1       9.612   1.859  23.725  0.00  0.00    +0.013 A 
ATOM     16  I   UNL     1       9.398   3.926  23.774  0.00  0.00    -0.044 I 
ATOM     17  C   UNL     1       9.887   1.218  22.518  0.00  0.00    +0.014 A 
ATOM     18  C   UNL     1      10.013  -0.173  22.482  0.00  0.00    +0.005 A 
ENDBRANCH  11  12
ENDBRANCH   1  11
TORSDOF 5
ENDMDL
MODEL 6
REMARK VINA RESULT:      -5.1      2.497      3.047
REMARK  Name = 
REMARK  5 active torsions:
REMARK  status: ('A' for Active; 'I' for Inactive)
REMARK    1  A    between atoms: C_2  and  N_3
REMARK    2  A    between atoms: C_2  and  C_4
REMARK    3  A    between atoms: C_2  and  C_12
REMARK    4  A    between atoms: C_4  and  C_5
REMARK    5  A    between atoms: N_14  and  O_15
REMARK                            x       y       z     vdW  Elec       q    Type
REMARK                         _______ _______ _______ _____ _____    ______ ____
ROOT
ATOM      1  C   UNL     1       9.541  -0.022  24.356  0.00  0.00    +0.144 C 
ENDROOT
BRANCH   1   2
ATOM      2  C   UNL     1      10.120   1.163  23.570  0.00  0.00    +0.253 C 
ATOM      3  N   UNL     1       9.648   1.260  22.280  0.00  0.00    -0.196 N 
ATOM      4  H   UNL     1       9.381   0.396  21.809  0.00  0.00    +0.182 HD
ATOM      5  O   UNL     1      10.912   1.975  24.048  0.00  0.00    -0.272 OA
BRANCH   3   6
ATOM      6  O   UNL     1      10.252   2.261  21.482  0.00  0.00    -0.295 OA
ATOM      7  H   UNL     1       9.903   2.059  20.587  0.00  0.00    +0.241 HD
ENDBRANCH   3   6
ENDBRANCH   1   2
BRANCH   1   8
ATOM      8  N   UNL     1       9.854   0.166  25.795  0.00  0.00    -0.320 NA
ATOM      9  H   UNL     1       9.289   0.944  26.145  0.00  0.00    +0.119 HD
ATOM     10  H   UNL     1       9.513  -0.655  26.303  0.00  0.00    +0.119 HD
ENDBRANCH   1   8
BRANCH   1  11
ATOM     11  C   UNL     1      10.133  -1.327  23.794  0.00  0.00    +0.063 C 
BRANCH  11  12
ATOM     12  C   UNL     1       9.119  -2.410  23.497  0.00  0.00    -0.045 A 
ATOM     13  C   UNL     1       8.204  -2.244  22.447  0.00  0.00    +0.005 A 
ATOM     14  C   UNL     1       7.237  -3.217  22.184  0.00  0.00    +0.014 A 
ATOM     15  C   UNL     1       7.181  -4.366  22.971  0.00  0.00    +0.013 A 
ATOM     16  I   UNL     1       5.731  -5.806  22.595  0.00  0.00    -0.044 I 
ATOM     17  C   UNL     1       8.084  -4.547  24.016  0.00  0.00    +0.014 A 
ATOM     18  C   UNL     1       9.048  -3.570  24.280  0.00  0.00    +0.005 A 
ENDBRANCH  11  12
ENDBRANCH   1  11
TORSDOF 5
ENDMDL
MODEL 7
REMARK VINA RESULT:      -5.1      6.116      7.509
REMARK  Name = 
REMARK  5 active torsions:
REMARK  status: ('A' for Active; 'I' for Inactive)
REMARK    1  A    between atoms: C_2  and  N_3
REMARK    2  A    between atoms: C_2  and  C_4
REMARK    3  A    between atoms: C_2  and  C_12
REMARK    4  A    between atoms: C_4  and  C_5
REMARK    5  A    between atoms: N_14  and  O_15
REMARK                            x       y       z     vdW  Elec       q    Type
REMARK                         _______ _______ _______ _____ _____    ______ ____
ROOT
ATOM      1  C   UNL     1       6.445  -5.168  25.604  0.00  0.00    +0.144 C 
ENDROOT
BRANCH   1   2
ATOM      2  C   UNL     1       6.503  -5.935  26.932  0.00  0.00    +0.253 C 
ATOM      3  N   UNL     1       5.485  -6.850  27.093  0.00  0.00    -0.196 N 
ATOM      4  H   UNL     1       4.595  -6.649  26.640  0.00  0.00    +0.182 HD
ATOM      5  O   UNL     1       7.389  -5.776  27.771  0.00  0.00    -0.272 OA
BRANCH   3   6
ATOM      6  O   UNL     1       5.430  -7.485  28.356  0.00  0.00    -0.295 OA
ATOM      7  H   UNL     1       5.321  -6.727  28.971  0.00  0.00    +0.241 HD
ENDBRANCH   3   6
ENDBRANCH   1   2
BRANCH   1   8
ATOM      8  N   UNL     1       5.389  -5.772  24.753  0.00  0.00    -0.320 NA
ATOM      9  H   UNL     1       5.845  -6.344  24.037  0.00  0.00    +0.119 HD
ATOM     10  H   UNL     1       4.863  -6.438  25.324  0.00  0.00    +0.119 HD
ENDBRANCH   1   8
BRANCH   1  11
ATOM     11  C   UNL     1       7.832  -5.220  24.939  0.00  0.00    +0.063 C 
BRANCH  11  12
ATOM     12  C   UNL     1       8.222  -3.972  24.178  0.00  0.00    -0.045 A 
ATOM     13  C   UNL     1       9.462  -3.362  24.421  0.00  0.00    +0.005 A 
ATOM     14  C   UNL     1       9.820  -2.188  23.754  0.00  0.00    +0.014 A 
ATOM     15  C   UNL     1       8.940  -1.616  22.838  0.00  0.00    +0.013 A 
ATOM     16  I   UNL     1       9.461   0.141  21.860  0.00  0.00    -0.044 I 
ATOM     17  C   UNL     1       7.705  -2.212  22.584  0.00  0.00    +0.014 A 
ATOM     18  C   UNL     1       7.347  -3.384  23.256  0.00  0.00    +0.005 A 
ENDBRANCH  11  12
ENDBRANCH   1  11
TORSDOF 5
ENDMDL
MODEL 8
REMARK VINA RESULT:      -4.9      1.649      2.236
REMARK  Name = 
REMARK  5 active torsions:
REMARK  status: ('A' for Active; 'I' for Inactive)
REMARK    1  A    between atoms: C_2  and  N_3
REMARK    2  A    between atoms: C_2  and  C_4
REMARK    3  A    between atoms: C_2  and  C_12
REMARK    4  A    between atoms: C_4  and  C_5
REMARK    5  A    between atoms: N_14  and  O_15
REMARK                            x       y       z     vdW  Elec       q    Type
REMARK                         _______ _______ _______ _____ _____    ______ ____
ROOT
ATOM      1  C   UNL     1      10.166   3.036  23.360  0.00  0.00    +0.144 C 
ENDROOT
BRANCH   1   2
ATOM      2  C   UNL     1       8.790   3.715  23.290  0.00  0.00    +0.253 C 
ATOM      3  N   UNL     1       8.189   3.632  22.054  0.00  0.00    -0.196 N 
ATOM      4  H   UNL     1       8.797   3.588  21.236  0.00  0.00    +0.182 HD
ATOM      5  O   UNL     1       8.252   4.260  24.253  0.00  0.00    -0.272 OA
BRANCH   3   6
ATOM      6  O   UNL     1       6.980   4.353  21.913  0.00  0.00    -0.295 OA
ATOM      7  H   UNL     1       6.438   3.753  21.355  0.00  0.00    +0.241 HD
ENDBRANCH   3   6
ENDBRANCH   1   2
BRANCH   1   8
ATOM      8  N   UNL     1      11.213   4.062  23.127  0.00  0.00    -0.320 NA
ATOM      9  H   UNL     1      10.757   4.976  23.075  0.00  0.00    +0.119 HD
ATOM     10  H   UNL     1      11.802   4.109  23.962  0.00  0.00    +0.119 HD
ENDBRANCH   1   8
BRANCH   1  11
ATOM     11  C   UNL     1      10.213   1.903  22.318  0.00  0.00    +0.063 C 
BRANCH  11  12
ATOM     12  C   UNL     1       9.893   0.527  22.858  0.00  0.00    -0.045 A 
ATOM     13  C   UNL     1       9.774   0.328  24.242  0.00  0.00    +0.005 A 
ATOM     14  C   UNL     1       9.515  -0.944  24.759  0.00  0.00    +0.014 A 
ATOM     15  C   UNL     1       9.372  -2.026  23.893  0.00  0.00    +0.013 A 
ATOM     16  I   UNL     1       9.007  -3.923  24.659  0.00  0.00    -0.044 I 
ATOM     17  C   UNL     1       9.484  -1.844  22.516  0.00  0.00    +0.014 A 
ATOM     18  C   UNL     1       9.747  -0.571  22.001  0.00  0.00    +0.005 A 
ENDBRANCH  11  12
ENDBRANCH   1  11
TORSDOF 5
ENDMDL
MODEL 9
REMARK VINA RESULT:      -4.9      3.898      4.793
REMARK  Name = 
REMARK  5 active torsions:
REMARK  status: ('A' for Active; 'I' for Inactive)
REMARK    1  A    between atoms: C_2  and  N_3
REMARK    2  A    between atoms: C_2  and  C_4
REMARK    3  A    between atoms: C_2  and  C_12
REMARK    4  A    between atoms: C_4  and  C_5
REMARK    5  A    between atoms: N_14  and  O_15
REMARK                            x       y       z     vdW  Elec       q    Type
REMARK                         _______ _______ _______ _____ _____    ______ ____
ROOT
ATOM      1  C   UNL     1      10.899   4.505  23.242  0.00  0.00    +0.144 C 
ENDROOT
BRANCH   1   2
ATOM      2  C   UNL     1      12.112   5.445  23.238  0.00  0.00    +0.253 C 
ATOM      3  N   UNL     1      12.848   5.400  22.074  0.00  0.00    -0.196 N 
ATOM      4  H   UNL     1      12.861   4.521  21.559  0.00  0.00    +0.182 HD
ATOM      5  O   UNL     1      12.394   6.196  24.170  0.00  0.00    -0.272 OA
BRANCH   3   6
ATOM      6  O   UNL     1      14.045   6.155  22.079  0.00  0.00    -0.295 OA
ATOM      7  H   UNL     1      14.226   6.261  23.039  0.00  0.00    +0.241 HD
ENDBRANCH   3   6
ENDBRANCH   1   2
BRANCH   1   8
ATOM      8  N   UNL     1       9.931   4.984  24.261  0.00  0.00    -0.320 NA
ATOM      9  H   UNL     1      10.027   4.394  25.093  0.00  0.00    +0.119 HD
ATOM     10  H   UNL     1      10.225   5.916  24.565  0.00  0.00    +0.119 HD
ENDBRANCH   1   8
BRANCH   1  11
ATOM     11  C   UNL     1      11.383   3.071  23.524  0.00  0.00    +0.063 C 
BRANCH  11  12
ATOM     12  C   UNL     1      10.314   2.005  23.416  0.00  0.00    -0.045 A 
ATOM     13  C   UNL     1       9.829   1.380  24.575  0.00  0.00    +0.005 A 
ATOM     14  C   UNL     1       8.870   0.368  24.490  0.00  0.00    +0.014 A 
ATOM     15  C   UNL     1       8.388  -0.025  23.242  0.00  0.00    +0.013 A 
ATOM     16  I   UNL     1       6.977  -1.544  23.111  0.00  0.00    -0.044 I 
ATOM     17  C   UNL     1       8.858   0.588  22.082  0.00  0.00    +0.014 A 
ATOM     18  C   UNL     1       9.821   1.597  22.169  0.00  0.00    +0.005 A 
ENDBRANCH  11  12
ENDBRANCH   1  11
TORSDOF 5
ENDMDL
