MODEL 1
REMARK VINA RESULT:      -4.8      0.000      0.000
REMARK  Name = 
REMARK  33 active torsions:
REMARK  status: ('A' for Active; 'I' for Inactive)
REMARK    1  A    between atoms: C_1  and  O_2
REMARK    2  A    between atoms: O_2  and  C_3
REMARK    3  A    between atoms: C_3  and  C_5
REMARK    4  A    between atoms: C_3  and  C_12
REMARK    5  A    between atoms: C_5  and  C_6
REMARK    6  A    between atoms: C_7  and  N_8
REMARK    7  A    between atoms: N_8  and  C_9
REMARK    8  A    between atoms: C_12  and  C_14
REMARK    9  A    between atoms: C_12  and  C_15
REMARK   10  A    between atoms: C_15  and  C_17
REMARK   11  A    between atoms: C_17  and  C_18
REMARK   12  A    between atoms: C_18  and  C_19
REMARK   13  A    between atoms: C_19  and  C_21
REMARK   14  A    between atoms: C_19  and  C_22
REMARK   15  A    between atoms: C_22  and  O_24
REMARK   16  A    between atoms: C_22  and  C_26
REMARK   17  A    between atoms: O_24  and  C_25
REMARK   18  A    between atoms: C_26  and  C_28
REMARK   19  A    between atoms: C_26  and  C_29
REMARK   20  A    between atoms: C_37  and  C_38
REMARK   21  A    between atoms: C_40  and  O_82
REMARK   22  A    between atoms: C_51  and  C_53
REMARK   23  A    between atoms: C_54  and  O_80
REMARK   24  A    between atoms: C_57  and  O_59
REMARK   25  A    between atoms: O_59  and  C_60
REMARK   26  A    between atoms: C_63  and  C_65
REMARK   27  A    between atoms: C_66  and  O_78
REMARK   28  A    between atoms: C_69  and  O_71
REMARK   29  A    between atoms: O_71  and  C_72
REMARK   30  A    between atoms: C_75  and  C_77
REMARK   31  A    between atoms: O_78  and  C_79
REMARK   32  A    between atoms: O_80  and  C_81
REMARK   33  A    between atoms: O_82  and  C_83
REMARK                            x       y       z     vdW  Elec       q    Type
REMARK                         _______ _______ _______ _____ _____    ______ ____
ROOT
ATOM      1  C   UNL     1       7.418  -1.743  25.576  0.00  0.00    +0.189 C 
ATOM      2  C   UNL     1       6.491  -0.758  26.781  0.00  0.00    +0.049 C 
ATOM      3  C   UNL     1       5.564  -1.749  27.512  0.00  0.00    +0.015 C 
ATOM      4  C   UNL     1       7.071   0.383  27.900  0.00  0.00    -0.022 C 
ATOM      5  C   UNL     1       6.765   1.561  28.617  0.00  0.00    +0.000 C 
ATOM      6  C   UNL     1       5.600   2.685  28.804  0.00  0.00    +0.143 C 
ATOM      7  C   UNL     1       4.849   3.708  29.920  0.00  0.00    +0.068 C 
ATOM      8  C   UNL     1       3.207   4.045  29.729  0.00  0.00    +0.127 C 
ATOM      9  C   UNL     1       2.249   4.277  28.356  0.00  0.00    +0.037 C 
ATOM     10  C   UNL     1       2.149   5.735  27.831  0.00  0.00    +0.014 C 
ATOM     11  C   UNL     1       2.410   3.218  27.259  0.00  0.00    -0.023 C 
ATOM     12  C   UNL     1       2.545   3.399  25.917  0.00  0.00    +0.000 C 
ATOM     13  C   UNL     1       3.696   2.710  25.170  0.00  0.00    +0.143 C 
ATOM     14  C   UNL     1       3.802   2.700  23.624  0.00  0.00    +0.067 C 
ATOM     15  C   UNL     1       5.207   2.602  22.893  0.00  0.00    +0.127 C 
ATOM     16  C   UNL     1       6.531   3.461  23.152  0.00  0.00    +0.056 C 
ATOM     17  C   UNL     1       6.411   4.700  22.243  0.00  0.00    +0.014 C 
ATOM     18  C   UNL     1       6.798   3.883  24.620  0.00  0.00    +0.186 C 
ATOM     19  C   UNL     1       8.215   4.146  25.201  0.00  0.00    +0.076 C 
ATOM     20  C   UNL     1       8.547   5.579  25.503  0.00  0.00    -0.057 C 
ATOM     21  C   UNL     1       7.548   6.452  25.655  0.00  0.00    +0.091 C 
ATOM     22  C   UNL     1       6.226   6.259  25.183  0.00  0.00    +0.332 C 
ATOM     23  O   UNL     1       5.384   7.095  25.213  0.00  0.00    -0.246 OA
ATOM     24  C   UNL     1       9.955   6.103  25.611  0.00  0.00    +0.063 C 
ATOM     25  C   UNL     1      10.790   6.156  24.296  0.00  0.00    +0.126 C 
ATOM     26  C   UNL     1      11.688   4.898  24.051  0.00  0.00    +0.062 C 
ATOM     27  C   UNL     1      11.083   3.610  23.506  0.00  0.00    -0.070 C 
ATOM     28  C   UNL     1      10.088   3.761  22.369  0.00  0.00    +0.039 C 
ATOM     29  C   UNL     1      11.380   2.448  24.123  0.00  0.00    -0.001 C 
ATOM     30  C   UNL     1      10.476   1.340  24.150  0.00  0.00    +0.007 C 
ATOM     31  C   UNL     1      10.529   0.219  24.902  0.00  0.00    +0.091 C 
ATOM     32  C   UNL     1       9.165  -0.111  25.387  0.00  0.00    +0.332 C 
ATOM     33  O   UNL     1       8.447   0.802  25.690  0.00  0.00    -0.246 OA
ATOM     34  O   UNL     1       5.878   5.063  24.669  0.00  0.00    -0.458 OA
ATOM     35  O   UNL     1       8.836  -1.406  25.334  0.00  0.00    -0.457 OA
ENDROOT
BRANCH   6  36
ATOM     36  O   UNL     1       6.246   3.718  28.028  0.00  0.00    -0.376 OA
ATOM     37  C   UNL     1       6.572   4.738  28.895  0.00  0.00    +0.194 C 
ENDBRANCH   6  36
BRANCH  25  38
ATOM     38  O   UNL     1      10.034   6.464  23.117  0.00  0.00    -0.379 OA
ATOM     39  C   UNL     1       8.759   7.058  23.298  0.00  0.00    +0.194 C 
ENDBRANCH  25  38
BRANCH  15  40
ATOM     40  O   UNL     1       5.613   1.252  22.726  0.00  0.00    -0.379 OA
ATOM     41  C   UNL     1       6.998   1.152  22.595  0.00  0.00    +0.194 C 
ENDBRANCH  15  40
BRANCH  13  42
ATOM     42  O   UNL     1       4.130   1.553  25.864  0.00  0.00    -0.376 OA
ATOM     43  C   UNL     1       3.127   0.803  26.529  0.00  0.00    +0.194 C 
ENDBRANCH  13  42
BRANCH   8  44
ATOM     44  O   UNL     1       2.654   2.946  30.485  0.00  0.00    -0.379 OA
ATOM     45  C   UNL     1       1.286   2.679  30.243  0.00  0.00    +0.194 C 
ENDBRANCH   8  44
BRANCH   1  46
ATOM     46  C   UNL     1       6.808  -2.561  24.143  0.00  0.00    +0.056 C 
ATOM     47  C   UNL     1       7.635  -2.254  22.868  0.00  0.00    +0.014 C 
BRANCH  46  48
ATOM     48  C   UNL     1       6.275  -4.120  23.881  0.00  0.00    +0.127 C 
BRANCH  48  49
ATOM     49  O   UNL     1       6.379  -4.423  22.474  0.00  0.00    -0.379 OA
ATOM     50  C   UNL     1       5.585  -5.485  21.953  0.00  0.00    +0.194 C 
ENDBRANCH  48  49
BRANCH  48  51
ATOM     51  C   UNL     1       6.529  -5.344  24.840  0.00  0.00    +0.016 C 
ATOM     52  C   UNL     1       7.947  -5.541  25.302  0.00  0.00    +0.010 C 
BRANCH  51  53
ATOM     53  C   UNL     1       5.602  -5.392  26.062  0.00  0.00    +0.013 C 
BRANCH  53  54
ATOM     54  C   UNL     1       6.389  -5.820  27.288  0.00  0.00    +0.075 C 
BRANCH  54  55
ATOM     55  C   UNL     1       5.508  -6.415  28.356  0.00  0.00    +0.139 C 
ATOM     56  O   UNL     1       5.521  -7.623  28.595  0.00  0.00    -0.297 OA
BRANCH  55  57
ATOM     57  C   UNL     1       4.580  -5.468  29.101  0.00  0.00    +0.081 C 
ATOM     58  C   UNL     1       4.278  -6.051  30.485  0.00  0.00    +0.018 C 
BRANCH  57  59
ATOM     59  C   UNL     1       3.319  -5.171  28.254  0.00  0.00    +0.132 C 
BRANCH  59  61
ATOM     60  C   UNL     1       1.257  -4.132  29.051  0.00  0.00    +0.194 C 
ATOM     61  O   UNL     1       2.625  -3.993  28.697  0.00  0.00    -0.379 OA
ENDBRANCH  59  61
BRANCH  59  62
ATOM     62  C   UNL     1       2.398  -6.403  28.168  0.00  0.00    +0.060 C 
BRANCH  62  63
ATOM     63  C   UNL     1       2.149  -6.917  26.774  0.00  0.00    -0.009 C 
ATOM     64  C   UNL     1       1.864  -6.121  25.734  0.00  0.00    +0.073 C 
BRANCH  64  65
ATOM     65  N   UNL     1       1.780  -6.500  24.404  0.00  0.00    -0.284 N 
ATOM     66  C   UNL     1       1.690  -7.848  24.052  0.00  0.00    +0.332 C 
ATOM     67  O   UNL     1       1.543  -8.287  22.917  0.00  0.00    -0.279 OA
ATOM     68  C   UNL     1       1.664  -5.558  23.302  0.00  0.00    +0.137 C 
ENDBRANCH  64  65
ENDBRANCH  62  63
ENDBRANCH  59  62
ENDBRANCH  57  59
ENDBRANCH  55  57
ENDBRANCH  54  55
ENDBRANCH  53  54
ENDBRANCH  51  53
ENDBRANCH  48  51
ENDBRANCH  46  48
ENDBRANCH   1  46
TORSDOF 18
ENDMDL
MODEL 2
REMARK VINA RESULT:      -4.5      1.996      6.252
REMARK  Name = 
REMARK  33 active torsions:
REMARK  status: ('A' for Active; 'I' for Inactive)
REMARK    1  A    between atoms: C_1  and  O_2
REMARK    2  A    between atoms: O_2  and  C_3
REMARK    3  A    between atoms: C_3  and  C_5
REMARK    4  A    between atoms: C_3  and  C_12
REMARK    5  A    between atoms: C_5  and  C_6
REMARK    6  A    between atoms: C_7  and  N_8
REMARK    7  A    between atoms: N_8  and  C_9
REMARK    8  A    between atoms: C_12  and  C_14
REMARK    9  A    between atoms: C_12  and  C_15
REMARK   10  A    between atoms: C_15  and  C_17
REMARK   11  A    between atoms: C_17  and  C_18
REMARK   12  A    between atoms: C_18  and  C_19
REMARK   13  A    between atoms: C_19  and  C_21
REMARK   14  A    between atoms: C_19  and  C_22
REMARK   15  A    between atoms: C_22  and  O_24
REMARK   16  A    between atoms: C_22  and  C_26
REMARK   17  A    between atoms: O_24  and  C_25
REMARK   18  A    between atoms: C_26  and  C_28
REMARK   19  A    between atoms: C_26  and  C_29
REMARK   20  A    between atoms: C_37  and  C_38
REMARK   21  A    between atoms: C_40  and  O_82
REMARK   22  A    between atoms: C_51  and  C_53
REMARK   23  A    between atoms: C_54  and  O_80
REMARK   24  A    between atoms: C_57  and  O_59
REMARK   25  A    between atoms: O_59  and  C_60
REMARK   26  A    between atoms: C_63  and  C_65
REMARK   27  A    between atoms: C_66  and  O_78
REMARK   28  A    between atoms: C_69  and  O_71
REMARK   29  A    between atoms: O_71  and  C_72
REMARK   30  A    between atoms: C_75  and  C_77
REMARK   31  A    between atoms: O_78  and  C_79
REMARK   32  A    between atoms: O_80  and  C_81
REMARK   33  A    between atoms: O_82  and  C_83
REMARK                            x       y       z     vdW  Elec       q    Type
REMARK                         _______ _______ _______ _____ _____    ______ ____
ROOT
ATOM      1  C   UNL     1       7.566  -1.518  23.155  0.00  0.00    +0.189 C 
ATOM      2  C   UNL     1       7.219   0.248  22.957  0.00  0.00    +0.049 C 
ATOM      3  C   UNL     1       8.297   0.785  21.994  0.00  0.00    +0.015 C 
ATOM      4  C   UNL     1       5.741   1.015  22.611  0.00  0.00    -0.022 C 
ATOM      5  C   UNL     1       4.978   2.190  22.785  0.00  0.00    +0.000 C 
ATOM      6  C   UNL     1       5.008   3.644  23.520  0.00  0.00    +0.143 C 
ATOM      7  C   UNL     1       4.538   5.261  23.378  0.00  0.00    +0.068 C 
ATOM      8  C   UNL     1       5.525   6.451  24.055  0.00  0.00    +0.127 C 
ATOM      9  C   UNL     1       6.450   6.487  25.469  0.00  0.00    +0.037 C 
ATOM     10  C   UNL     1       5.726   6.996  26.747  0.00  0.00    +0.014 C 
ATOM     11  C   UNL     1       7.349   5.266  25.695  0.00  0.00    -0.023 C 
ATOM     12  C   UNL     1       7.533   4.545  26.835  0.00  0.00    +0.000 C 
ATOM     13  C   UNL     1       7.396   3.016  26.796  0.00  0.00    +0.143 C 
ATOM     14  C   UNL     1       7.784   2.112  27.993  0.00  0.00    +0.067 C 
ATOM     15  C   UNL     1       7.079   0.709  28.231  0.00  0.00    +0.127 C 
ATOM     16  C   UNL     1       5.518   0.365  28.254  0.00  0.00    +0.056 C 
ATOM     17  C   UNL     1       5.064   0.575  29.712  0.00  0.00    +0.014 C 
ATOM     18  C   UNL     1       4.623   1.178  27.281  0.00  0.00    +0.186 C 
ATOM     19  C   UNL     1       3.289   0.648  26.686  0.00  0.00    +0.076 C 
ATOM     20  C   UNL     1       2.036   1.291  27.206  0.00  0.00    -0.057 C 
ATOM     21  C   UNL     1       2.122   2.488  27.791  0.00  0.00    +0.091 C 
ATOM     22  C   UNL     1       3.312   3.045  28.320  0.00  0.00    +0.332 C 
ATOM     23  O   UNL     1       3.349   4.052  28.949  0.00  0.00    -0.246 OA
ATOM     24  C   UNL     1       0.677   0.644  27.138  0.00  0.00    +0.063 C 
ATOM     25  C   UNL     1       0.446  -0.606  28.040  0.00  0.00    +0.126 C 
ATOM     26  C   UNL     1       0.708  -1.974  27.328  0.00  0.00    +0.062 C 
ATOM     27  C   UNL     1       2.130  -2.488  27.139  0.00  0.00    -0.070 C 
ATOM     28  C   UNL     1       3.064  -2.341  28.328  0.00  0.00    +0.039 C 
ATOM     29  C   UNL     1       2.496  -2.937  25.921  0.00  0.00    -0.001 C 
ATOM     30  C   UNL     1       3.841  -2.851  25.443  0.00  0.00    +0.007 C 
ATOM     31  C   UNL     1       4.312  -3.039  24.191  0.00  0.00    +0.091 C 
ATOM     32  C   UNL     1       5.338  -2.009  23.893  0.00  0.00    +0.332 C 
ATOM     33  O   UNL     1       5.157  -0.904  24.325  0.00  0.00    -0.246 OA
ATOM     34  O   UNL     1       4.486   2.418  28.108  0.00  0.00    -0.458 OA
ATOM     35  O   UNL     1       6.426  -2.453  23.255  0.00  0.00    -0.457 OA
ENDROOT
BRANCH   6  36
ATOM     36  O   UNL     1       4.112   3.298  24.599  0.00  0.00    -0.376 OA
ATOM     37  C   UNL     1       2.829   3.352  24.100  0.00  0.00    +0.194 C 
ENDBRANCH   6  36
BRANCH  25  38
ATOM     38  O   UNL     1       1.122  -0.567  29.305  0.00  0.00    -0.379 OA
ATOM     39  C   UNL     1       0.446  -1.124  30.420  0.00  0.00    +0.194 C 
ENDBRANCH  25  38
BRANCH  15  40
ATOM     40  O   UNL     1       7.722  -0.325  27.503  0.00  0.00    -0.379 OA
ATOM     41  C   UNL     1       9.101  -0.312  27.714  0.00  0.00    +0.194 C 
ENDBRANCH  15  40
BRANCH  13  42
ATOM     42  O   UNL     1       7.640   2.518  25.492  0.00  0.00    -0.376 OA
ATOM     43  C   UNL     1       8.966   2.645  25.006  0.00  0.00    +0.194 C 
ENDBRANCH  13  42
BRANCH   8  44
ATOM     44  O   UNL     1       6.404   6.690  22.935  0.00  0.00    -0.379 OA
ATOM     45  C   UNL     1       5.760   7.106  21.746  0.00  0.00    +0.194 C 
ENDBRANCH   8  44
BRANCH   1  46
ATOM     46  C   UNL     1       8.948  -2.272  23.941  0.00  0.00    +0.056 C 
ATOM     47  C   UNL     1       9.812  -1.268  24.749  0.00  0.00    +0.014 C 
BRANCH  46  48
ATOM     48  C   UNL     1       9.115  -3.691  24.801  0.00  0.00    +0.127 C 
BRANCH  48  49
ATOM     49  O   UNL     1      10.499  -4.099  24.772  0.00  0.00    -0.379 OA
ATOM     50  C   UNL     1      10.870  -5.273  25.490  0.00  0.00    +0.194 C 
ENDBRANCH  48  49
BRANCH  48  51
ATOM     51  C   UNL     1       8.350  -4.047  26.132  0.00  0.00    +0.016 C 
ATOM     52  C   UNL     1       7.501  -2.953  26.721  0.00  0.00    +0.010 C 
BRANCH  51  53
ATOM     53  C   UNL     1       7.515  -5.332  26.057  0.00  0.00    +0.013 C 
BRANCH  53  54
ATOM     54  C   UNL     1       6.181  -5.120  26.749  0.00  0.00    +0.075 C 
BRANCH  54  55
ATOM     55  C   UNL     1       6.136  -5.753  28.116  0.00  0.00    +0.139 C 
ATOM     56  O   UNL     1       7.043  -6.487  28.510  0.00  0.00    -0.297 OA
BRANCH  55  57
ATOM     57  C   UNL     1       4.911  -5.474  28.973  0.00  0.00    +0.081 C 
ATOM     58  C   UNL     1       5.055  -6.216  30.305  0.00  0.00    +0.018 C 
BRANCH  57  59
ATOM     59  C   UNL     1       3.619  -5.822  28.196  0.00  0.00    +0.132 C 
BRANCH  59  61
ATOM     60  C   UNL     1       1.200  -5.653  28.492  0.00  0.00    +0.194 C 
ATOM     61  O   UNL     1       2.473  -5.931  29.057  0.00  0.00    -0.379 OA
ENDBRANCH  59  61
BRANCH  59  62
ATOM     62  C   UNL     1       3.814  -7.068  27.310  0.00  0.00    +0.060 C 
BRANCH  62  63
ATOM     63  C   UNL     1       3.373  -6.909  25.879  0.00  0.00    -0.009 C 
ATOM     64  C   UNL     1       2.200  -7.363  25.413  0.00  0.00    +0.073 C 
BRANCH  64  65
ATOM     65  N   UNL     1       1.658  -7.117  24.162  0.00  0.00    -0.284 N 
ATOM     66  C   UNL     1       1.315  -5.820  23.778  0.00  0.00    +0.332 C 
ATOM     67  O   UNL     1       0.896  -5.483  22.676  0.00  0.00    -0.279 OA
ATOM     68  C   UNL     1       1.514  -8.133  23.132  0.00  0.00    +0.137 C 
ENDBRANCH  64  65
ENDBRANCH  62  63
ENDBRANCH  59  62
ENDBRANCH  57  59
ENDBRANCH  55  57
ENDBRANCH  54  55
ENDBRANCH  53  54
ENDBRANCH  51  53
ENDBRANCH  48  51
ENDBRANCH  46  48
ENDBRANCH   1  46
TORSDOF 18
ENDMDL
MODEL 3
REMARK VINA RESULT:      -4.2      1.177      2.790
REMARK  Name = 
REMARK  33 active torsions:
REMARK  status: ('A' for Active; 'I' for Inactive)
REMARK    1  A    between atoms: C_1  and  O_2
REMARK    2  A    between atoms: O_2  and  C_3
REMARK    3  A    between atoms: C_3  and  C_5
REMARK    4  A    between atoms: C_3  and  C_12
REMARK    5  A    between atoms: C_5  and  C_6
REMARK    6  A    between atoms: C_7  and  N_8
REMARK    7  A    between atoms: N_8  and  C_9
REMARK    8  A    between atoms: C_12  and  C_14
REMARK    9  A    between atoms: C_12  and  C_15
REMARK   10  A    between atoms: C_15  and  C_17
REMARK   11  A    between atoms: C_17  and  C_18
REMARK   12  A    between atoms: C_18  and  C_19
REMARK   13  A    between atoms: C_19  and  C_21
REMARK   14  A    between atoms: C_19  and  C_22
REMARK   15  A    between atoms: C_22  and  O_24
REMARK   16  A    between atoms: C_22  and  C_26
REMARK   17  A    between atoms: O_24  and  C_25
REMARK   18  A    between atoms: C_26  and  C_28
REMARK   19  A    between atoms: C_26  and  C_29
REMARK   20  A    between atoms: C_37  and  C_38
REMARK   21  A    between atoms: C_40  and  O_82
REMARK   22  A    between atoms: C_51  and  C_53
REMARK   23  A    between atoms: C_54  and  O_80
REMARK   24  A    between atoms: C_57  and  O_59
REMARK   25  A    between atoms: O_59  and  C_60
REMARK   26  A    between atoms: C_63  and  C_65
REMARK   27  A    between atoms: C_66  and  O_78
REMARK   28  A    between atoms: C_69  and  O_71
REMARK   29  A    between atoms: O_71  and  C_72
REMARK   30  A    between atoms: C_75  and  C_77
REMARK   31  A    between atoms: O_78  and  C_79
REMARK   32  A    between atoms: O_80  and  C_81
REMARK   33  A    between atoms: O_82  and  C_83
REMARK                            x       y       z     vdW  Elec       q    Type
REMARK                         _______ _______ _______ _____ _____    ______ ____
ROOT
ATOM      1  C   UNL     1       7.614  -1.877  25.215  0.00  0.00    +0.189 C 
ATOM      2  C   UNL     1       6.696  -0.982  26.494  0.00  0.00    +0.049 C 
ATOM      3  C   UNL     1       5.794  -2.029  27.178  0.00  0.00    +0.015 C 
ATOM      4  C   UNL     1       7.281   0.096  27.672  0.00  0.00    -0.022 C 
ATOM      5  C   UNL     1       6.973   1.223  28.465  0.00  0.00    +0.000 C 
ATOM      6  C   UNL     1       5.798   2.317  28.742  0.00  0.00    +0.143 C 
ATOM      7  C   UNL     1       5.054   3.259  29.931  0.00  0.00    +0.068 C 
ATOM      8  C   UNL     1       3.405   3.584  29.790  0.00  0.00    +0.127 C 
ATOM      9  C   UNL     1       2.420   3.888  28.450  0.00  0.00    +0.037 C 
ATOM     10  C   UNL     1       2.292   5.375  28.018  0.00  0.00    +0.014 C 
ATOM     11  C   UNL     1       2.575   2.902  27.287  0.00  0.00    -0.023 C 
ATOM     12  C   UNL     1       2.683   3.166  25.956  0.00  0.00    +0.000 C 
ATOM     13  C   UNL     1       3.830   2.541  25.149  0.00  0.00    +0.143 C 
ATOM     14  C   UNL     1       3.909   2.628  23.604  0.00  0.00    +0.067 C 
ATOM     15  C   UNL     1       5.302   2.595  22.845  0.00  0.00    +0.127 C 
ATOM     16  C   UNL     1       6.619   3.453  23.133  0.00  0.00    +0.056 C 
ATOM     17  C   UNL     1       6.467   4.745  22.305  0.00  0.00    +0.014 C 
ATOM     18  C   UNL     1       6.907   3.788  24.620  0.00  0.00    +0.186 C 
ATOM     19  C   UNL     1       8.330   4.033  25.192  0.00  0.00    +0.076 C 
ATOM     20  C   UNL     1       8.650   5.449  25.577  0.00  0.00    -0.057 C 
ATOM     21  C   UNL     1       7.643   6.298  25.800  0.00  0.00    +0.091 C 
ATOM     22  C   UNL     1       6.316   6.116  25.339  0.00  0.00    +0.332 C 
ATOM     23  O   UNL     1       5.464   6.937  25.436  0.00  0.00    -0.246 OA
ATOM     24  C   UNL     1      10.053   5.985  25.694  0.00  0.00    +0.063 C 
ATOM     25  C   UNL     1      10.864   6.130  24.371  0.00  0.00    +0.126 C 
ATOM     26  C   UNL     1      11.773   4.901  24.033  0.00  0.00    +0.062 C 
ATOM     27  C   UNL     1      11.174   3.642  23.420  0.00  0.00    -0.070 C 
ATOM     28  C   UNL     1      10.157   3.849  22.311  0.00  0.00    +0.039 C 
ATOM     29  C   UNL     1      11.497   2.448  23.958  0.00  0.00    -0.001 C 
ATOM     30  C   UNL     1      10.608   1.328  23.931  0.00  0.00    +0.007 C 
ATOM     31  C   UNL     1      10.687   0.164  24.611  0.00  0.00    +0.091 C 
ATOM     32  C   UNL     1       9.336  -0.214  25.098  0.00  0.00    +0.332 C 
ATOM     33  O   UNL     1       8.613   0.669  25.469  0.00  0.00    -0.246 OA
ATOM     34  O   UNL     1       5.973   4.949  24.758  0.00  0.00    -0.458 OA
ATOM     35  O   UNL     1       9.023  -1.508  24.970  0.00  0.00    -0.457 OA
ENDROOT
BRANCH   6  36
ATOM     36  O   UNL     1       6.417   3.405  28.021  0.00  0.00    -0.376 OA
ATOM     37  C   UNL     1       6.864   4.313  28.955  0.00  0.00    +0.194 C 
ENDBRANCH   6  36
BRANCH  25  38
ATOM     38  O   UNL     1      10.084   6.500  23.226  0.00  0.00    -0.379 OA
ATOM     39  C   UNL     1       8.825   7.108  23.466  0.00  0.00    +0.194 C 
ENDBRANCH  25  38
BRANCH  15  40
ATOM     40  O   UNL     1       5.721   1.263  22.587  0.00  0.00    -0.379 OA
ATOM     41  C   UNL     1       7.074   1.214  22.253  0.00  0.00    +0.194 C 
ENDBRANCH  15  40
BRANCH  13  42
ATOM     42  O   UNL     1       4.290   1.349  25.763  0.00  0.00    -0.376 OA
ATOM     43  C   UNL     1       3.312   0.556  26.413  0.00  0.00    +0.194 C 
ENDBRANCH  13  42
BRANCH   8  44
ATOM     44  O   UNL     1       2.880   2.433  30.485  0.00  0.00    -0.379 OA
ATOM     45  C   UNL     1       1.742   1.840  29.889  0.00  0.00    +0.194 C 
ENDBRANCH   8  44
BRANCH   1  46
ATOM     46  C   UNL     1       6.989  -2.614  23.744  0.00  0.00    +0.056 C 
ATOM     47  C   UNL     1       7.644  -2.052  22.456  0.00  0.00    +0.014 C 
BRANCH  46  48
ATOM     48  C   UNL     1       6.649  -4.196  23.337  0.00  0.00    +0.127 C 
BRANCH  48  49
ATOM     49  O   UNL     1       7.392  -5.075  24.208  0.00  0.00    -0.379 OA
ATOM     50  C   UNL     1       6.970  -5.191  25.565  0.00  0.00    +0.194 C 
ENDBRANCH  48  49
BRANCH  48  51
ATOM     51  C   UNL     1       5.240  -4.741  22.894  0.00  0.00    +0.016 C 
ATOM     52  C   UNL     1       5.141  -6.228  22.680  0.00  0.00    +0.010 C 
BRANCH  51  53
ATOM     53  C   UNL     1       4.078  -4.296  23.792  0.00  0.00    +0.013 C 
BRANCH  53  54
ATOM     54  C   UNL     1       3.337  -5.512  24.317  0.00  0.00    +0.075 C 
BRANCH  54  55
ATOM     55  C   UNL     1       1.906  -5.558  23.848  0.00  0.00    +0.139 C 
ATOM     56  O   UNL     1       1.621  -5.441  22.656  0.00  0.00    -0.297 OA
BRANCH  55  57
ATOM     57  C   UNL     1       0.830  -5.721  24.910  0.00  0.00    +0.081 C 
ATOM     58  C   UNL     1       0.646  -4.388  25.643  0.00  0.00    +0.018 C 
BRANCH  57  59
ATOM     59  C   UNL     1       1.165  -6.911  25.841  0.00  0.00    +0.132 C 
BRANCH  59  61
ATOM     60  C   UNL     1       0.454  -9.218  26.206  0.00  0.00    +0.194 C 
ATOM     61  O   UNL     1       0.747  -8.171  25.293  0.00  0.00    -0.379 OA
ENDBRANCH  59  61
BRANCH  59  62
ATOM     62  C   UNL     1       0.626  -6.677  27.266  0.00  0.00    +0.060 C 
BRANCH  62  63
ATOM     63  C   UNL     1       1.671  -6.332  28.294  0.00  0.00    -0.009 C 
ATOM     64  C   UNL     1       2.967  -6.153  27.999  0.00  0.00    +0.073 C 
BRANCH  64  65
ATOM     65  N   UNL     1       3.951  -5.683  28.853  0.00  0.00    -0.284 N 
ATOM     66  C   UNL     1       3.864  -4.403  29.402  0.00  0.00    +0.332 C 
ATOM     67  O   UNL     1       4.638  -3.915  30.218  0.00  0.00    -0.279 OA
ATOM     68  C   UNL     1       5.059  -6.494  29.331  0.00  0.00    +0.137 C 
ENDBRANCH  64  65
ENDBRANCH  62  63
ENDBRANCH  59  62
ENDBRANCH  57  59
ENDBRANCH  55  57
ENDBRANCH  54  55
ENDBRANCH  53  54
ENDBRANCH  51  53
ENDBRANCH  48  51
ENDBRANCH  46  48
ENDBRANCH   1  46
TORSDOF 18
ENDMDL
MODEL 4
REMARK VINA RESULT:      -4.0      2.190      6.611
REMARK  Name = 
REMARK  33 active torsions:
REMARK  status: ('A' for Active; 'I' for Inactive)
REMARK    1  A    between atoms: C_1  and  O_2
REMARK    2  A    between atoms: O_2  and  C_3
REMARK    3  A    between atoms: C_3  and  C_5
REMARK    4  A    between atoms: C_3  and  C_12
REMARK    5  A    between atoms: C_5  and  C_6
REMARK    6  A    between atoms: C_7  and  N_8
REMARK    7  A    between atoms: N_8  and  C_9
REMARK    8  A    between atoms: C_12  and  C_14
REMARK    9  A    between atoms: C_12  and  C_15
REMARK   10  A    between atoms: C_15  and  C_17
REMARK   11  A    between atoms: C_17  and  C_18
REMARK   12  A    between atoms: C_18  and  C_19
REMARK   13  A    between atoms: C_19  and  C_21
REMARK   14  A    between atoms: C_19  and  C_22
REMARK   15  A    between atoms: C_22  and  O_24
REMARK   16  A    between atoms: C_22  and  C_26
REMARK   17  A    between atoms: O_24  and  C_25
REMARK   18  A    between atoms: C_26  and  C_28
REMARK   19  A    between atoms: C_26  and  C_29
REMARK   20  A    between atoms: C_37  and  C_38
REMARK   21  A    between atoms: C_40  and  O_82
REMARK   22  A    between atoms: C_51  and  C_53
REMARK   23  A    between atoms: C_54  and  O_80
REMARK   24  A    between atoms: C_57  and  O_59
REMARK   25  A    between atoms: O_59  and  C_60
REMARK   26  A    between atoms: C_63  and  C_65
REMARK   27  A    between atoms: C_66  and  O_78
REMARK   28  A    between atoms: C_69  and  O_71
REMARK   29  A    between atoms: O_71  and  C_72
REMARK   30  A    between atoms: C_75  and  C_77
REMARK   31  A    between atoms: O_78  and  C_79
REMARK   32  A    between atoms: O_80  and  C_81
REMARK   33  A    between atoms: O_82  and  C_83
REMARK                            x       y       z     vdW  Elec       q    Type
REMARK                         _______ _______ _______ _____ _____    ______ ____
ROOT
ATOM      1  C   UNL     1       7.733  -0.975  23.435  0.00  0.00    +0.189 C 
ATOM      2  C   UNL     1       7.214   0.756  23.318  0.00  0.00    +0.049 C 
ATOM      3  C   UNL     1       8.254   1.449  22.415  0.00  0.00    +0.015 C 
ATOM      4  C   UNL     1       5.674   1.389  22.970  0.00  0.00    -0.022 C 
ATOM      5  C   UNL     1       4.792   2.471  23.182  0.00  0.00    +0.000 C 
ATOM      6  C   UNL     1       4.657   3.879  23.991  0.00  0.00    +0.143 C 
ATOM      7  C   UNL     1       4.030   5.446  23.920  0.00  0.00    +0.068 C 
ATOM      8  C   UNL     1       4.875   6.690  24.685  0.00  0.00    +0.127 C 
ATOM      9  C   UNL     1       5.758   6.741  26.126  0.00  0.00    +0.037 C 
ATOM     10  C   UNL     1       4.957   7.106  27.406  0.00  0.00    +0.014 C 
ATOM     11  C   UNL     1       6.771   5.606  26.314  0.00  0.00    -0.023 C 
ATOM     12  C   UNL     1       7.000   4.846  27.420  0.00  0.00    +0.000 C 
ATOM     13  C   UNL     1       7.019   3.316  27.299  0.00  0.00    +0.143 C 
ATOM     14  C   UNL     1       7.468   2.391  28.458  0.00  0.00    +0.067 C 
ATOM     15  C   UNL     1       6.904   0.915  28.603  0.00  0.00    +0.127 C 
ATOM     16  C   UNL     1       5.385   0.416  28.563  0.00  0.00    +0.056 C 
ATOM     17  C   UNL     1       4.879   0.500  30.016  0.00  0.00    +0.014 C 
ATOM     18  C   UNL     1       4.436   1.186  27.608  0.00  0.00    +0.186 C 
ATOM     19  C   UNL     1       3.177   0.559  26.949  0.00  0.00    +0.076 C 
ATOM     20  C   UNL     1       1.853   1.044  27.464  0.00  0.00    -0.057 C 
ATOM     21  C   UNL     1       1.804   2.211  28.112  0.00  0.00    +0.091 C 
ATOM     22  C   UNL     1       2.919   2.854  28.704  0.00  0.00    +0.332 C 
ATOM     23  O   UNL     1       2.839   3.824  29.384  0.00  0.00    -0.246 OA
ATOM     24  C   UNL     1       0.569   0.269  27.324  0.00  0.00    +0.063 C 
ATOM     25  C   UNL     1       0.445  -1.044  28.154  0.00  0.00    +0.126 C 
ATOM     26  C   UNL     1       0.860  -2.339  27.379  0.00  0.00    +0.062 C 
ATOM     27  C   UNL     1       2.331  -2.697  27.206  0.00  0.00    -0.070 C 
ATOM     28  C   UNL     1       3.217  -2.522  28.427  0.00  0.00    +0.039 C 
ATOM     29  C   UNL     1       2.769  -3.040  25.977  0.00  0.00    -0.001 C 
ATOM     30  C   UNL     1       4.109  -2.795  25.543  0.00  0.00    +0.007 C 
ATOM     31  C   UNL     1       4.626  -2.867  24.297  0.00  0.00    +0.091 C 
ATOM     32  C   UNL     1       5.549  -1.725  24.082  0.00  0.00    +0.332 C 
ATOM     33  O   UNL     1       5.247  -0.668  24.565  0.00  0.00    -0.246 OA
ATOM     34  O   UNL     1       4.155   2.360  28.493  0.00  0.00    -0.458 OA
ATOM     35  O   UNL     1       6.691  -2.023  23.453  0.00  0.00    -0.457 OA
ENDROOT
BRANCH   6  36
ATOM     36  O   UNL     1       3.776   3.387  25.025  0.00  0.00    -0.376 OA
ATOM     37  C   UNL     1       2.535   3.208  24.455  0.00  0.00    +0.194 C 
ENDBRANCH   6  36
BRANCH  25  38
ATOM     38  O   UNL     1       1.083  -1.006  29.438  0.00  0.00    -0.379 OA
ATOM     39  C   UNL     1       0.613  -1.910  30.424  0.00  0.00    +0.194 C 
ENDBRANCH  25  38
BRANCH  15  40
ATOM     40  O   UNL     1       7.665  -0.010  27.841  0.00  0.00    -0.379 OA
ATOM     41  C   UNL     1       9.032   0.248  27.951  0.00  0.00    +0.194 C 
ENDBRANCH  15  40
BRANCH  13  42
ATOM     42  O   UNL     1       7.343   2.916  25.978  0.00  0.00    -0.376 OA
ATOM     43  C   UNL     1       8.412   3.607  25.354  0.00  0.00    +0.194 C 
ENDBRANCH  13  42
BRANCH   8  44
ATOM     44  O   UNL     1       5.751   7.076  23.604  0.00  0.00    -0.379 OA
ATOM     45  C   UNL     1       6.861   6.223  23.399  0.00  0.00    +0.194 C 
ENDBRANCH   8  44
BRANCH   1  46
ATOM     46  C   UNL     1       9.165  -1.628  24.221  0.00  0.00    +0.056 C 
ATOM     47  C   UNL     1       9.933  -0.575  25.062  0.00  0.00    +0.014 C 
BRANCH  46  48
ATOM     48  C   UNL     1       9.442  -3.049  25.051  0.00  0.00    +0.127 C 
BRANCH  48  49
ATOM     49  O   UNL     1       9.020  -2.882  26.421  0.00  0.00    -0.379 OA
ATOM     50  C   UNL     1       7.650  -3.110  26.736  0.00  0.00    +0.194 C 
ENDBRANCH  48  49
BRANCH  48  51
ATOM     51  C   UNL     1       9.239  -4.499  24.470  0.00  0.00    +0.016 C 
ATOM     52  C   UNL     1       9.625  -5.636  25.376  0.00  0.00    +0.010 C 
BRANCH  51  53
ATOM     53  C   UNL     1       7.834  -4.767  23.915  0.00  0.00    +0.013 C 
BRANCH  53  54
ATOM     54  C   UNL     1       7.048  -5.620  24.894  0.00  0.00    +0.075 C 
BRANCH  54  55
ATOM     55  C   UNL     1       5.716  -6.053  24.337  0.00  0.00    +0.139 C 
ATOM     56  O   UNL     1       5.578  -6.312  23.141  0.00  0.00    -0.297 OA
BRANCH  55  57
ATOM     57  C   UNL     1       4.546  -6.122  25.305  0.00  0.00    +0.081 C 
ATOM     58  C   UNL     1       5.058  -6.576  26.676  0.00  0.00    +0.018 C 
BRANCH  57  59
ATOM     59  C   UNL     1       3.419  -7.013  24.728  0.00  0.00    +0.132 C 
BRANCH  59  61
ATOM     60  C   UNL     1       1.911  -6.898  22.810  0.00  0.00    +0.194 C 
ATOM     61  O   UNL     1       2.471  -6.263  23.951  0.00  0.00    -0.379 OA
ENDBRANCH  59  61
BRANCH  59  62
ATOM     62  C   UNL     1       2.748  -7.854  25.831  0.00  0.00    +0.060 C 
BRANCH  62  63
ATOM     63  C   UNL     1       2.177  -7.063  26.978  0.00  0.00    -0.009 C 
ATOM     64  C   UNL     1       2.656  -7.125  28.229  0.00  0.00    +0.073 C 
BRANCH  64  65
ATOM     65  N   UNL     1       2.291  -6.318  29.293  0.00  0.00    -0.284 N 
ATOM     66  C   UNL     1       0.989  -5.826  29.399  0.00  0.00    +0.332 C 
ATOM     67  O   UNL     1       0.543  -5.164  30.330  0.00  0.00    -0.279 OA
ATOM     68  C   UNL     1       3.165  -6.018  30.416  0.00  0.00    +0.137 C 
ENDBRANCH  64  65
ENDBRANCH  62  63
ENDBRANCH  59  62
ENDBRANCH  57  59
ENDBRANCH  55  57
ENDBRANCH  54  55
ENDBRANCH  53  54
ENDBRANCH  51  53
ENDBRANCH  48  51
ENDBRANCH  46  48
ENDBRANCH   1  46
TORSDOF 18
ENDMDL
