MODEL 1
REMARK VINA RESULT:      -6.8      0.000      0.000
REMARK  Name = 
REMARK  14 active torsions:
REMARK  status: ('A' for Active; 'I' for Inactive)
REMARK    1  A    between atoms: N_10  and  C_11
REMARK    2  A    between atoms: C_14  and  C_16
REMARK    3  A    between atoms: C_16  and  O_17
REMARK    4  A    between atoms: O_17  and  P_18
REMARK    5  A    between atoms: P_18  and  O_19
REMARK    6  A    between atoms: P_18  and  O_21
REMARK    7  A    between atoms: O_21  and  P_22
REMARK    8  A    between atoms: P_22  and  O_23
REMARK    9  A    between atoms: P_22  and  O_25
REMARK   10  A    between atoms: O_25  and  P_26
REMARK   11  A    between atoms: P_26  and  O_27
REMARK   12  A    between atoms: P_26  and  O_28
REMARK   13  A    between atoms: C_30  and  O_32
REMARK   14  A    between atoms: C_33  and  O_35
REMARK                            x       y       z     vdW  Elec       q    Type
REMARK                         _______ _______ _______ _____ _____    ______ ____
ROOT
ATOM      1  C   UNL     1       7.325  -3.023  23.211  0.00  0.00    +0.253 C 
ATOM      2  C   UNL     1       7.913  -4.441  23.276  0.00  0.00    +0.195 C 
ATOM      3  C   UNL     1       8.495  -4.554  24.688  0.00  0.00    +0.178 C 
ATOM      4  C   UNL     1       7.994  -3.297  25.401  0.00  0.00    +0.178 C 
ATOM      5  O   UNL     1       6.920  -2.783  24.592  0.00  0.00    -0.346 OA
ENDROOT
BRANCH   1  13
ATOM      6  N   UNL     1      10.041   2.182  21.660  0.00  0.00    -0.341 N 
ATOM      7  H   UNL     1      10.931   1.711  21.787  0.00  0.00    +0.144 HD
ATOM      8  H   UNL     1       9.974   3.144  21.948  0.00  0.00    +0.144 HD
ATOM      9  C   UNL     1       8.964   1.426  22.115  0.00  0.00    +0.147 A 
ATOM     10  C   UNL     1       9.013   0.031  22.277  0.00  0.00    +0.147 A 
ATOM     11  N   UNL     1      10.018  -0.889  22.073  0.00  0.00    -0.231 NA
ATOM     12  C   UNL     1       9.487  -2.043  22.408  0.00  0.00    +0.203 A 
ATOM     13  N   UNL     1       8.168  -1.921  22.784  0.00  0.00    -0.286 N 
ATOM     14  C   UNL     1       7.865  -0.586  22.749  0.00  0.00    +0.167 A 
ATOM     15  N   UNL     1       6.717   0.014  23.096  0.00  0.00    -0.216 NA
ATOM     16  C   UNL     1       6.783   1.344  22.899  0.00  0.00    +0.225 A 
ATOM     17  N   UNL     1       7.825   2.072  22.445  0.00  0.00    -0.219 NA
ENDBRANCH   1  13
BRANCH   2  18
ATOM     18  O   UNL     1       6.846  -5.409  23.139  0.00  0.00    -0.385 OA
ATOM     19  H   UNL     1       7.241  -6.280  22.951  0.00  0.00    +0.210 HD
ENDBRANCH   2  18
BRANCH   3  20
ATOM     20  O   UNL     1       9.920  -4.568  24.654  0.00  0.00    -0.386 OA
ATOM     21  H   UNL     1      10.189  -4.221  23.784  0.00  0.00    +0.210 HD
ENDBRANCH   3  20
BRANCH   4  22
ATOM     22  C   UNL     1       7.543  -3.543  26.838  0.00  0.00    +0.206 C 
BRANCH  22  23
ATOM     23  O   UNL     1       6.213  -4.054  26.838  0.00  0.00    -0.284 OA
BRANCH  23  24
ATOM     24  P   UNL     1       5.933  -5.508  27.568  0.00  0.00    +0.483 P 
ATOM     25  O   UNL     1       7.293  -6.086  27.971  0.00  0.00    -0.227 OA
BRANCH  24  26
ATOM     26  O   UNL     1       5.902  -4.707  29.102  0.00  0.00    -0.302 OA
ATOM     27  H   UNL     1       6.086  -3.775  28.869  0.00  0.00    +0.222 HD
ENDBRANCH  24  26
BRANCH  24  28
ATOM     28  O   UNL     1       5.965  -6.308  26.035  0.00  0.00    -0.186 OA
BRANCH  28  29
ATOM     29  P   UNL     1       4.355  -6.432  25.415  0.00  0.00    +0.490 P 
ATOM     30  O   UNL     1       4.837  -7.346  24.291  0.00  0.00    -0.227 OA
BRANCH  29  31
ATOM     31  O   UNL     1       4.579  -4.916  24.865  0.00  0.00    -0.302 OA
ATOM     32  H   UNL     1       5.159  -4.421  25.490  0.00  0.00    +0.222 HD
ENDBRANCH  29  31
BRANCH  29  33
ATOM     33  O   UNL     1       2.745  -6.556  24.797  0.00  0.00    -0.211 OA
BRANCH  33  34
ATOM     34  P   UNL     1       1.803  -7.564  25.839  0.00  0.00    +0.312 P 
ATOM     35  S   UNL     1       0.769  -8.669  26.984  0.00  0.00    +0.023 S 
BRANCH  34  36
ATOM     36  O   UNL     1       3.051  -7.395  26.893  0.00  0.00    -0.327 OA
ATOM     37  H   UNL     1       3.891  -7.730  26.533  0.00  0.00    +0.219 HD
ENDBRANCH  34  36
BRANCH  34  38
ATOM     38  O   UNL     1       2.500  -8.805  25.020  0.00  0.00    -0.327 OA
ATOM     39  H   UNL     1       3.242  -9.161  25.543  0.00  0.00    +0.219 HD
ENDBRANCH  34  38
ENDBRANCH  33  34
ENDBRANCH  29  33
ENDBRANCH  28  29
ENDBRANCH  24  28
ENDBRANCH  23  24
ENDBRANCH  22  23
ENDBRANCH   4  22
TORSDOF 14
ENDMDL
MODEL 2
REMARK VINA RESULT:      -6.7      5.565      8.044
REMARK  Name = 
REMARK  14 active torsions:
REMARK  status: ('A' for Active; 'I' for Inactive)
REMARK    1  A    between atoms: N_10  and  C_11
REMARK    2  A    between atoms: C_14  and  C_16
REMARK    3  A    between atoms: C_16  and  O_17
REMARK    4  A    between atoms: O_17  and  P_18
REMARK    5  A    between atoms: P_18  and  O_19
REMARK    6  A    between atoms: P_18  and  O_21
REMARK    7  A    between atoms: O_21  and  P_22
REMARK    8  A    between atoms: P_22  and  O_23
REMARK    9  A    between atoms: P_22  and  O_25
REMARK   10  A    between atoms: O_25  and  P_26
REMARK   11  A    between atoms: P_26  and  O_27
REMARK   12  A    between atoms: P_26  and  O_28
REMARK   13  A    between atoms: C_30  and  O_32
REMARK   14  A    between atoms: C_33  and  O_35
REMARK                            x       y       z     vdW  Elec       q    Type
REMARK                         _______ _______ _______ _____ _____    ______ ____
ROOT
ATOM      1  C   UNL     1       7.996  -4.006  24.073  0.00  0.00    +0.253 C 
ATOM      2  C   UNL     1       7.917  -3.240  22.744  0.00  0.00    +0.195 C 
ATOM      3  C   UNL     1       7.256  -1.907  23.104  0.00  0.00    +0.178 C 
ATOM      4  C   UNL     1       7.223  -1.907  24.634  0.00  0.00    +0.178 C 
ATOM      5  O   UNL     1       8.142  -2.934  25.051  0.00  0.00    -0.346 OA
ENDROOT
BRANCH   1  13
ATOM      6  N   UNL     1       3.759  -7.464  26.714  0.00  0.00    -0.341 N 
ATOM      7  H   UNL     1       3.142  -7.228  25.943  0.00  0.00    +0.144 HD
ATOM      8  H   UNL     1       3.356  -7.534  27.633  0.00  0.00    +0.144 HD
ATOM      9  C   UNL     1       4.929  -6.707  26.714  0.00  0.00    +0.147 A 
ATOM     10  C   UNL     1       5.431  -6.063  25.572  0.00  0.00    +0.147 A 
ATOM     11  N   UNL     1       4.970  -5.983  24.276  0.00  0.00    -0.231 NA
ATOM     12  C   UNL     1       5.849  -5.228  23.655  0.00  0.00    +0.203 A 
ATOM     13  N   UNL     1       6.883  -4.846  24.479  0.00  0.00    -0.286 N 
ATOM     14  C   UNL     1       6.603  -5.336  25.726  0.00  0.00    +0.167 A 
ATOM     15  N   UNL     1       7.293  -5.161  26.863  0.00  0.00    -0.216 NA
ATOM     16  C   UNL     1       6.723  -5.822  27.887  0.00  0.00    +0.225 A 
ATOM     17  N   UNL     1       5.595  -6.564  27.880  0.00  0.00    -0.219 NA
ENDBRANCH   1  13
BRANCH   2  18
ATOM     18  O   UNL     1       9.256  -2.975  22.264  0.00  0.00    -0.385 OA
ATOM     19  H   UNL     1       9.192  -2.549  21.389  0.00  0.00    +0.210 HD
ENDBRANCH   2  18
BRANCH   3  20
ATOM     20  O   UNL     1       5.932  -1.835  22.582  0.00  0.00    -0.386 OA
ATOM     21  H   UNL     1       5.974  -2.124  21.652  0.00  0.00    +0.210 HD
ENDBRANCH   3  20
BRANCH   4  22
ATOM     22  C   UNL     1       7.569  -0.558  25.258  0.00  0.00    +0.206 C 
BRANCH  22  23
ATOM     23  O   UNL     1       8.302   0.225  24.319  0.00  0.00    -0.284 OA
BRANCH  23  24
ATOM     24  P   UNL     1       9.951   0.174  24.376  0.00  0.00    +0.483 P 
ATOM     25  O   UNL     1      10.450   1.618  24.468  0.00  0.00    -0.227 OA
BRANCH  24  26
ATOM     26  O   UNL     1       9.868   0.169  26.105  0.00  0.00    -0.302 OA
ATOM     27  H   UNL     1       8.987  -0.217  26.284  0.00  0.00    +0.222 HD
ENDBRANCH  24  26
BRANCH  24  28
ATOM     28  O   UNL     1      10.033   0.179  22.649  0.00  0.00    -0.186 OA
BRANCH  28  29
ATOM     29  P   UNL     1       8.958   1.381  22.024  0.00  0.00    +0.490 P 
ATOM     30  O   UNL     1       8.733   0.552  20.761  0.00  0.00    -0.227 OA
BRANCH  29  31
ATOM     31  O   UNL     1      10.300   2.256  21.731  0.00  0.00    -0.302 OA
ATOM     32  H   UNL     1      10.392   2.958  22.416  0.00  0.00    +0.222 HD
ENDBRANCH  29  31
BRANCH  29  33
ATOM     33  O   UNL     1       7.883   2.584  21.400  0.00  0.00    -0.211 OA
BRANCH  33  34
ATOM     34  P   UNL     1       6.602   2.853  22.530  0.00  0.00    +0.312 P 
ATOM     35  S   UNL     1       5.196   3.149  23.770  0.00  0.00    +0.023 S 
BRANCH  34  36
ATOM     36  O   UNL     1       7.786   2.799  23.667  0.00  0.00    -0.327 OA
ATOM     37  H   UNL     1       7.717   2.015  24.239  0.00  0.00    +0.219 HD
ENDBRANCH  34  36
BRANCH  34  38
ATOM     38  O   UNL     1       6.412   1.223  22.472  0.00  0.00    -0.327 OA
ATOM     39  H   UNL     1       7.013   0.851  21.801  0.00  0.00    +0.219 HD
ENDBRANCH  34  38
ENDBRANCH  33  34
ENDBRANCH  29  33
ENDBRANCH  28  29
ENDBRANCH  24  28
ENDBRANCH  23  24
ENDBRANCH  22  23
ENDBRANCH   4  22
TORSDOF 14
ENDMDL
MODEL 3
REMARK VINA RESULT:      -6.7      2.661      4.013
REMARK  Name = 
REMARK  14 active torsions:
REMARK  status: ('A' for Active; 'I' for Inactive)
REMARK    1  A    between atoms: N_10  and  C_11
REMARK    2  A    between atoms: C_14  and  C_16
REMARK    3  A    between atoms: C_16  and  O_17
REMARK    4  A    between atoms: O_17  and  P_18
REMARK    5  A    between atoms: P_18  and  O_19
REMARK    6  A    between atoms: P_18  and  O_21
REMARK    7  A    between atoms: O_21  and  P_22
REMARK    8  A    between atoms: P_22  and  O_23
REMARK    9  A    between atoms: P_22  and  O_25
REMARK   10  A    between atoms: O_25  and  P_26
REMARK   11  A    between atoms: P_26  and  O_27
REMARK   12  A    between atoms: P_26  and  O_28
REMARK   13  A    between atoms: C_30  and  O_32
REMARK   14  A    between atoms: C_33  and  O_35
REMARK                            x       y       z     vdW  Elec       q    Type
REMARK                         _______ _______ _______ _____ _____    ______ ____
ROOT
ATOM      1  C   UNL     1       8.248  -0.261  22.536  0.00  0.00    +0.253 C 
ATOM      2  C   UNL     1       9.722  -0.677  22.653  0.00  0.00    +0.195 C 
ATOM      3  C   UNL     1       9.884  -1.124  24.109  0.00  0.00    +0.178 C 
ATOM      4  C   UNL     1       8.453  -1.160  24.651  0.00  0.00    +0.178 C 
ATOM      5  O   UNL     1       7.591  -1.141  23.497  0.00  0.00    -0.346 OA
ENDROOT
BRANCH   1  13
ATOM      6  N   UNL     1       7.665   5.637  23.861  0.00  0.00    -0.341 N 
ATOM      7  H   UNL     1       6.743   5.601  23.439  0.00  0.00    +0.144 HD
ATOM      8  H   UNL     1       8.215   6.467  23.716  0.00  0.00    +0.144 HD
ATOM      9  C   UNL     1       8.402   4.476  23.638  0.00  0.00    +0.147 A 
ATOM     10  C   UNL     1       7.818   3.242  23.310  0.00  0.00    +0.147 A 
ATOM     11  N   UNL     1       6.508   2.859  23.120  0.00  0.00    -0.231 NA
ATOM     12  C   UNL     1       6.574   1.583  22.815  0.00  0.00    +0.203 A 
ATOM     13  N   UNL     1       7.866   1.108  22.837  0.00  0.00    -0.286 N 
ATOM     14  C   UNL     1       8.680   2.174  23.107  0.00  0.00    +0.167 A 
ATOM     15  N   UNL     1      10.019   2.205  23.164  0.00  0.00    -0.216 NA
ATOM     16  C   UNL     1      10.467   3.432  23.486  0.00  0.00    +0.225 A 
ATOM     17  N   UNL     1       9.748   4.552  23.713  0.00  0.00    -0.219 NA
ENDBRANCH   1  13
BRANCH   2  18
ATOM     18  O   UNL     1       9.969  -1.813  21.792  0.00  0.00    -0.385 OA
ATOM     19  H   UNL     1      10.370  -1.492  20.964  0.00  0.00    +0.210 HD
ENDBRANCH   2  18
BRANCH   3  20
ATOM     20  O   UNL     1      10.667  -0.191  24.847  0.00  0.00    -0.386 OA
ATOM     21  H   UNL     1      10.063   0.506  25.163  0.00  0.00    +0.210 HD
ENDBRANCH   3  20
BRANCH   4  22
ATOM     22  C   UNL     1       8.164  -2.361  25.546  0.00  0.00    +0.206 C 
BRANCH  22  23
ATOM     23  O   UNL     1       7.846  -3.491  24.737  0.00  0.00    -0.284 OA
BRANCH  23  24
ATOM     24  P   UNL     1       8.620  -4.917  25.047  0.00  0.00    +0.483 P 
ATOM     25  O   UNL     1      10.120  -4.670  24.870  0.00  0.00    -0.227 OA
BRANCH  24  26
ATOM     26  O   UNL     1       8.808  -4.430  26.697  0.00  0.00    -0.302 OA
ATOM     27  H   UNL     1       8.369  -5.150  27.193  0.00  0.00    +0.222 HD
ENDBRANCH  24  26
BRANCH  24  28
ATOM     28  O   UNL     1       8.431  -5.402  23.397  0.00  0.00    -0.186 OA
BRANCH  28  29
ATOM     29  P   UNL     1       6.851  -4.963  22.844  0.00  0.00    +0.490 P 
ATOM     30  O   UNL     1       6.850  -6.132  21.861  0.00  0.00    -0.227 OA
BRANCH  29  31
ATOM     31  O   UNL     1       7.595  -3.744  22.063  0.00  0.00    -0.302 OA
ATOM     32  H   UNL     1       8.536  -3.693  22.350  0.00  0.00    +0.222 HD
ENDBRANCH  29  31
BRANCH  29  33
ATOM     33  O   UNL     1       5.272  -4.525  22.292  0.00  0.00    -0.211 OA
BRANCH  33  34
ATOM     34  P   UNL     1       4.258  -4.192  23.653  0.00  0.00    +0.312 P 
ATOM     35  S   UNL     1       3.145  -3.827  25.146  0.00  0.00    +0.023 S 
BRANCH  34  36
ATOM     36  O   UNL     1       5.174  -2.840  23.824  0.00  0.00    -0.327 OA
ATOM     37  H   UNL     1       5.493  -2.496  22.971  0.00  0.00    +0.219 HD
ENDBRANCH  34  36
BRANCH  34  38
ATOM     38  O   UNL     1       5.304  -5.154  24.476  0.00  0.00    -0.327 OA
ATOM     39  H   UNL     1       5.968  -5.513  23.859  0.00  0.00    +0.219 HD
ENDBRANCH  34  38
ENDBRANCH  33  34
ENDBRANCH  29  33
ENDBRANCH  28  29
ENDBRANCH  24  28
ENDBRANCH  23  24
ENDBRANCH  22  23
ENDBRANCH   4  22
TORSDOF 14
ENDMDL
MODEL 4
REMARK VINA RESULT:      -6.7      5.276      8.108
REMARK  Name = 
REMARK  14 active torsions:
REMARK  status: ('A' for Active; 'I' for Inactive)
REMARK    1  A    between atoms: N_10  and  C_11
REMARK    2  A    between atoms: C_14  and  C_16
REMARK    3  A    between atoms: C_16  and  O_17
REMARK    4  A    between atoms: O_17  and  P_18
REMARK    5  A    between atoms: P_18  and  O_19
REMARK    6  A    between atoms: P_18  and  O_21
REMARK    7  A    between atoms: O_21  and  P_22
REMARK    8  A    between atoms: P_22  and  O_23
REMARK    9  A    between atoms: P_22  and  O_25
REMARK   10  A    between atoms: O_25  and  P_26
REMARK   11  A    between atoms: P_26  and  O_27
REMARK   12  A    between atoms: P_26  and  O_28
REMARK   13  A    between atoms: C_30  and  O_32
REMARK   14  A    between atoms: C_33  and  O_35
REMARK                            x       y       z     vdW  Elec       q    Type
REMARK                         _______ _______ _______ _____ _____    ______ ____
ROOT
ATOM      1  C   UNL     1       8.303  -3.968  25.835  0.00  0.00    +0.253 C 
ATOM      2  C   UNL     1       8.524  -5.267  25.047  0.00  0.00    +0.195 C 
ATOM      3  C   UNL     1       7.884  -5.005  23.680  0.00  0.00    +0.178 C 
ATOM      4  C   UNL     1       7.560  -3.509  23.700  0.00  0.00    +0.178 C 
ATOM      5  O   UNL     1       8.322  -2.952  24.787  0.00  0.00    -0.346 OA
ENDROOT
BRANCH   1  13
ATOM      6  N   UNL     1       3.458  -4.180  29.491  0.00  0.00    -0.341 N 
ATOM      7  H   UNL     1       3.396  -3.171  29.404  0.00  0.00    +0.144 HD
ATOM      8  H   UNL     1       3.248  -4.587  30.387  0.00  0.00    +0.144 HD
ATOM      9  C   UNL     1       4.633  -4.694  28.947  0.00  0.00    +0.147 A 
ATOM     10  C   UNL     1       5.401  -4.015  27.987  0.00  0.00    +0.147 A 
ATOM     11  N   UNL     1       5.250  -2.787  27.381  0.00  0.00    -0.231 NA
ATOM     12  C   UNL     1       6.287  -2.679  26.581  0.00  0.00    +0.203 A 
ATOM     13  N   UNL     1       7.085  -3.801  26.610  0.00  0.00    -0.286 N 
ATOM     14  C   UNL     1       6.553  -4.647  27.544  0.00  0.00    +0.167 A 
ATOM     15  N   UNL     1       7.027  -5.831  27.960  0.00  0.00    -0.216 NA
ATOM     16  C   UNL     1       6.214  -6.389  28.875  0.00  0.00    +0.225 A 
ATOM     17  N   UNL     1       5.068  -5.893  29.390  0.00  0.00    -0.219 NA
ENDBRANCH   1  13
BRANCH   2  18
ATOM     18  O   UNL     1       9.943  -5.478  24.858  0.00  0.00    -0.385 OA
ATOM     19  H   UNL     1      10.065  -6.233  24.255  0.00  0.00    +0.210 HD
ENDBRANCH   2  18
BRANCH   3  20
ATOM     20  O   UNL     1       6.691  -5.766  23.518  0.00  0.00    -0.386 OA
ATOM     21  H   UNL     1       6.114  -5.270  22.909  0.00  0.00    +0.210 HD
ENDBRANCH   3  20
BRANCH   4  22
ATOM     22  C   UNL     1       7.859  -2.797  22.384  0.00  0.00    +0.206 C 
BRANCH  22  23
ATOM     23  O   UNL     1       8.370  -1.494  22.655  0.00  0.00    -0.284 OA
BRANCH  23  24
ATOM     24  P   UNL     1       9.872  -1.110  22.087  0.00  0.00    +0.483 P 
ATOM     25  O   UNL     1      10.519  -0.168  23.106  0.00  0.00    -0.227 OA
BRANCH  24  26
ATOM     26  O   UNL     1      10.529  -2.427  22.997  0.00  0.00    -0.302 OA
ATOM     27  H   UNL     1      10.180  -2.271  23.898  0.00  0.00    +0.222 HD
ENDBRANCH  24  26
BRANCH  24  28
ATOM     28  O   UNL     1       9.215   0.207  21.178  0.00  0.00    -0.186 OA
BRANCH  28  29
ATOM     29  P   UNL     1       8.865   1.525  22.242  0.00  0.00    +0.490 P 
ATOM     30  O   UNL     1       7.696   1.954  21.358  0.00  0.00    -0.227 OA
BRANCH  29  31
ATOM     31  O   UNL     1      10.178   2.238  21.597  0.00  0.00    -0.302 OA
ATOM     32  H   UNL     1       9.935   3.130  21.257  0.00  0.00    +0.222 HD
ENDBRANCH  29  31
BRANCH  29  33
ATOM     33  O   UNL     1       8.514   2.841  23.308  0.00  0.00    -0.211 OA
BRANCH  33  34
ATOM     34  P   UNL     1       7.883   2.226  24.796  0.00  0.00    +0.312 P 
ATOM     35  S   UNL     1       7.192   1.552  26.429  0.00  0.00    +0.023 S 
BRANCH  34  36
ATOM     36  O   UNL     1       9.436   1.789  25.107  0.00  0.00    -0.327 OA
ATOM     37  H   UNL     1      10.081   2.347  24.638  0.00  0.00    +0.219 HD
ENDBRANCH  34  36
BRANCH  34  38
ATOM     38  O   UNL     1       7.549   0.877  23.921  0.00  0.00    -0.327 OA
ATOM     39  H   UNL     1       6.937   0.308  24.424  0.00  0.00    +0.219 HD
ENDBRANCH  34  38
ENDBRANCH  33  34
ENDBRANCH  29  33
ENDBRANCH  28  29
ENDBRANCH  24  28
ENDBRANCH  23  24
ENDBRANCH  22  23
ENDBRANCH   4  22
TORSDOF 14
ENDMDL
MODEL 5
REMARK VINA RESULT:      -6.6      2.428      3.331
REMARK  Name = 
REMARK  14 active torsions:
REMARK  status: ('A' for Active; 'I' for Inactive)
REMARK    1  A    between atoms: N_10  and  C_11
REMARK    2  A    between atoms: C_14  and  C_16
REMARK    3  A    between atoms: C_16  and  O_17
REMARK    4  A    between atoms: O_17  and  P_18
REMARK    5  A    between atoms: P_18  and  O_19
REMARK    6  A    between atoms: P_18  and  O_21
REMARK    7  A    between atoms: O_21  and  P_22
REMARK    8  A    between atoms: P_22  and  O_23
REMARK    9  A    between atoms: P_22  and  O_25
REMARK   10  A    between atoms: O_25  and  P_26
REMARK   11  A    between atoms: P_26  and  O_27
REMARK   12  A    between atoms: P_26  and  O_28
REMARK   13  A    between atoms: C_30  and  O_32
REMARK   14  A    between atoms: C_33  and  O_35
REMARK                            x       y       z     vdW  Elec       q    Type
REMARK                         _______ _______ _______ _____ _____    ______ ____
ROOT
ATOM      1  C   UNL     1       7.263  -3.001  23.271  0.00  0.00    +0.253 C 
ATOM      2  C   UNL     1       7.857  -4.418  23.272  0.00  0.00    +0.195 C 
ATOM      3  C   UNL     1       8.562  -4.541  24.626  0.00  0.00    +0.178 C 
ATOM      4  C   UNL     1       8.123  -3.291  25.391  0.00  0.00    +0.178 C 
ATOM      5  O   UNL     1       6.981  -2.773  24.684  0.00  0.00    -0.346 OA
ENDROOT
BRANCH   1  13
ATOM      6  N   UNL     1       9.860   2.230  21.604  0.00  0.00    -0.341 N 
ATOM      7  H   UNL     1      10.745   1.736  21.573  0.00  0.00    +0.144 HD
ATOM      8  H   UNL     1       9.862   3.176  21.948  0.00  0.00    +0.144 HD
ATOM      9  C   UNL     1       8.841   1.470  22.175  0.00  0.00    +0.147 A 
ATOM     10  C   UNL     1       8.877   0.068  22.255  0.00  0.00    +0.147 A 
ATOM     11  N   UNL     1       9.815  -0.858  21.857  0.00  0.00    -0.231 NA
ATOM     12  C   UNL     1       9.309  -2.019  22.207  0.00  0.00    +0.203 A 
ATOM     13  N   UNL     1       8.063  -1.892  22.781  0.00  0.00    -0.286 N 
ATOM     14  C   UNL     1       7.794  -0.553  22.860  0.00  0.00    +0.167 A 
ATOM     15  N   UNL     1       6.727   0.049  23.405  0.00  0.00    -0.216 NA
ATOM     16  C   UNL     1       6.798   1.386  23.270  0.00  0.00    +0.225 A 
ATOM     17  N   UNL     1       7.782   2.119  22.704  0.00  0.00    -0.219 NA
ENDBRANCH   1  13
BRANCH   2  18
ATOM     18  O   UNL     1       6.784  -5.387  23.221  0.00  0.00    -0.385 OA
ATOM     19  H   UNL     1       6.142  -5.174  23.923  0.00  0.00    +0.210 HD
ENDBRANCH   2  18
BRANCH   3  20
ATOM     20  O   UNL     1       9.978  -4.551  24.466  0.00  0.00    -0.386 OA
ATOM     21  H   UNL     1      10.167  -4.241  23.562  0.00  0.00    +0.210 HD
ENDBRANCH   3  20
BRANCH   4  22
ATOM     22  C   UNL     1       7.802  -3.551  26.860  0.00  0.00    +0.206 C 
BRANCH  22  23
ATOM     23  O   UNL     1       6.423  -3.887  26.993  0.00  0.00    -0.284 OA
BRANCH  23  24
ATOM     24  P   UNL     1       6.033  -5.426  27.449  0.00  0.00    +0.483 P 
ATOM     25  O   UNL     1       6.085  -6.301  26.193  0.00  0.00    -0.227 OA
BRANCH  24  26
ATOM     26  O   UNL     1       7.717  -5.764  27.664  0.00  0.00    -0.302 OA
ATOM     27  H   UNL     1       7.732  -6.729  27.821  0.00  0.00    +0.222 HD
ENDBRANCH  24  26
BRANCH  24  28
ATOM     28  O   UNL     1       4.351  -5.087  27.233  0.00  0.00    -0.186 OA
BRANCH  28  29
ATOM     29  P   UNL     1       4.165  -3.532  26.499  0.00  0.00    +0.490 P 
ATOM     30  O   UNL     1       2.648  -3.621  26.646  0.00  0.00    -0.227 OA
BRANCH  29  31
ATOM     31  O   UNL     1       4.508  -4.286  25.096  0.00  0.00    -0.302 OA
ATOM     32  H   UNL     1       4.794  -5.210  25.281  0.00  0.00    +0.222 HD
ENDBRANCH  29  31
BRANCH  29  33
ATOM     33  O   UNL     1       3.981  -1.976  25.766  0.00  0.00    -0.211 OA
BRANCH  33  34
ATOM     34  P   UNL     1       4.335  -0.746  26.928  0.00  0.00    +0.312 P 
ATOM     35  S   UNL     1       4.723   0.605  28.203  0.00  0.00    +0.023 S 
BRANCH  34  36
ATOM     36  O   UNL     1       5.844  -0.767  26.279  0.00  0.00    -0.327 OA
ATOM     37  H   UNL     1       6.311   0.078  26.395  0.00  0.00    +0.219 HD
ENDBRANCH  34  36
BRANCH  34  38
ATOM     38  O   UNL     1       4.621  -2.002  27.947  0.00  0.00    -0.327 OA
ATOM     39  H   UNL     1       3.878  -2.087  28.573  0.00  0.00    +0.219 HD
ENDBRANCH  34  38
ENDBRANCH  33  34
ENDBRANCH  29  33
ENDBRANCH  28  29
ENDBRANCH  24  28
ENDBRANCH  23  24
ENDBRANCH  22  23
ENDBRANCH   4  22
TORSDOF 14
ENDMDL
MODEL 6
REMARK VINA RESULT:      -6.6      2.533      4.105
REMARK  Name = 
REMARK  14 active torsions:
REMARK  status: ('A' for Active; 'I' for Inactive)
REMARK    1  A    between atoms: N_10  and  C_11
REMARK    2  A    between atoms: C_14  and  C_16
REMARK    3  A    between atoms: C_16  and  O_17
REMARK    4  A    between atoms: O_17  and  P_18
REMARK    5  A    between atoms: P_18  and  O_19
REMARK    6  A    between atoms: P_18  and  O_21
REMARK    7  A    between atoms: O_21  and  P_22
REMARK    8  A    between atoms: P_22  and  O_23
REMARK    9  A    between atoms: P_22  and  O_25
REMARK   10  A    between atoms: O_25  and  P_26
REMARK   11  A    between atoms: P_26  and  O_27
REMARK   12  A    between atoms: P_26  and  O_28
REMARK   13  A    between atoms: C_30  and  O_32
REMARK   14  A    between atoms: C_33  and  O_35
REMARK                            x       y       z     vdW  Elec       q    Type
REMARK                         _______ _______ _______ _____ _____    ______ ____
ROOT
ATOM      1  C   UNL     1       8.628  -0.082  22.330  0.00  0.00    +0.253 C 
ATOM      2  C   UNL     1      10.110  -0.414  22.558  0.00  0.00    +0.195 C 
ATOM      3  C   UNL     1      10.179  -0.903  24.008  0.00  0.00    +0.178 C 
ATOM      4  C   UNL     1       8.713  -1.042  24.426  0.00  0.00    +0.178 C 
ATOM      5  O   UNL     1       7.950  -1.033  23.205  0.00  0.00    -0.346 OA
ENDROOT
BRANCH   1  13
ATOM      6  N   UNL     1       7.577   5.725  23.766  0.00  0.00    -0.341 N 
ATOM      7  H   UNL     1       6.690   5.644  23.279  0.00  0.00    +0.144 HD
ATOM      8  H   UNL     1       8.082   6.591  23.681  0.00  0.00    +0.144 HD
ATOM      9  C   UNL     1       8.401   4.619  23.565  0.00  0.00    +0.147 A 
ATOM     10  C   UNL     1       7.921   3.362  23.164  0.00  0.00    +0.147 A 
ATOM     11  N   UNL     1       6.655   2.904  22.873  0.00  0.00    -0.231 NA
ATOM     12  C   UNL     1       6.824   1.644  22.539  0.00  0.00    +0.203 A 
ATOM     13  N   UNL     1       8.140   1.250  22.639  0.00  0.00    -0.286 N 
ATOM     14  C   UNL     1       8.862   2.357  22.994  0.00  0.00    +0.167 A 
ATOM     15  N   UNL     1      10.190   2.469  23.145  0.00  0.00    -0.216 NA
ATOM     16  C   UNL     1      10.535   3.712  23.530  0.00  0.00    +0.225 A 
ATOM     17  N   UNL     1       9.731   4.777  23.736  0.00  0.00    -0.219 NA
ENDBRANCH   1  13
BRANCH   2  18
ATOM     18  O   UNL     1      10.497  -1.503  21.687  0.00  0.00    -0.385 OA
ATOM     19  H   UNL     1      10.183  -2.338  22.079  0.00  0.00    +0.210 HD
ENDBRANCH   2  18
BRANCH   3  20
ATOM     20  O   UNL     1      10.840   0.048  24.838  0.00  0.00    -0.386 OA
ATOM     21  H   UNL     1      11.749  -0.276  24.978  0.00  0.00    +0.210 HD
ENDBRANCH   3  20
BRANCH   4  22
ATOM     22  C   UNL     1       8.426  -2.289  25.257  0.00  0.00    +0.206 C 
BRANCH  22  23
ATOM     23  O   UNL     1       9.343  -3.320  24.899  0.00  0.00    -0.284 OA
BRANCH  23  24
ATOM     24  P   UNL     1       8.930  -4.884  25.230  0.00  0.00    +0.483 P 
ATOM     25  O   UNL     1       8.776  -5.609  23.891  0.00  0.00    -0.227 OA
BRANCH  24  26
ATOM     26  O   UNL     1      10.606  -5.313  25.186  0.00  0.00    -0.302 OA
ATOM     27  H   UNL     1      11.059  -4.446  25.227  0.00  0.00    +0.222 HD
ENDBRANCH  24  26
BRANCH  24  28
ATOM     28  O   UNL     1       7.255  -4.455  25.274  0.00  0.00    -0.186 OA
BRANCH  28  29
ATOM     29  P   UNL     1       6.374  -5.658  26.151  0.00  0.00    +0.490 P 
ATOM     30  O   UNL     1       5.772  -4.585  27.056  0.00  0.00    -0.227 OA
BRANCH  29  31
ATOM     31  O   UNL     1       7.805  -6.040  26.827  0.00  0.00    -0.302 OA
ATOM     32  H   UNL     1       8.475  -5.359  26.588  0.00  0.00    +0.222 HD
ENDBRANCH  29  31
BRANCH  29  33
ATOM     33  O   UNL     1       5.492  -6.861  27.026  0.00  0.00    -0.211 OA
BRANCH  33  34
ATOM     34  P   UNL     1       5.318  -6.363  28.673  0.00  0.00    +0.312 P 
ATOM     35  S   UNL     1       5.128  -5.816  30.480  0.00  0.00    +0.023 S 
BRANCH  34  36
ATOM     36  O   UNL     1       6.493  -7.469  28.981  0.00  0.00    -0.327 OA
ATOM     37  H   UNL     1       6.577  -7.669  29.930  0.00  0.00    +0.219 HD
ENDBRANCH  34  36
BRANCH  34  38
ATOM     38  O   UNL     1       4.099  -7.462  28.718  0.00  0.00    -0.327 OA
ATOM     39  H   UNL     1       4.456  -8.350  28.530  0.00  0.00    +0.219 HD
ENDBRANCH  34  38
ENDBRANCH  33  34
ENDBRANCH  29  33
ENDBRANCH  28  29
ENDBRANCH  24  28
ENDBRANCH  23  24
ENDBRANCH  22  23
ENDBRANCH   4  22
TORSDOF 14
ENDMDL
MODEL 7
REMARK VINA RESULT:      -6.6      2.834      4.566
REMARK  Name = 
REMARK  14 active torsions:
REMARK  status: ('A' for Active; 'I' for Inactive)
REMARK    1  A    between atoms: N_10  and  C_11
REMARK    2  A    between atoms: C_14  and  C_16
REMARK    3  A    between atoms: C_16  and  O_17
REMARK    4  A    between atoms: O_17  and  P_18
REMARK    5  A    between atoms: P_18  and  O_19
REMARK    6  A    between atoms: P_18  and  O_21
REMARK    7  A    between atoms: O_21  and  P_22
REMARK    8  A    between atoms: P_22  and  O_23
REMARK    9  A    between atoms: P_22  and  O_25
REMARK   10  A    between atoms: O_25  and  P_26
REMARK   11  A    between atoms: P_26  and  O_27
REMARK   12  A    between atoms: P_26  and  O_28
REMARK   13  A    between atoms: C_30  and  O_32
REMARK   14  A    between atoms: C_33  and  O_35
REMARK                            x       y       z     vdW  Elec       q    Type
REMARK                         _______ _______ _______ _____ _____    ______ ____
ROOT
ATOM      1  C   UNL     1       8.884  -0.124  25.102  0.00  0.00    +0.253 C 
ATOM      2  C   UNL     1       7.473  -0.242  25.696  0.00  0.00    +0.195 C 
ATOM      3  C   UNL     1       6.582  -0.618  24.509  0.00  0.00    +0.178 C 
ATOM      4  C   UNL     1       7.571  -0.920  23.381  0.00  0.00    +0.178 C 
ATOM      5  O   UNL     1       8.853  -1.094  24.012  0.00  0.00    -0.346 OA
ENDROOT
BRANCH   1  13
ATOM      6  N   UNL     1       9.918   5.595  23.338  0.00  0.00    -0.341 N 
ATOM      7  H   UNL     1      10.888   5.335  23.195  0.00  0.00    +0.144 HD
ATOM      8  H   UNL     1       9.727   6.510  23.710  0.00  0.00    +0.144 HD
ATOM      9  C   UNL     1       9.187   4.604  23.990  0.00  0.00    +0.147 A 
ATOM     10  C   UNL     1       9.573   3.254  24.020  0.00  0.00    +0.147 A 
ATOM     11  N   UNL     1      10.659   2.590  23.492  0.00  0.00    -0.231 NA
ATOM     12  C   UNL     1      10.494   1.338  23.857  0.00  0.00    +0.203 A 
ATOM     13  N   UNL     1       9.328   1.151  24.565  0.00  0.00    -0.286 N 
ATOM     14  C   UNL     1       8.751   2.382  24.717  0.00  0.00    +0.167 A 
ATOM     15  N   UNL     1       7.637   2.699  25.393  0.00  0.00    -0.216 NA
ATOM     16  C   UNL     1       7.363   4.013  25.295  0.00  0.00    +0.225 A 
ATOM     17  N   UNL     1       8.068   4.969  24.651  0.00  0.00    -0.219 NA
ENDBRANCH   1  13
BRANCH   2  18
ATOM     18  O   UNL     1       7.446  -1.326  26.654  0.00  0.00    -0.385 OA
ATOM     19  H   UNL     1       7.164  -2.138  26.193  0.00  0.00    +0.210 HD
ENDBRANCH   2  18
BRANCH   3  20
ATOM     20  O   UNL     1       5.733   0.466  24.143  0.00  0.00    -0.386 OA
ATOM     21  H   UNL     1       5.097   0.124  23.488  0.00  0.00    +0.210 HD
ENDBRANCH   3  20
BRANCH   4  22
ATOM     22  C   UNL     1       7.192  -2.134  22.539  0.00  0.00    +0.206 C 
BRANCH  22  23
ATOM     23  O   UNL     1       6.862  -3.223  23.398  0.00  0.00    -0.284 OA
BRANCH  23  24
ATOM     24  P   UNL     1       7.482  -4.713  23.045  0.00  0.00    +0.483 P 
ATOM     25  O   UNL     1       6.832  -5.716  24.002  0.00  0.00    -0.227 OA
BRANCH  24  26
ATOM     26  O   UNL     1       6.153  -4.987  21.971  0.00  0.00    -0.302 OA
ATOM     27  H   UNL     1       6.404  -4.479  21.173  0.00  0.00    +0.222 HD
ENDBRANCH  24  26
BRANCH  24  28
ATOM     28  O   UNL     1       8.810  -4.438  24.119  0.00  0.00    -0.186 OA
BRANCH  28  29
ATOM     29  P   UNL     1       8.350  -4.876  25.729  0.00  0.00    +0.490 P 
ATOM     30  O   UNL     1       9.050  -3.638  26.287  0.00  0.00    -0.227 OA
BRANCH  29  31
ATOM     31  O   UNL     1       9.509  -6.015  25.621  0.00  0.00    -0.302 OA
ATOM     32  H   UNL     1       9.769  -6.132  24.678  0.00  0.00    +0.222 HD
ENDBRANCH  29  31
BRANCH  29  33
ATOM     33  O   UNL     1       7.889  -5.314  27.337  0.00  0.00    -0.211 OA
BRANCH  33  34
ATOM     34  P   UNL     1       6.201  -5.010  27.555  0.00  0.00    +0.312 P 
ATOM     35  S   UNL     1       4.348  -4.678  27.796  0.00  0.00    +0.023 S 
BRANCH  34  36
ATOM     36  O   UNL     1       5.987  -6.353  26.634  0.00  0.00    -0.327 OA
ATOM     37  H   UNL     1       6.671  -7.027  26.793  0.00  0.00    +0.219 HD
ENDBRANCH  34  36
BRANCH  34  38
ATOM     38  O   UNL     1       6.369  -4.004  26.269  0.00  0.00    -0.327 OA
ATOM     39  H   UNL     1       7.301  -4.001  25.980  0.00  0.00    +0.219 HD
ENDBRANCH  34  38
ENDBRANCH  33  34
ENDBRANCH  29  33
ENDBRANCH  28  29
ENDBRANCH  24  28
ENDBRANCH  23  24
ENDBRANCH  22  23
ENDBRANCH   4  22
TORSDOF 14
ENDMDL
MODEL 8
REMARK VINA RESULT:      -6.6      1.832      2.214
REMARK  Name = 
REMARK  14 active torsions:
REMARK  status: ('A' for Active; 'I' for Inactive)
REMARK    1  A    between atoms: N_10  and  C_11
REMARK    2  A    between atoms: C_14  and  C_16
REMARK    3  A    between atoms: C_16  and  O_17
REMARK    4  A    between atoms: O_17  and  P_18
REMARK    5  A    between atoms: P_18  and  O_19
REMARK    6  A    between atoms: P_18  and  O_21
REMARK    7  A    between atoms: O_21  and  P_22
REMARK    8  A    between atoms: P_22  and  O_23
REMARK    9  A    between atoms: P_22  and  O_25
REMARK   10  A    between atoms: O_25  and  P_26
REMARK   11  A    between atoms: P_26  and  O_27
REMARK   12  A    between atoms: P_26  and  O_28
REMARK   13  A    between atoms: C_30  and  O_32
REMARK   14  A    between atoms: C_33  and  O_35
REMARK                            x       y       z     vdW  Elec       q    Type
REMARK                         _______ _______ _______ _____ _____    ______ ____
ROOT
ATOM      1  C   UNL     1       7.542  -3.161  24.268  0.00  0.00    +0.253 C 
ATOM      2  C   UNL     1       8.217  -4.404  23.668  0.00  0.00    +0.195 C 
ATOM      3  C   UNL     1       8.823  -5.134  24.870  0.00  0.00    +0.178 C 
ATOM      4  C   UNL     1       8.254  -4.394  26.083  0.00  0.00    +0.178 C 
ATOM      5  O   UNL     1       7.140  -3.625  25.592  0.00  0.00    -0.346 OA
ENDROOT
BRANCH   1  13
ATOM      6  N   UNL     1      10.760   1.976  23.901  0.00  0.00    -0.341 N 
ATOM      7  H   UNL     1      10.454   2.190  24.844  0.00  0.00    +0.144 HD
ATOM      8  H   UNL     1      10.831   2.737  23.247  0.00  0.00    +0.144 HD
ATOM      9  C   UNL     1      10.093   0.881  23.356  0.00  0.00    +0.147 A 
ATOM     10  C   UNL     1       9.450  -0.096  24.134  0.00  0.00    +0.147 A 
ATOM     11  N   UNL     1       9.293  -0.241  25.494  0.00  0.00    -0.231 NA
ATOM     12  C   UNL     1       8.586  -1.339  25.635  0.00  0.00    +0.203 A 
ATOM     13  N   UNL     1       8.309  -1.939  24.426  0.00  0.00    -0.286 N 
ATOM     14  C   UNL     1       8.819  -1.125  23.451  0.00  0.00    +0.167 A 
ATOM     15  N   UNL     1       8.733  -1.270  22.120  0.00  0.00    -0.216 NA
ATOM     16  C   UNL     1       9.383  -0.281  21.479  0.00  0.00    +0.225 A 
ATOM     17  N   UNL     1      10.039   0.772  22.011  0.00  0.00    -0.219 NA
ENDBRANCH   1  13
BRANCH   2  18
ATOM     18  O   UNL     1       7.210  -5.255  23.073  0.00  0.00    -0.385 OA
ATOM     19  H   UNL     1       7.632  -5.793  22.378  0.00  0.00    +0.210 HD
ENDBRANCH   2  18
BRANCH   3  20
ATOM     20  O   UNL     1      10.245  -5.044  24.860  0.00  0.00    -0.386 OA
ATOM     21  H   UNL     1      10.474  -4.163  24.511  0.00  0.00    +0.210 HD
ENDBRANCH   3  20
BRANCH   4  22
ATOM     22  C   UNL     1       7.838  -5.316  27.226  0.00  0.00    +0.206 C 
BRANCH  22  23
ATOM     23  O   UNL     1       6.772  -6.157  26.794  0.00  0.00    -0.284 OA
BRANCH  23  24
ATOM     24  P   UNL     1       5.396  -6.206  27.706  0.00  0.00    +0.483 P 
ATOM     25  O   UNL     1       5.495  -7.433  28.616  0.00  0.00    -0.227 OA
BRANCH  24  26
ATOM     26  O   UNL     1       6.211  -5.313  28.944  0.00  0.00    -0.302 OA
ATOM     27  H   UNL     1       5.535  -4.670  29.236  0.00  0.00    +0.222 HD
ENDBRANCH  24  26
BRANCH  24  28
ATOM     28  O   UNL     1       4.582  -7.100  26.468  0.00  0.00    -0.186 OA
BRANCH  28  29
ATOM     29  P   UNL     1       3.918  -6.003  25.307  0.00  0.00    +0.490 P 
ATOM     30  O   UNL     1       5.060  -6.306  24.339  0.00  0.00    -0.227 OA
BRANCH  29  31
ATOM     31  O   UNL     1       4.479  -4.823  26.279  0.00  0.00    -0.302 OA
ATOM     32  H   UNL     1       5.462  -4.873  26.325  0.00  0.00    +0.222 HD
ENDBRANCH  29  31
BRANCH  29  33
ATOM     33  O   UNL     1       3.253  -4.906  24.146  0.00  0.00    -0.211 OA
BRANCH  33  34
ATOM     34  P   UNL     1       1.924  -5.661  23.337  0.00  0.00    +0.312 P 
ATOM     35  S   UNL     1       0.464  -6.488  22.450  0.00  0.00    +0.023 S 
BRANCH  34  36
ATOM     36  O   UNL     1       2.023  -6.786  24.529  0.00  0.00    -0.327 OA
ATOM     37  H   UNL     1       2.812  -6.670  25.086  0.00  0.00    +0.219 HD
ENDBRANCH  34  36
BRANCH  34  38
ATOM     38  O   UNL     1       3.083  -6.362  22.409  0.00  0.00    -0.327 OA
ATOM     39  H   UNL     1       3.078  -5.955  21.523  0.00  0.00    +0.219 HD
ENDBRANCH  34  38
ENDBRANCH  33  34
ENDBRANCH  29  33
ENDBRANCH  28  29
ENDBRANCH  24  28
ENDBRANCH  23  24
ENDBRANCH  22  23
ENDBRANCH   4  22
TORSDOF 14
ENDMDL
MODEL 9
REMARK VINA RESULT:      -6.6      2.542      3.544
REMARK  Name = 
REMARK  14 active torsions:
REMARK  status: ('A' for Active; 'I' for Inactive)
REMARK    1  A    between atoms: N_10  and  C_11
REMARK    2  A    between atoms: C_14  and  C_16
REMARK    3  A    between atoms: C_16  and  O_17
REMARK    4  A    between atoms: O_17  and  P_18
REMARK    5  A    between atoms: P_18  and  O_19
REMARK    6  A    between atoms: P_18  and  O_21
REMARK    7  A    between atoms: O_21  and  P_22
REMARK    8  A    between atoms: P_22  and  O_23
REMARK    9  A    between atoms: P_22  and  O_25
REMARK   10  A    between atoms: O_25  and  P_26
REMARK   11  A    between atoms: P_26  and  O_27
REMARK   12  A    between atoms: P_26  and  O_28
REMARK   13  A    between atoms: C_30  and  O_32
REMARK   14  A    between atoms: C_33  and  O_35
REMARK                            x       y       z     vdW  Elec       q    Type
REMARK                         _______ _______ _______ _____ _____    ______ ____
ROOT
ATOM      1  C   UNL     1       7.616  -0.078  26.516  0.00  0.00    +0.253 C 
ATOM      2  C   UNL     1       6.115  -0.314  26.292  0.00  0.00    +0.195 C 
ATOM      3  C   UNL     1       6.019  -1.764  25.806  0.00  0.00    +0.178 C 
ATOM      4  C   UNL     1       7.429  -2.322  26.013  0.00  0.00    +0.178 C 
ATOM      5  O   UNL     1       8.093  -1.403  26.900  0.00  0.00    -0.346 OA
ENDROOT
BRANCH   1  13
ATOM      6  N   UNL     1      10.147   2.176  21.476  0.00  0.00    -0.341 N 
ATOM      7  H   UNL     1      11.002   2.299  22.007  0.00  0.00    +0.144 HD
ATOM      8  H   UNL     1       9.906   2.884  20.803  0.00  0.00    +0.144 HD
ATOM      9  C   UNL     1       9.062   1.830  22.279  0.00  0.00    +0.147 A 
ATOM     10  C   UNL     1       9.198   1.254  23.553  0.00  0.00    +0.147 A 
ATOM     11  N   UNL     1      10.303   0.913  24.302  0.00  0.00    -0.231 NA
ATOM     12  C   UNL     1       9.812   0.428  25.420  0.00  0.00    +0.203 A 
ATOM     13  N   UNL     1       8.435   0.400  25.416  0.00  0.00    -0.286 N 
ATOM     14  C   UNL     1       8.027   0.971  24.241  0.00  0.00    +0.167 A 
ATOM     15  N   UNL     1       6.776   1.219  23.829  0.00  0.00    -0.216 NA
ATOM     16  C   UNL     1       6.766   1.768  22.600  0.00  0.00    +0.225 A 
ATOM     17  N   UNL     1       7.820   2.091  21.819  0.00  0.00    -0.219 NA
ENDBRANCH   1  13
BRANCH   2  18
ATOM     18  O   UNL     1       5.420  -0.206  27.556  0.00  0.00    -0.385 OA
ATOM     19  H   UNL     1       5.549  -1.035  28.052  0.00  0.00    +0.210 HD
ENDBRANCH   2  18
BRANCH   3  20
ATOM     20  O   UNL     1       5.665  -1.818  24.427  0.00  0.00    -0.386 OA
ATOM     21  H   UNL     1       5.636  -2.760  24.175  0.00  0.00    +0.210 HD
ENDBRANCH   3  20
BRANCH   4  22
ATOM     22  C   UNL     1       7.453  -3.746  26.562  0.00  0.00    +0.206 C 
BRANCH  22  23
ATOM     23  O   UNL     1       7.569  -4.669  25.481  0.00  0.00    -0.284 OA
BRANCH  23  24
ATOM     24  P   UNL     1       9.052  -5.324  25.169  0.00  0.00    +0.483 P 
ATOM     25  O   UNL     1       9.959  -4.191  24.680  0.00  0.00    -0.227 OA
BRANCH  24  26
ATOM     26  O   UNL     1       9.543  -4.923  26.780  0.00  0.00    -0.302 OA
ATOM     27  H   UNL     1      10.499  -5.131  26.779  0.00  0.00    +0.222 HD
ENDBRANCH  24  26
BRANCH  24  28
ATOM     28  O   UNL     1       8.561  -5.724  23.560  0.00  0.00    -0.186 OA
BRANCH  28  29
ATOM     29  P   UNL     1       7.010  -5.026  23.240  0.00  0.00    +0.490 P 
ATOM     30  O   UNL     1       6.911  -5.800  21.927  0.00  0.00    -0.227 OA
BRANCH  29  31
ATOM     31  O   UNL     1       7.830  -3.667  22.879  0.00  0.00    -0.302 OA
ATOM     32  H   UNL     1       8.485  -3.856  22.168  0.00  0.00    +0.222 HD
ENDBRANCH  29  31
BRANCH  29  33
ATOM     33  O   UNL     1       5.459  -4.330  22.922  0.00  0.00    -0.211 OA
BRANCH  33  34
ATOM     34  P   UNL     1       4.241  -5.227  23.760  0.00  0.00    +0.312 P 
ATOM     35  S   UNL     1       2.906  -6.211  24.681  0.00  0.00    +0.023 S 
BRANCH  34  36
ATOM     36  O   UNL     1       5.499  -6.091  24.368  0.00  0.00    -0.327 OA
ATOM     37  H   UNL     1       5.281  -7.032  24.489  0.00  0.00    +0.219 HD
ENDBRANCH  34  36
BRANCH  34  38
ATOM     38  O   UNL     1       4.147  -6.103  22.375  0.00  0.00    -0.327 OA
ATOM     39  H   UNL     1       4.062  -5.499  21.614  0.00  0.00    +0.219 HD
ENDBRANCH  34  38
ENDBRANCH  33  34
ENDBRANCH  29  33
ENDBRANCH  28  29
ENDBRANCH  24  28
ENDBRANCH  23  24
ENDBRANCH  22  23
ENDBRANCH   4  22
TORSDOF 14
ENDMDL
