MODEL 1
REMARK VINA RESULT:      -3.8      0.000      0.000
REMARK  Name = 
REMARK  1 active torsions:
REMARK  status: ('A' for Active; 'I' for Inactive)
REMARK    1  A    between atoms: C_2  and  CA_4
REMARK                            x       y       z     vdW  Elec       q    Type
REMARK                         _______ _______ _______ _____ _____    ______ ____
ROOT
ATOM      1  CA  PRO A   1      10.541   2.558  23.099  0.00  0.00    +0.062 A 
ATOM      2  N   PRO A   1      10.103   2.233  21.844  0.00  0.00    -0.360 N 
ATOM      3  H   PRO A   1      10.030   2.921  21.104  0.00  0.00    +0.165 HD
ATOM      4  CD  PRO A   1       9.806   0.896  21.795  0.00  0.00    +0.083 A 
ATOM      5  CG  PRO A   1      10.062   0.364  23.042  0.00  0.00    +0.019 A 
ATOM      6  CB  PRO A   1      10.528   1.417  23.869  0.00  0.00    +0.029 A 
ENDROOT
BRANCH   1   8
ATOM      7  O   PRO A   1      12.148   4.244  23.307  0.00  0.00    -0.543 OA
ATOM      8  C   PRO A   1      10.935   3.923  23.471  0.00  0.00    +0.088 C 
ATOM      9  OXT PRO A   1       9.994   4.643  23.926  0.00  0.00    -0.543 OA
ENDBRANCH   1   8
TORSDOF 1
ENDMDL
MODEL 2
REMARK VINA RESULT:      -3.7      3.639      4.380
REMARK  Name = 
REMARK  1 active torsions:
REMARK  status: ('A' for Active; 'I' for Inactive)
REMARK    1  A    between atoms: C_2  and  CA_4
REMARK                            x       y       z     vdW  Elec       q    Type
REMARK                         _______ _______ _______ _____ _____    ______ ____
ROOT
ATOM      1  CA  PRO A   1      10.033  -0.080  22.704  0.00  0.00    +0.062 A 
ATOM      2  N   PRO A   1      10.500   0.364  23.910  0.00  0.00    -0.360 N 
ATOM      3  H   PRO A   1      10.723  -0.271  24.668  0.00  0.00    +0.165 HD
ATOM      4  CD  PRO A   1      10.598   1.731  23.889  0.00  0.00    +0.083 A 
ATOM      5  CG  PRO A   1      10.187   2.160  22.644  0.00  0.00    +0.019 A 
ATOM      6  CB  PRO A   1       9.828   1.013  21.892  0.00  0.00    +0.029 A 
ENDROOT
BRANCH   1   8
ATOM      7  O   PRO A   1      10.675  -2.325  22.848  0.00  0.00    -0.543 OA
ATOM      8  C   PRO A   1       9.816  -1.503  22.413  0.00  0.00    +0.088 C 
ATOM      9  OXT PRO A   1       8.768  -1.755  21.744  0.00  0.00    -0.543 OA
ENDBRANCH   1   8
TORSDOF 1
ENDMDL
MODEL 3
REMARK VINA RESULT:      -3.7      3.384      4.090
REMARK  Name = 
REMARK  1 active torsions:
REMARK  status: ('A' for Active; 'I' for Inactive)
REMARK    1  A    between atoms: C_2  and  CA_4
REMARK                            x       y       z     vdW  Elec       q    Type
REMARK                         _______ _______ _______ _____ _____    ______ ____
ROOT
ATOM      1  CA  PRO A   1      10.259   0.131  23.260  0.00  0.00    +0.062 A 
ATOM      2  N   PRO A   1       9.985   0.840  22.123  0.00  0.00    -0.360 N 
ATOM      3  H   PRO A   1       9.708   0.386  21.260  0.00  0.00    +0.165 HD
ATOM      4  CD  PRO A   1      10.148   2.178  22.367  0.00  0.00    +0.083 A 
ATOM      5  CG  PRO A   1      10.531   2.320  23.685  0.00  0.00    +0.019 A 
ATOM      6  CB  PRO A   1      10.602   1.023  24.252  0.00  0.00    +0.029 A 
ENDROOT
BRANCH   1   8
ATOM      7  O   PRO A   1       9.658  -1.847  24.354  0.00  0.00    -0.543 OA
ATOM      8  C   PRO A   1      10.177  -1.334  23.320  0.00  0.00    +0.088 C 
ATOM      9  OXT PRO A   1      10.646  -1.935  22.305  0.00  0.00    -0.543 OA
ENDBRANCH   1   8
TORSDOF 1
ENDMDL
MODEL 4
REMARK VINA RESULT:      -3.5      8.765      9.625
REMARK  Name = 
REMARK  1 active torsions:
REMARK  status: ('A' for Active; 'I' for Inactive)
REMARK    1  A    between atoms: C_2  and  CA_4
REMARK                            x       y       z     vdW  Elec       q    Type
REMARK                         _______ _______ _______ _____ _____    ______ ____
ROOT
ATOM      1  CA  PRO A   1       7.335  -5.442  26.346  0.00  0.00    +0.062 A 
ATOM      2  N   PRO A   1       8.667  -5.742  26.441  0.00  0.00    -0.360 N 
ATOM      3  H   PRO A   1       9.057  -6.205  27.253  0.00  0.00    +0.165 HD
ATOM      4  CD  PRO A   1       9.313  -5.322  25.308  0.00  0.00    +0.083 A 
ATOM      5  CG  PRO A   1       8.373  -4.747  24.478  0.00  0.00    +0.019 A 
ATOM      6  CB  PRO A   1       7.118  -4.822  25.135  0.00  0.00    +0.029 A 
ENDROOT
BRANCH   1   8
ATOM      7  O   PRO A   1       5.613  -6.759  27.223  0.00  0.00    -0.543 OA
ATOM      8  C   PRO A   1       6.373  -5.764  27.407  0.00  0.00    +0.088 C 
ATOM      9  OXT PRO A   1       6.412  -4.991  28.413  0.00  0.00    -0.543 OA
ENDBRANCH   1   8
TORSDOF 1
ENDMDL
MODEL 5
REMARK VINA RESULT:      -3.5      1.679      2.396
REMARK  Name = 
REMARK  1 active torsions:
REMARK  status: ('A' for Active; 'I' for Inactive)
REMARK    1  A    between atoms: C_2  and  CA_4
REMARK                            x       y       z     vdW  Elec       q    Type
REMARK                         _______ _______ _______ _____ _____    ______ ____
ROOT
ATOM      1  CA  PRO A   1       9.990   1.057  22.996  0.00  0.00    +0.062 A 
ATOM      2  N   PRO A   1      10.437  -0.149  23.459  0.00  0.00    -0.360 N 
ATOM      3  H   PRO A   1      10.879  -0.247  24.366  0.00  0.00    +0.165 HD
ATOM      4  CD  PRO A   1      10.187  -1.120  22.525  0.00  0.00    +0.083 A 
ATOM      5  CG  PRO A   1       9.568  -0.517  21.450  0.00  0.00    +0.019 A 
ATOM      6  CB  PRO A   1       9.443   0.863  21.747  0.00  0.00    +0.029 A 
ENDROOT
BRANCH   1   8
ATOM      7  O   PRO A   1       9.248   2.522  24.661  0.00  0.00    -0.543 OA
ATOM      8  C   PRO A   1      10.117   2.300  23.768  0.00  0.00    +0.088 C 
ATOM      9  OXT PRO A   1      11.106   3.027  23.447  0.00  0.00    -0.543 OA
ENDBRANCH   1   8
TORSDOF 1
ENDMDL
MODEL 6
REMARK VINA RESULT:      -3.5      8.305      8.894
REMARK  Name = 
REMARK  1 active torsions:
REMARK  status: ('A' for Active; 'I' for Inactive)
REMARK    1  A    between atoms: C_2  and  CA_4
REMARK                            x       y       z     vdW  Elec       q    Type
REMARK                         _______ _______ _______ _____ _____    ______ ____
ROOT
ATOM      1  CA  PRO A   1       7.453  -5.188  25.447  0.00  0.00    +0.062 A 
ATOM      2  N   PRO A   1       8.226  -5.081  24.323  0.00  0.00    -0.360 N 
ATOM      3  H   PRO A   1       9.230  -4.955  24.371  0.00  0.00    +0.165 HD
ATOM      4  CD  PRO A   1       7.432  -5.172  23.210  0.00  0.00    +0.083 A 
ATOM      5  CG  PRO A   1       6.131  -5.342  23.637  0.00  0.00    +0.019 A 
ATOM      6  CB  PRO A   1       6.143  -5.352  25.054  0.00  0.00    +0.029 A 
ENDROOT
BRANCH   1   8
ATOM      7  O   PRO A   1       7.435  -5.800  27.704  0.00  0.00    -0.543 OA
ATOM      8  C   PRO A   1       8.013  -5.126  26.803  0.00  0.00    +0.088 C 
ATOM      9  OXT PRO A   1       9.038  -4.387  26.921  0.00  0.00    -0.543 OA
ENDBRANCH   1   8
TORSDOF 1
ENDMDL
MODEL 7
REMARK VINA RESULT:      -3.4      4.531      5.325
REMARK  Name = 
REMARK  1 active torsions:
REMARK  status: ('A' for Active; 'I' for Inactive)
REMARK    1  A    between atoms: C_2  and  CA_4
REMARK                            x       y       z     vdW  Elec       q    Type
REMARK                         _______ _______ _______ _____ _____    ______ ____
ROOT
ATOM      1  CA  PRO A   1       9.456  -1.654  23.304  0.00  0.00    +0.062 A 
ATOM      2  N   PRO A   1       9.912  -0.494  23.867  0.00  0.00    -0.360 N 
ATOM      3  H   PRO A   1      10.067  -0.405  24.864  0.00  0.00    +0.165 HD
ATOM      4  CD  PRO A   1      10.101   0.447  22.889  0.00  0.00    +0.083 A 
ATOM      5  CG  PRO A   1       9.760  -0.128  21.682  0.00  0.00    +0.019 A 
ATOM      6  CB  PRO A   1       9.351  -1.460  21.944  0.00  0.00    +0.029 A 
ENDROOT
BRANCH   1   8
ATOM      7  O   PRO A   1      10.081  -3.703  24.241  0.00  0.00    -0.543 OA
ATOM      8  C   PRO A   1       9.155  -2.854  24.094  0.00  0.00    +0.088 C 
ATOM      9  OXT PRO A   1       7.972  -2.906  24.552  0.00  0.00    -0.543 OA
ENDBRANCH   1   8
TORSDOF 1
ENDMDL
MODEL 8
REMARK VINA RESULT:      -3.4      7.808      8.611
REMARK  Name = 
REMARK  1 active torsions:
REMARK  status: ('A' for Active; 'I' for Inactive)
REMARK    1  A    between atoms: C_2  and  CA_4
REMARK                            x       y       z     vdW  Elec       q    Type
REMARK                         _______ _______ _______ _____ _____    ______ ____
ROOT
ATOM      1  CA  PRO A   1       7.273  -5.208  23.302  0.00  0.00    +0.062 A 
ATOM      2  N   PRO A   1       5.937  -5.046  23.551  0.00  0.00    -0.360 N 
ATOM      3  H   PRO A   1       5.597  -4.629  24.409  0.00  0.00    +0.165 HD
ATOM      4  CD  PRO A   1       5.212  -5.526  22.492  0.00  0.00    +0.083 A 
ATOM      5  CG  PRO A   1       6.105  -5.998  21.552  0.00  0.00    +0.019 A 
ATOM      6  CB  PRO A   1       7.412  -5.798  22.065  0.00  0.00    +0.029 A 
ENDROOT
BRANCH   1   8
ATOM      7  O   PRO A   1       9.302  -5.567  24.407  0.00  0.00    -0.543 OA
ATOM      8  C   PRO A   1       8.312  -4.794  24.253  0.00  0.00    +0.088 C 
ATOM      9  OXT PRO A   1       8.097  -3.682  24.825  0.00  0.00    -0.543 OA
ENDBRANCH   1   8
TORSDOF 1
ENDMDL
MODEL 9
REMARK VINA RESULT:      -3.4      2.234      3.626
REMARK  Name = 
REMARK  1 active torsions:
REMARK  status: ('A' for Active; 'I' for Inactive)
REMARK    1  A    between atoms: C_2  and  CA_4
REMARK                            x       y       z     vdW  Elec       q    Type
REMARK                         _______ _______ _______ _____ _____    ______ ____
ROOT
ATOM      1  CA  PRO A   1      10.618   3.672  23.433  0.00  0.00    +0.062 A 
ATOM      2  N   PRO A   1      11.814   4.267  23.142  0.00  0.00    -0.360 N 
ATOM      3  H   PRO A   1      12.598   3.745  22.767  0.00  0.00    +0.165 HD
ATOM      4  CD  PRO A   1      11.745   5.603  23.437  0.00  0.00    +0.083 A 
ATOM      5  CG  PRO A   1      10.480   5.860  23.923  0.00  0.00    +0.019 A 
ATOM      6  CB  PRO A   1       9.764   4.636  23.921  0.00  0.00    +0.029 A 
ENDROOT
BRANCH   1   8
ATOM      7  O   PRO A   1      10.187   1.842  22.042  0.00  0.00    -0.543 OA
ATOM      8  C   PRO A   1      10.376   2.238  23.229  0.00  0.00    +0.088 C 
ATOM      9  OXT PRO A   1      10.383   1.541  24.290  0.00  0.00    -0.543 OA
ENDBRANCH   1   8
TORSDOF 1
ENDMDL
