MODEL 1
REMARK VINA RESULT:      -5.4      0.000      0.000
REMARK  Name = 
REMARK  6 active torsions:
REMARK  status: ('A' for Active; 'I' for Inactive)
REMARK    1  A    between atoms: N_1  and  CA_2
REMARK    2  A    between atoms: CA_2  and  C_4
REMARK    3  A    between atoms: CA_2  and  C_13
REMARK    4  A    between atoms: C_4  and  N_5
REMARK    5  A    between atoms: C_10  and  O_11
REMARK    6  A    between atoms: C_13  and  O_14
REMARK                            x       y       z     vdW  Elec       q    Type
REMARK                         _______ _______ _______ _____ _____    ______ ____
ROOT
ATOM      1  C   UNL     1       8.568  -3.926  24.163  0.00  0.00    +0.151 C 
ENDROOT
BRANCH   1   2
ATOM      2  N   UNL     1       8.997  -2.572  23.739  0.00  0.00    -0.348 N 
ATOM      3  C   UNL     1       9.494  -1.664  24.673  0.00  0.00    +0.135 A 
ATOM      4  C   UNL     1       9.927  -0.432  24.378  0.00  0.00    +0.180 A 
ATOM      5  C   UNL     1       9.880  -0.006  22.947  0.00  0.00    +0.223 A 
ATOM      6  O   UNL     1      10.287   1.106  22.619  0.00  0.00    -0.284 OA
ATOM      7  C   UNL     1       9.325  -0.966  21.965  0.00  0.00    +0.072 A 
ATOM      8  C   UNL     1       8.920  -2.161  22.412  0.00  0.00    +0.089 A 
BRANCH   4   9
ATOM      9  O   UNL     1      10.409   0.444  25.324  0.00  0.00    -0.502 OA
ATOM     10  H   UNL     1       9.854   0.286  26.117  0.00  0.00    +0.292 HD
ENDBRANCH   4   9
ENDBRANCH   1   2
BRANCH   1  11
ATOM     11  CA  UNL     1       9.299  -4.364  25.448  0.00  0.00    +0.180 C 
BRANCH  11  12
ATOM     12  N   UNL     1      10.184  -5.568  25.287  0.00  0.00    -0.317 NA
ATOM     13  H1  UNL     1      10.996  -5.289  24.726  0.00  0.00    +0.119 HD
ATOM     14  H2  UNL     1      10.589  -5.746  26.216  0.00  0.00    +0.119 HD
ENDBRANCH  11  12
BRANCH  11  15
ATOM     15  C   UNL     1       8.277  -4.673  26.544  0.00  0.00    +0.323 C 
ATOM     16  OXT UNL     1       7.582  -3.850  27.118  0.00  0.00    -0.249 OA
BRANCH  15  17
ATOM     17  O   UNL     1       8.251  -6.003  26.827  0.00  0.00    -0.479 OA
ATOM     18  H   UNL     1       8.963  -6.418  26.278  0.00  0.00    +0.295 HD
ENDBRANCH  15  17
ENDBRANCH  11  15
ENDBRANCH   1  11
TORSDOF 6
ENDMDL
MODEL 2
REMARK VINA RESULT:      -5.4      0.994      1.980
REMARK  Name = 
REMARK  6 active torsions:
REMARK  status: ('A' for Active; 'I' for Inactive)
REMARK    1  A    between atoms: N_1  and  CA_2
REMARK    2  A    between atoms: CA_2  and  C_4
REMARK    3  A    between atoms: CA_2  and  C_13
REMARK    4  A    between atoms: C_4  and  N_5
REMARK    5  A    between atoms: C_10  and  O_11
REMARK    6  A    between atoms: C_13  and  O_14
REMARK                            x       y       z     vdW  Elec       q    Type
REMARK                         _______ _______ _______ _____ _____    ______ ____
ROOT
ATOM      1  C   UNL     1       8.279  -4.115  24.080  0.00  0.00    +0.151 C 
ENDROOT
BRANCH   1   2
ATOM      2  N   UNL     1       8.841  -2.771  23.802  0.00  0.00    -0.348 N 
ATOM      3  C   UNL     1       8.946  -2.308  22.492  0.00  0.00    +0.135 A 
ATOM      4  C   UNL     1       9.417  -1.102  22.149  0.00  0.00    +0.180 A 
ATOM      5  C   UNL     1       9.851  -0.190  23.249  0.00  0.00    +0.223 A 
ATOM      6  O   UNL     1      10.268   0.937  22.991  0.00  0.00    -0.284 OA
ATOM      7  C   UNL     1       9.762  -0.700  24.637  0.00  0.00    +0.072 A 
ATOM      8  C   UNL     1       9.280  -1.935  24.824  0.00  0.00    +0.089 A 
BRANCH   4   9
ATOM      9  O   UNL     1       9.511  -0.673  20.844  0.00  0.00    -0.502 OA
ATOM     10  H   UNL     1       8.583  -0.596  20.538  0.00  0.00    +0.292 HD
ENDBRANCH   4   9
ENDBRANCH   1   2
BRANCH   1  11
ATOM     11  CA  UNL     1       8.816  -4.678  25.411  0.00  0.00    +0.180 C 
BRANCH  11  12
ATOM     12  N   UNL     1       9.958  -5.644  25.270  0.00  0.00    -0.317 NA
ATOM     13  H1  UNL     1       9.887  -6.082  24.345  0.00  0.00    +0.119 HD
ATOM     14  H2  UNL     1      10.807  -5.067  25.193  0.00  0.00    +0.119 HD
ENDBRANCH  11  12
BRANCH  11  15
ATOM     15  C   UNL     1       7.688  -5.387  26.164  0.00  0.00    +0.323 C 
ATOM     16  OXT UNL     1       6.559  -5.570  25.741  0.00  0.00    -0.249 OA
BRANCH  15  17
ATOM     17  O   UNL     1       8.098  -5.777  27.401  0.00  0.00    -0.479 OA
ATOM     18  H   UNL     1       7.489  -5.338  28.047  0.00  0.00    +0.295 HD
ENDBRANCH  15  17
ENDBRANCH  11  15
ENDBRANCH   1  11
TORSDOF 6
ENDMDL
MODEL 3
REMARK VINA RESULT:      -5.1      1.604      1.923
REMARK  Name = 
REMARK  6 active torsions:
REMARK  status: ('A' for Active; 'I' for Inactive)
REMARK    1  A    between atoms: N_1  and  CA_2
REMARK    2  A    between atoms: CA_2  and  C_4
REMARK    3  A    between atoms: CA_2  and  C_13
REMARK    4  A    between atoms: C_4  and  N_5
REMARK    5  A    between atoms: C_10  and  O_11
REMARK    6  A    between atoms: C_13  and  O_14
REMARK                            x       y       z     vdW  Elec       q    Type
REMARK                         _______ _______ _______ _____ _____    ______ ____
ROOT
ATOM      1  C   UNL     1       8.357  -4.369  23.943  0.00  0.00    +0.151 C 
ENDROOT
BRANCH   1   2
ATOM      2  N   UNL     1       8.545  -2.921  23.683  0.00  0.00    -0.348 N 
ATOM      3  C   UNL     1       7.449  -2.107  23.402  0.00  0.00    +0.135 A 
ATOM      4  C   UNL     1       7.520  -0.788  23.179  0.00  0.00    +0.180 A 
ATOM      5  C   UNL     1       8.868  -0.147  23.245  0.00  0.00    +0.223 A 
ATOM      6  O   UNL     1       8.986   1.064  23.072  0.00  0.00    -0.284 OA
ATOM      7  C   UNL     1      10.031  -1.023  23.517  0.00  0.00    +0.072 A 
ATOM      8  C   UNL     1       9.804  -2.329  23.709  0.00  0.00    +0.089 A 
BRANCH   4   9
ATOM      9  O   UNL     1       6.419  -0.010  22.900  0.00  0.00    -0.502 OA
ATOM     10  H   UNL     1       6.451   0.128  21.930  0.00  0.00    +0.292 HD
ENDBRANCH   4   9
ENDBRANCH   1   2
BRANCH   1  11
ATOM     11  CA  UNL     1       8.856  -4.750  25.351  0.00  0.00    +0.180 C 
BRANCH  11  12
ATOM     12  N   UNL     1      10.022  -5.698  25.368  0.00  0.00    -0.317 NA
ATOM     13  H1  UNL     1       9.785  -6.500  24.773  0.00  0.00    +0.119 HD
ATOM     14  H2  UNL     1      10.774  -5.230  24.844  0.00  0.00    +0.119 HD
ENDBRANCH  11  12
BRANCH  11  15
ATOM     15  C   UNL     1       7.716  -5.389  26.147  0.00  0.00    +0.323 C 
ATOM     16  OXT UNL     1       6.565  -5.513  25.763  0.00  0.00    -0.249 OA
BRANCH  15  17
ATOM     17  O   UNL     1       8.144  -5.790  27.374  0.00  0.00    -0.479 OA
ATOM     18  H   UNL     1       9.000  -5.319  27.539  0.00  0.00    +0.295 HD
ENDBRANCH  15  17
ENDBRANCH  11  15
ENDBRANCH   1  11
TORSDOF 6
ENDMDL
MODEL 4
REMARK VINA RESULT:      -5.0      1.710      5.484
REMARK  Name = 
REMARK  6 active torsions:
REMARK  status: ('A' for Active; 'I' for Inactive)
REMARK    1  A    between atoms: N_1  and  CA_2
REMARK    2  A    between atoms: CA_2  and  C_4
REMARK    3  A    between atoms: CA_2  and  C_13
REMARK    4  A    between atoms: C_4  and  N_5
REMARK    5  A    between atoms: C_10  and  O_11
REMARK    6  A    between atoms: C_13  and  O_14
REMARK                            x       y       z     vdW  Elec       q    Type
REMARK                         _______ _______ _______ _____ _____    ______ ____
ROOT
ATOM      1  C   UNL     1       8.473  -1.165  24.181  0.00  0.00    +0.151 C 
ENDROOT
BRANCH   1   2
ATOM      2  N   UNL     1       8.301  -2.421  24.952  0.00  0.00    -0.348 N 
ATOM      3  C   UNL     1       9.194  -3.479  24.785  0.00  0.00    +0.135 A 
ATOM      4  C   UNL     1       9.131  -4.637  25.454  0.00  0.00    +0.180 A 
ATOM      5  C   UNL     1       8.032  -4.801  26.452  0.00  0.00    +0.223 A 
ATOM      6  O   UNL     1       7.943  -5.835  27.110  0.00  0.00    -0.284 OA
ATOM      7  C   UNL     1       7.071  -3.683  26.604  0.00  0.00    +0.072 A 
ATOM      8  C   UNL     1       7.257  -2.589  25.855  0.00  0.00    +0.089 A 
BRANCH   4   9
ATOM      9  O   UNL     1      10.026  -5.666  25.265  0.00  0.00    -0.502 OA
ATOM     10  H   UNL     1       9.754  -6.354  25.909  0.00  0.00    +0.292 HD
ENDBRANCH   4   9
ENDBRANCH   1   2
BRANCH   1  11
ATOM     11  CA  UNL     1       9.957  -0.918  23.846  0.00  0.00    +0.180 C 
BRANCH  11  12
ATOM     12  N   UNL     1      10.622   0.139  24.681  0.00  0.00    -0.317 NA
ATOM     13  H1  UNL     1      11.530   0.353  24.254  0.00  0.00    +0.119 HD
ATOM     14  H2  UNL     1      10.080   1.000  24.529  0.00  0.00    +0.119 HD
ENDBRANCH  11  12
BRANCH  11  15
ATOM     15  C   UNL     1      10.093  -0.514  22.376  0.00  0.00    +0.323 C 
ATOM     16  OXT UNL     1      10.047   0.627  21.947  0.00  0.00    -0.249 OA
BRANCH  15  17
ATOM     17  O   UNL     1      10.251  -1.607  21.582  0.00  0.00    -0.479 OA
ATOM     18  H   UNL     1      10.296  -1.271  20.652  0.00  0.00    +0.295 HD
ENDBRANCH  15  17
ENDBRANCH  11  15
ENDBRANCH   1  11
TORSDOF 6
ENDMDL
MODEL 5
REMARK VINA RESULT:      -5.0      3.676      5.330
REMARK  Name = 
REMARK  6 active torsions:
REMARK  status: ('A' for Active; 'I' for Inactive)
REMARK    1  A    between atoms: N_1  and  CA_2
REMARK    2  A    between atoms: CA_2  and  C_4
REMARK    3  A    between atoms: CA_2  and  C_13
REMARK    4  A    between atoms: C_4  and  N_5
REMARK    5  A    between atoms: C_10  and  O_11
REMARK    6  A    between atoms: C_13  and  O_14
REMARK                            x       y       z     vdW  Elec       q    Type
REMARK                         _______ _______ _______ _____ _____    ______ ____
ROOT
ATOM      1  C   UNL     1       6.477  -4.693  25.868  0.00  0.00    +0.151 C 
ENDROOT
BRANCH   1   2
ATOM      2  N   UNL     1       6.309  -5.044  24.437  0.00  0.00    -0.348 N 
ATOM      3  C   UNL     1       5.089  -5.530  23.969  0.00  0.00    +0.135 A 
ATOM      4  C   UNL     1       4.838  -5.848  22.693  0.00  0.00    +0.180 A 
ATOM      5  C   UNL     1       5.942  -5.662  21.703  0.00  0.00    +0.223 A 
ATOM      6  O   UNL     1       5.758  -5.917  20.515  0.00  0.00    -0.284 OA
ATOM      7  C   UNL     1       7.244  -5.172  22.213  0.00  0.00    +0.072 A 
ATOM      8  C   UNL     1       7.347  -4.906  23.521  0.00  0.00    +0.089 A 
BRANCH   4   9
ATOM      9  O   UNL     1       3.623  -6.329  22.260  0.00  0.00    -0.502 OA
ATOM     10  H   UNL     1       3.536  -5.998  21.341  0.00  0.00    +0.292 HD
ENDBRANCH   4   9
ENDBRANCH   1   2
BRANCH   1  11
ATOM     11  CA  UNL     1       7.720  -5.382  26.467  0.00  0.00    +0.180 C 
BRANCH  11  12
ATOM     12  N   UNL     1       7.503  -6.004  27.817  0.00  0.00    -0.317 NA
ATOM     13  H1  UNL     1       8.325  -5.797  28.395  0.00  0.00    +0.119 HD
ATOM     14  H2  UNL     1       6.756  -5.455  28.263  0.00  0.00    +0.119 HD
ENDBRANCH  11  12
BRANCH  11  15
ATOM     15  C   UNL     1       8.862  -4.370  26.590  0.00  0.00    +0.323 C 
ATOM     16  OXT UNL     1       8.738  -3.157  26.582  0.00  0.00    -0.249 OA
BRANCH  15  17
ATOM     17  O   UNL     1      10.063  -5.001  26.689  0.00  0.00    -0.479 OA
ATOM     18  H   UNL     1       9.888  -5.865  27.139  0.00  0.00    +0.295 HD
ENDBRANCH  15  17
ENDBRANCH  11  15
ENDBRANCH   1  11
TORSDOF 6
ENDMDL
MODEL 6
REMARK VINA RESULT:      -5.0      2.492      5.567
REMARK  Name = 
REMARK  6 active torsions:
REMARK  status: ('A' for Active; 'I' for Inactive)
REMARK    1  A    between atoms: N_1  and  CA_2
REMARK    2  A    between atoms: CA_2  and  C_4
REMARK    3  A    between atoms: CA_2  and  C_13
REMARK    4  A    between atoms: C_4  and  N_5
REMARK    5  A    between atoms: C_10  and  O_11
REMARK    6  A    between atoms: C_13  and  O_14
REMARK                            x       y       z     vdW  Elec       q    Type
REMARK                         _______ _______ _______ _____ _____    ______ ____
ROOT
ATOM      1  C   UNL     1       8.666   0.140  23.961  0.00  0.00    +0.151 C 
ENDROOT
BRANCH   1   2
ATOM      2  N   UNL     1       8.414  -1.311  23.790  0.00  0.00    -0.348 N 
ATOM      3  C   UNL     1       9.307  -2.248  24.306  0.00  0.00    +0.135 A 
ATOM      4  C   UNL     1       9.149  -3.575  24.220  0.00  0.00    +0.180 A 
ATOM      5  C   UNL     1       7.925  -4.083  23.530  0.00  0.00    +0.223 A 
ATOM      6  O   UNL     1       7.719  -5.291  23.445  0.00  0.00    -0.284 OA
ATOM      7  C   UNL     1       6.994  -3.081  22.960  0.00  0.00    +0.072 A 
ATOM      8  C   UNL     1       7.293  -1.785  23.116  0.00  0.00    +0.089 A 
BRANCH   4   9
ATOM      9  O   UNL     1      10.051  -4.477  24.738  0.00  0.00    -0.502 OA
ATOM     10  H   UNL     1       9.522  -5.281  24.922  0.00  0.00    +0.292 HD
ENDBRANCH   4   9
ENDBRANCH   1   2
BRANCH   1  11
ATOM     11  CA  UNL     1      10.001   0.553  23.310  0.00  0.00    +0.180 C 
BRANCH  11  12
ATOM     12  N   UNL     1      10.746   1.636  24.039  0.00  0.00    -0.317 NA
ATOM     13  H1  UNL     1      10.145   1.976  24.798  0.00  0.00    +0.119 HD
ATOM     14  H2  UNL     1      11.513   1.164  24.537  0.00  0.00    +0.119 HD
ENDBRANCH  11  12
BRANCH  11  15
ATOM     15  C   UNL     1       9.750   1.033  21.879  0.00  0.00    +0.323 C 
ATOM     16  OXT UNL     1       9.172   0.402  21.010  0.00  0.00    -0.249 OA
BRANCH  15  17
ATOM     17  O   UNL     1      10.284   2.268  21.678  0.00  0.00    -0.479 OA
ATOM     18  H   UNL     1       9.549   2.916  21.818  0.00  0.00    +0.295 HD
ENDBRANCH  15  17
ENDBRANCH  11  15
ENDBRANCH   1  11
TORSDOF 6
ENDMDL
MODEL 7
REMARK VINA RESULT:      -5.0      2.226      3.211
REMARK  Name = 
REMARK  6 active torsions:
REMARK  status: ('A' for Active; 'I' for Inactive)
REMARK    1  A    between atoms: N_1  and  CA_2
REMARK    2  A    between atoms: CA_2  and  C_4
REMARK    3  A    between atoms: CA_2  and  C_13
REMARK    4  A    between atoms: C_4  and  N_5
REMARK    5  A    between atoms: C_10  and  O_11
REMARK    6  A    between atoms: C_13  and  O_14
REMARK                            x       y       z     vdW  Elec       q    Type
REMARK                         _______ _______ _______ _____ _____    ______ ____
ROOT
ATOM      1  C   UNL     1      10.054  -2.257  23.056  0.00  0.00    +0.151 C 
ENDROOT
BRANCH   1   2
ATOM      2  N   UNL     1       9.981  -0.807  23.362  0.00  0.00    -0.348 N 
ATOM      3  C   UNL     1      10.059   0.135  22.337  0.00  0.00    +0.135 A 
ATOM      4  C   UNL     1       9.977   1.459  22.517  0.00  0.00    +0.180 A 
ATOM      5  C   UNL     1       9.782   1.958  23.911  0.00  0.00    +0.223 A 
ATOM      6  O   UNL     1       9.677   3.163  24.128  0.00  0.00    -0.284 OA
ATOM      7  C   UNL     1       9.728   0.952  24.997  0.00  0.00    +0.072 A 
ATOM      8  C   UNL     1       9.836  -0.340  24.664  0.00  0.00    +0.089 A 
BRANCH   4   9
ATOM      9  O   UNL     1      10.061   2.366  21.484  0.00  0.00    -0.502 OA
ATOM     10  H   UNL     1      10.111   3.241  21.925  0.00  0.00    +0.292 HD
ENDBRANCH   4   9
ENDBRANCH   1   2
BRANCH   1  11
ATOM     11  CA  UNL     1       9.144  -3.070  23.997  0.00  0.00    +0.180 C 
BRANCH  11  12
ATOM     12  N   UNL     1       9.823  -4.219  24.688  0.00  0.00    -0.317 NA
ATOM     13  H1  UNL     1       9.201  -4.551  25.433  0.00  0.00    +0.119 HD
ATOM     14  H2  UNL     1       9.819  -4.996  24.013  0.00  0.00    +0.119 HD
ENDBRANCH  11  12
BRANCH  11  15
ATOM     15  C   UNL     1       7.955  -3.628  23.211  0.00  0.00    +0.323 C 
ATOM     16  OXT UNL     1       7.511  -4.759  23.305  0.00  0.00    -0.249 OA
BRANCH  15  17
ATOM     17  O   UNL     1       7.456  -2.695  22.357  0.00  0.00    -0.479 OA
ATOM     18  H   UNL     1       8.133  -1.975  22.303  0.00  0.00    +0.295 HD
ENDBRANCH  15  17
ENDBRANCH  11  15
ENDBRANCH   1  11
TORSDOF 6
ENDMDL
MODEL 8
REMARK VINA RESULT:      -5.0      1.692      2.407
REMARK  Name = 
REMARK  6 active torsions:
REMARK  status: ('A' for Active; 'I' for Inactive)
REMARK    1  A    between atoms: N_1  and  CA_2
REMARK    2  A    between atoms: CA_2  and  C_4
REMARK    3  A    between atoms: CA_2  and  C_13
REMARK    4  A    between atoms: C_4  and  N_5
REMARK    5  A    between atoms: C_10  and  O_11
REMARK    6  A    between atoms: C_13  and  O_14
REMARK                            x       y       z     vdW  Elec       q    Type
REMARK                         _______ _______ _______ _____ _____    ______ ____
ROOT
ATOM      1  C   UNL     1       8.513  -2.642  25.911  0.00  0.00    +0.151 C 
ENDROOT
BRANCH   1   2
ATOM      2  N   UNL     1       9.021  -1.630  24.953  0.00  0.00    -0.348 N 
ATOM      3  C   UNL     1       9.375  -2.001  23.657  0.00  0.00    +0.135 A 
ATOM      4  C   UNL     1       9.818  -1.153  22.720  0.00  0.00    +0.180 A 
ATOM      5  C   UNL     1       9.935   0.289  23.090  0.00  0.00    +0.223 A 
ATOM      6  O   UNL     1      10.314   1.113  22.261  0.00  0.00    -0.284 OA
ATOM      7  C   UNL     1       9.583   0.670  24.478  0.00  0.00    +0.072 A 
ATOM      8  C   UNL     1       9.164  -0.293  25.308  0.00  0.00    +0.089 A 
BRANCH   4   9
ATOM      9  O   UNL     1      10.163  -1.550  21.447  0.00  0.00    -0.502 OA
ATOM     10  H   UNL     1      10.080  -2.527  21.459  0.00  0.00    +0.292 HD
ENDBRANCH   4   9
ENDBRANCH   1   2
BRANCH   1  11
ATOM     11  CA  UNL     1       8.144  -3.954  25.189  0.00  0.00    +0.180 C 
BRANCH  11  12
ATOM     12  N   UNL     1       6.746  -4.441  25.448  0.00  0.00    -0.317 NA
ATOM     13  H1  UNL     1       6.753  -4.964  26.330  0.00  0.00    +0.119 HD
ATOM     14  H2  UNL     1       6.193  -3.603  25.674  0.00  0.00    +0.119 HD
ENDBRANCH  11  12
BRANCH  11  15
ATOM     15  C   UNL     1       9.114  -5.062  25.605  0.00  0.00    +0.323 C 
ATOM     16  OXT UNL     1      10.249  -5.208  25.180  0.00  0.00    -0.249 OA
BRANCH  15  17
ATOM     17  O   UNL     1       8.539  -5.900  26.509  0.00  0.00    -0.479 OA
ATOM     18  H   UNL     1       8.173  -6.660  25.991  0.00  0.00    +0.295 HD
ENDBRANCH  15  17
ENDBRANCH  11  15
ENDBRANCH   1  11
TORSDOF 6
ENDMDL
MODEL 9
REMARK VINA RESULT:      -4.9      1.539      5.300
REMARK  Name = 
REMARK  6 active torsions:
REMARK  status: ('A' for Active; 'I' for Inactive)
REMARK    1  A    between atoms: N_1  and  CA_2
REMARK    2  A    between atoms: CA_2  and  C_4
REMARK    3  A    between atoms: CA_2  and  C_13
REMARK    4  A    between atoms: C_4  and  N_5
REMARK    5  A    between atoms: C_10  and  O_11
REMARK    6  A    between atoms: C_13  and  O_14
REMARK                            x       y       z     vdW  Elec       q    Type
REMARK                         _______ _______ _______ _____ _____    ______ ____
ROOT
ATOM      1  C   UNL     1       9.921  -2.778  24.002  0.00  0.00    +0.151 C 
ENDROOT
BRANCH   1   2
ATOM      2  N   UNL     1       8.828  -3.669  24.460  0.00  0.00    -0.348 N 
ATOM      3  C   UNL     1       8.923  -4.331  25.683  0.00  0.00    +0.135 A 
ATOM      4  C   UNL     1       7.976  -5.133  26.187  0.00  0.00    +0.180 A 
ATOM      5  C   UNL     1       6.731  -5.325  25.385  0.00  0.00    +0.223 A 
ATOM      6  O   UNL     1       5.822  -6.032  25.812  0.00  0.00    -0.284 OA
ATOM      7  C   UNL     1       6.650  -4.640  24.074  0.00  0.00    +0.072 A 
ATOM      8  C   UNL     1       7.683  -3.877  23.697  0.00  0.00    +0.089 A 
BRANCH   4   9
ATOM      9  O   UNL     1       8.100  -5.777  27.399  0.00  0.00    -0.502 OA
ATOM     10  H   UNL     1       7.611  -5.211  28.033  0.00  0.00    +0.292 HD
ENDBRANCH   4   9
ENDBRANCH   1   2
BRANCH   1  11
ATOM     11  CA  UNL     1       9.394  -1.708  23.026  0.00  0.00    +0.180 C 
BRANCH  11  12
ATOM     12  N   UNL     1      10.165  -1.595  21.742  0.00  0.00    -0.317 NA
ATOM     13  H1  UNL     1       9.781  -0.805  21.212  0.00  0.00    +0.119 HD
ATOM     14  H2  UNL     1      11.105  -1.268  22.005  0.00  0.00    +0.119 HD
ENDBRANCH  11  12
BRANCH  11  15
ATOM     15  C   UNL     1       9.407  -0.337  23.707  0.00  0.00    +0.323 C 
ATOM     16  OXT UNL     1       8.691   0.606  23.417  0.00  0.00    -0.249 OA
BRANCH  15  17
ATOM     17  O   UNL     1      10.354  -0.287  24.683  0.00  0.00    -0.479 OA
ATOM     18  H   UNL     1       9.870  -0.132  25.533  0.00  0.00    +0.295 HD
ENDBRANCH  15  17
ENDBRANCH  11  15
ENDBRANCH   1  11
TORSDOF 6
ENDMDL
