MODEL 1
REMARK VINA RESULT:      -7.9      0.000      0.000
REMARK  Name = 
REMARK  7 active torsions:
REMARK  status: ('A' for Active; 'I' for Inactive)
REMARK    1  A    between atoms: C_5  and  C_8
REMARK    2  A    between atoms: C_8  and  C_9
REMARK    3  A    between atoms: C_8  and  C_29
REMARK    4  A    between atoms: C_9  and  C_10
REMARK    5  A    between atoms: C_10  and  C_11
REMARK    6  A    between atoms: C_11  and  N_12
REMARK    7  A    between atoms: N_18  and  C_23
REMARK                            x       y       z     vdW  Elec       q    Type
REMARK                         _______ _______ _______ _____ _____    ______ ____
ROOT
ATOM      1  C   UNL     1       8.692  -0.635  21.934  0.00  0.00    +0.084 C 
ENDROOT
BRANCH   1   2
ATOM      2  N   UNL     1       8.984  -2.032  22.258  0.00  0.00    -0.302 NA
ATOM      3  C   UNL     1       7.766  -2.844  22.378  0.00  0.00    +0.087 C 
ATOM      4  C   UNL     1       7.016  -2.651  23.698  0.00  0.00    +0.051 C 
ATOM      5  C   UNL     1       7.945  -2.854  24.901  0.00  0.00    +0.115 C 
ATOM      6  C   UNL     1       8.272  -4.360  25.018  0.00  0.00    +0.238 C 
ATOM      7  O   UNL     1       8.952  -5.058  24.283  0.00  0.00    -0.273 OA
ATOM      8  N   UNL     1       7.646  -4.850  26.130  0.00  0.00    -0.298 N 
ATOM      9  H   UNL     1       7.745  -5.819  26.397  0.00  0.00    +0.150 HD
ATOM     10  C   UNL     1       6.924  -3.875  26.856  0.00  0.00    +0.214 C 
ATOM     11  N   UNL     1       7.225  -2.612  26.196  0.00  0.00    -0.300 N 
ATOM     12  C   UNL     1       9.266  -2.087  24.773  0.00  0.00    +0.051 C 
ATOM     13  C   UNL     1       9.896  -2.247  23.386  0.00  0.00    +0.087 C 
BRANCH  11  14
ATOM     14  C   UNL     1       6.778  -1.424  26.745  0.00  0.00    +0.032 A 
ATOM     15  C   UNL     1       5.403  -1.155  26.913  0.00  0.00    +0.023 A 
ATOM     16  C   UNL     1       4.925   0.013  27.527  0.00  0.00    +0.002 A 
ATOM     17  C   UNL     1       5.815   0.962  27.995  0.00  0.00    +0.000 A 
ATOM     18  C   UNL     1       7.174   0.754  27.824  0.00  0.00    +0.002 A 
ATOM     19  C   UNL     1       7.637  -0.413  27.195  0.00  0.00    +0.023 A 
ENDBRANCH  11  14
ENDBRANCH   1   2
BRANCH   1  20
ATOM     20  C   UNL     1       9.923   0.282  21.891  0.00  0.00    +0.016 C 
BRANCH  20  21
ATOM     21  C   UNL     1       9.656   1.794  21.838  0.00  0.00    +0.014 C 
BRANCH  21  22
ATOM     22  C   UNL     1       9.262   2.520  23.159  0.00  0.00    +0.049 C 
BRANCH  22  27
ATOM     23  F   UNL     1       3.594   2.774  23.475  0.00  0.00    -0.205 F 
ATOM     24  C   UNL     1       4.932   2.742  23.432  0.00  0.00    +0.123 A 
ATOM     25  C   UNL     1       5.629   1.992  24.367  0.00  0.00    +0.038 A 
ATOM     26  C   UNL     1       7.022   1.953  24.317  0.00  0.00    +0.007 A 
ATOM     27  C   UNL     1       7.735   2.604  23.292  0.00  0.00    -0.040 A 
ATOM     28  C   UNL     1       7.001   3.394  22.385  0.00  0.00    +0.007 A 
ATOM     29  C   UNL     1       5.606   3.466  22.458  0.00  0.00    +0.038 A 
ENDBRANCH  22  27
BRANCH  22  30
ATOM     30  C   UNL     1      10.100   3.764  23.511  0.00  0.00    -0.040 A 
ATOM     31  C   UNL     1      11.484   3.766  23.239  0.00  0.00    +0.007 A 
ATOM     32  C   UNL     1      12.293   4.867  23.536  0.00  0.00    +0.038 A 
ATOM     33  C   UNL     1      11.727   5.989  24.119  0.00  0.00    +0.123 A 
ATOM     34  F   UNL     1      12.492   7.055  24.392  0.00  0.00    -0.205 F 
ATOM     35  C   UNL     1      10.380   6.014  24.435  0.00  0.00    +0.038 A 
ATOM     36  C   UNL     1       9.581   4.899  24.162  0.00  0.00    +0.007 A 
ENDBRANCH  22  30
ENDBRANCH  21  22
ENDBRANCH  20  21
ENDBRANCH   1  20
TORSDOF 7
ENDMDL
MODEL 2
REMARK VINA RESULT:      -7.7      3.976      6.130
REMARK  Name = 
REMARK  7 active torsions:
REMARK  status: ('A' for Active; 'I' for Inactive)
REMARK    1  A    between atoms: C_5  and  C_8
REMARK    2  A    between atoms: C_8  and  C_9
REMARK    3  A    between atoms: C_8  and  C_29
REMARK    4  A    between atoms: C_9  and  C_10
REMARK    5  A    between atoms: C_10  and  C_11
REMARK    6  A    between atoms: C_11  and  N_12
REMARK    7  A    between atoms: N_18  and  C_23
REMARK                            x       y       z     vdW  Elec       q    Type
REMARK                         _______ _______ _______ _____ _____    ______ ____
ROOT
ATOM      1  C   UNL     1       4.913  -4.086  22.854  0.00  0.00    +0.084 C 
ENDROOT
BRANCH   1   2
ATOM      2  N   UNL     1       4.372  -5.446  22.832  0.00  0.00    -0.302 NA
ATOM      3  C   UNL     1       2.926  -5.477  23.086  0.00  0.00    +0.087 C 
ATOM      4  C   UNL     1       2.549  -5.308  24.560  0.00  0.00    +0.051 C 
ATOM      5  C   UNL     1       3.295  -6.313  25.445  0.00  0.00    +0.115 C 
ATOM      6  C   UNL     1       2.702  -7.718  25.196  0.00  0.00    +0.238 C 
ATOM      7  O   UNL     1       2.782  -8.422  24.202  0.00  0.00    -0.273 OA
ATOM      8  N   UNL     1       2.012  -8.097  26.314  0.00  0.00    -0.298 N 
ATOM      9  H   UNL     1       1.557  -8.997  26.363  0.00  0.00    +0.150 HD
ATOM     10  C   UNL     1       2.056  -7.148  27.362  0.00  0.00    +0.214 C 
ATOM     11  N   UNL     1       2.969  -6.113  26.896  0.00  0.00    -0.300 N 
ATOM     12  C   UNL     1       4.798  -6.372  25.149  0.00  0.00    +0.051 C 
ATOM     13  C   UNL     1       5.090  -6.431  23.646  0.00  0.00    +0.087 C 
BRANCH  11  14
ATOM     14  C   UNL     1       3.342  -5.091  27.749  0.00  0.00    +0.032 A 
ATOM     15  C   UNL     1       2.983  -3.749  27.502  0.00  0.00    +0.023 A 
ATOM     16  C   UNL     1       3.292  -2.702  28.384  0.00  0.00    +0.002 A 
ATOM     17  C   UNL     1       3.983  -2.965  29.554  0.00  0.00    +0.000 A 
ATOM     18  C   UNL     1       4.384  -4.263  29.823  0.00  0.00    +0.002 A 
ATOM     19  C   UNL     1       4.080  -5.298  28.924  0.00  0.00    +0.023 A 
ENDBRANCH  11  14
ENDBRANCH   1   2
BRANCH   1  20
ATOM     20  C   UNL     1       6.310  -3.944  22.236  0.00  0.00    +0.016 C 
BRANCH  20  21
ATOM     21  C   UNL     1       7.047  -2.620  22.491  0.00  0.00    +0.014 C 
BRANCH  21  22
ATOM     22  C   UNL     1       8.323  -2.646  23.385  0.00  0.00    +0.049 C 
BRANCH  22  27
ATOM     23  F   UNL     1       7.216  -5.706  28.043  0.00  0.00    -0.205 F 
ATOM     24  C   UNL     1       7.512  -4.970  26.964  0.00  0.00    +0.123 A 
ATOM     25  C   UNL     1       8.465  -5.427  26.066  0.00  0.00    +0.038 A 
ATOM     26  C   UNL     1       8.767  -4.664  24.938  0.00  0.00    +0.007 A 
ATOM     27  C   UNL     1       8.073  -3.472  24.655  0.00  0.00    -0.040 A 
ATOM     28  C   UNL     1       7.144  -3.013  25.609  0.00  0.00    +0.007 A 
ATOM     29  C   UNL     1       6.868  -3.758  26.761  0.00  0.00    +0.038 A 
ENDBRANCH  22  27
BRANCH  22  30
ATOM     30  C   UNL     1       9.073  -1.307  23.515  0.00  0.00    -0.040 A 
ATOM     31  C   UNL     1       9.184  -0.464  22.389  0.00  0.00    +0.007 A 
ATOM     32  C   UNL     1       9.853   0.763  22.449  0.00  0.00    +0.038 A 
ATOM     33  C   UNL     1      10.430   1.164  23.642  0.00  0.00    +0.123 A 
ATOM     34  F   UNL     1      11.058   2.346  23.713  0.00  0.00    -0.205 F 
ATOM     35  C   UNL     1      10.376   0.351  24.760  0.00  0.00    +0.038 A 
ATOM     36  C   UNL     1       9.730  -0.889  24.687  0.00  0.00    +0.007 A 
ENDBRANCH  22  30
ENDBRANCH  21  22
ENDBRANCH  20  21
ENDBRANCH   1  20
TORSDOF 7
ENDMDL
MODEL 3
REMARK VINA RESULT:      -7.5      4.244      7.985
REMARK  Name = 
REMARK  7 active torsions:
REMARK  status: ('A' for Active; 'I' for Inactive)
REMARK    1  A    between atoms: C_5  and  C_8
REMARK    2  A    between atoms: C_8  and  C_9
REMARK    3  A    between atoms: C_8  and  C_29
REMARK    4  A    between atoms: C_9  and  C_10
REMARK    5  A    between atoms: C_10  and  C_11
REMARK    6  A    between atoms: C_11  and  N_12
REMARK    7  A    between atoms: N_18  and  C_23
REMARK                            x       y       z     vdW  Elec       q    Type
REMARK                         _______ _______ _______ _____ _____    ______ ____
ROOT
ATOM      1  C   UNL     1       7.478  -5.280  26.661  0.00  0.00    +0.084 C 
ENDROOT
BRANCH   1   2
ATOM      2  N   UNL     1       6.771  -4.936  27.896  0.00  0.00    -0.302 NA
ATOM      3  C   UNL     1       6.159  -6.108  28.534  0.00  0.00    +0.087 C 
ATOM      4  C   UNL     1       4.859  -6.570  27.870  0.00  0.00    +0.051 C 
ATOM      5  C   UNL     1       3.858  -5.416  27.741  0.00  0.00    +0.115 C 
ATOM      6  C   UNL     1       3.314  -5.081  29.148  0.00  0.00    +0.238 C 
ATOM      7  O   UNL     1       3.892  -4.571  30.095  0.00  0.00    -0.273 OA
ATOM      8  N   UNL     1       2.004  -5.468  29.205  0.00  0.00    -0.298 N 
ATOM      9  H   UNL     1       1.456  -5.322  30.041  0.00  0.00    +0.150 HD
ATOM     10  C   UNL     1       1.518  -6.019  27.998  0.00  0.00    +0.214 C 
ATOM     11  N   UNL     1       2.604  -5.853  27.042  0.00  0.00    -0.300 N 
ATOM     12  C   UNL     1       4.484  -4.144  27.157  0.00  0.00    +0.051 C 
ATOM     13  C   UNL     1       5.833  -3.813  27.803  0.00  0.00    +0.087 C 
BRANCH  11  14
ATOM     14  C   UNL     1       2.405  -6.171  25.711  0.00  0.00    +0.032 A 
ATOM     15  C   UNL     1       2.527  -7.494  25.237  0.00  0.00    +0.023 A 
ATOM     16  C   UNL     1       2.266  -7.853  23.905  0.00  0.00    +0.002 A 
ATOM     17  C   UNL     1       1.874  -6.890  22.993  0.00  0.00    +0.000 A 
ATOM     18  C   UNL     1       1.770  -5.572  23.407  0.00  0.00    +0.002 A 
ATOM     19  C   UNL     1       2.049  -5.225  24.739  0.00  0.00    +0.023 A 
ENDBRANCH  11  14
ENDBRANCH   1   2
BRANCH   1  20
ATOM     20  C   UNL     1       8.822  -4.563  26.474  0.00  0.00    +0.016 C 
BRANCH  20  21
ATOM     21  C   UNL     1       8.804  -3.267  25.649  0.00  0.00    +0.014 C 
BRANCH  21  22
ATOM     22  C   UNL     1       8.864  -3.381  24.096  0.00  0.00    +0.049 C 
BRANCH  22  27
ATOM     23  F   UNL     1      10.253   1.596  21.730  0.00  0.00    -0.205 F 
ATOM     24  C   UNL     1       9.966   0.412  22.287  0.00  0.00    +0.123 A 
ATOM     25  C   UNL     1      10.192   0.221  23.641  0.00  0.00    +0.038 A 
ATOM     26  C   UNL     1       9.885  -1.010  24.222  0.00  0.00    +0.007 A 
ATOM     27  C   UNL     1       9.286  -2.042  23.474  0.00  0.00    -0.040 A 
ATOM     28  C   UNL     1       9.112  -1.832  22.092  0.00  0.00    +0.007 A 
ATOM     29  C   UNL     1       9.455  -0.612  21.501  0.00  0.00    +0.038 A 
ENDBRANCH  22  27
BRANCH  22  30
ATOM     30  C   UNL     1       7.711  -4.164  23.441  0.00  0.00    -0.040 A 
ATOM     31  C   UNL     1       6.396  -3.664  23.532  0.00  0.00    +0.007 A 
ATOM     32  C   UNL     1       5.310  -4.332  22.955  0.00  0.00    +0.038 A 
ATOM     33  C   UNL     1       5.526  -5.522  22.280  0.00  0.00    +0.123 A 
ATOM     34  F   UNL     1       4.494  -6.160  21.711  0.00  0.00    -0.205 F 
ATOM     35  C   UNL     1       6.795  -6.066  22.199  0.00  0.00    +0.038 A 
ATOM     36  C   UNL     1       7.873  -5.407  22.802  0.00  0.00    +0.007 A 
ENDBRANCH  22  30
ENDBRANCH  21  22
ENDBRANCH  20  21
ENDBRANCH   1  20
TORSDOF 7
ENDMDL
MODEL 4
REMARK VINA RESULT:      -7.5      3.391      6.230
REMARK  Name = 
REMARK  7 active torsions:
REMARK  status: ('A' for Active; 'I' for Inactive)
REMARK    1  A    between atoms: C_5  and  C_8
REMARK    2  A    between atoms: C_8  and  C_9
REMARK    3  A    between atoms: C_8  and  C_29
REMARK    4  A    between atoms: C_9  and  C_10
REMARK    5  A    between atoms: C_10  and  C_11
REMARK    6  A    between atoms: C_11  and  N_12
REMARK    7  A    between atoms: N_18  and  C_23
REMARK                            x       y       z     vdW  Elec       q    Type
REMARK                         _______ _______ _______ _____ _____    ______ ____
ROOT
ATOM      1  C   UNL     1       4.890  -1.076  26.531  0.00  0.00    +0.084 C 
ENDROOT
BRANCH   1   2
ATOM      2  N   UNL     1       4.121  -2.081  27.268  0.00  0.00    -0.302 NA
ATOM      3  C   UNL     1       4.960  -3.187  27.745  0.00  0.00    +0.087 C 
ATOM      4  C   UNL     1       5.327  -4.203  26.661  0.00  0.00    +0.051 C 
ATOM      5  C   UNL     1       4.079  -4.720  25.936  0.00  0.00    +0.115 C 
ATOM      6  C   UNL     1       3.305  -5.650  26.896  0.00  0.00    +0.238 C 
ATOM      7  O   UNL     1       2.687  -5.366  27.910  0.00  0.00    -0.273 OA
ATOM      8  N   UNL     1       3.417  -6.932  26.436  0.00  0.00    -0.298 N 
ATOM      9  H   UNL     1       2.966  -7.697  26.917  0.00  0.00    +0.150 HD
ATOM     10  C   UNL     1       4.157  -7.046  25.237  0.00  0.00    +0.214 C 
ATOM     11  N   UNL     1       4.441  -5.675  24.836  0.00  0.00    -0.300 N 
ATOM     12  C   UNL     1       3.134  -3.595  25.496  0.00  0.00    +0.051 C 
ATOM     13  C   UNL     1       2.905  -2.564  26.606  0.00  0.00    +0.087 C 
BRANCH  11  14
ATOM     14  C   UNL     1       5.042  -5.425  23.616  0.00  0.00    +0.032 A 
ATOM     15  C   UNL     1       4.955  -4.163  22.990  0.00  0.00    +0.023 A 
ATOM     16  C   UNL     1       5.610  -3.864  21.786  0.00  0.00    +0.002 A 
ATOM     17  C   UNL     1       6.378  -4.828  21.158  0.00  0.00    +0.000 A 
ATOM     18  C   UNL     1       6.467  -6.091  21.720  0.00  0.00    +0.002 A 
ATOM     19  C   UNL     1       5.794  -6.381  22.918  0.00  0.00    +0.023 A 
ENDBRANCH  11  14
ENDBRANCH   1   2
BRANCH   1  20
ATOM     20  C   UNL     1       5.830  -0.229  27.400  0.00  0.00    +0.016 C 
BRANCH  20  21
ATOM     21  C   UNL     1       7.338  -0.406  27.161  0.00  0.00    +0.014 C 
BRANCH  21  22
ATOM     22  C   UNL     1       7.824  -0.700  25.709  0.00  0.00    +0.049 C 
BRANCH  22  27
ATOM     23  F   UNL     1       9.402  -6.118  25.039  0.00  0.00    -0.205 F 
ATOM     24  C   UNL     1       8.993  -4.854  25.212  0.00  0.00    +0.123 A 
ATOM     25  C   UNL     1       9.022  -4.294  26.479  0.00  0.00    +0.038 A 
ATOM     26  C   UNL     1       8.603  -2.975  26.657  0.00  0.00    +0.007 A 
ATOM     27  C   UNL     1       8.217  -2.177  25.563  0.00  0.00    -0.040 A 
ATOM     28  C   UNL     1       8.155  -2.790  24.296  0.00  0.00    +0.007 A 
ATOM     29  C   UNL     1       8.538  -4.124  24.123  0.00  0.00    +0.038 A 
ENDBRANCH  22  27
BRANCH  22  30
ATOM     30  C   UNL     1       8.740   0.369  25.085  0.00  0.00    -0.040 A 
ATOM     31  C   UNL     1      10.115   0.098  24.931  0.00  0.00    +0.007 A 
ATOM     32  C   UNL     1      10.994   1.030  24.369  0.00  0.00    +0.038 A 
ATOM     33  C   UNL     1      10.506   2.259  23.957  0.00  0.00    +0.123 A 
ATOM     34  F   UNL     1      11.337   3.152  23.402  0.00  0.00    -0.205 F 
ATOM     35  C   UNL     1       9.171   2.579  24.123  0.00  0.00    +0.038 A 
ATOM     36  C   UNL     1       8.302   1.653  24.711  0.00  0.00    +0.007 A 
ENDBRANCH  22  30
ENDBRANCH  21  22
ENDBRANCH  20  21
ENDBRANCH   1  20
TORSDOF 7
ENDMDL
MODEL 5
REMARK VINA RESULT:      -7.5      3.626      8.134
REMARK  Name = 
REMARK  7 active torsions:
REMARK  status: ('A' for Active; 'I' for Inactive)
REMARK    1  A    between atoms: C_5  and  C_8
REMARK    2  A    between atoms: C_8  and  C_9
REMARK    3  A    between atoms: C_8  and  C_29
REMARK    4  A    between atoms: C_9  and  C_10
REMARK    5  A    between atoms: C_10  and  C_11
REMARK    6  A    between atoms: C_11  and  N_12
REMARK    7  A    between atoms: N_18  and  C_23
REMARK                            x       y       z     vdW  Elec       q    Type
REMARK                         _______ _______ _______ _____ _____    ______ ____
ROOT
ATOM      1  C   UNL     1       7.230   1.749  26.203  0.00  0.00    +0.084 C 
ENDROOT
BRANCH   1   2
ATOM      2  N   UNL     1       6.196   2.323  25.341  0.00  0.00    -0.302 NA
ATOM      3  C   UNL     1       6.539   2.227  23.917  0.00  0.00    +0.087 C 
ATOM      4  C   UNL     1       7.561   3.266  23.450  0.00  0.00    +0.051 C 
ATOM      5  C   UNL     1       7.124   4.686  23.826  0.00  0.00    +0.115 C 
ATOM      6  C   UNL     1       5.933   5.086  22.925  0.00  0.00    +0.238 C 
ATOM      7  O   UNL     1       4.791   4.656  22.923  0.00  0.00    -0.273 OA
ATOM      8  N   UNL     1       6.360   6.050  22.054  0.00  0.00    -0.298 N 
ATOM      9  H   UNL     1       5.725   6.461  21.384  0.00  0.00    +0.150 HD
ATOM     10  C   UNL     1       7.711   6.424  22.232  0.00  0.00    +0.214 C 
ATOM     11  N   UNL     1       8.150   5.702  23.418  0.00  0.00    -0.300 N 
ATOM     12  C   UNL     1       6.676   4.808  25.287  0.00  0.00    +0.051 C 
ATOM     13  C   UNL     1       5.739   3.669  25.702  0.00  0.00    +0.087 C 
BRANCH  11  14
ATOM     14  C   UNL     1       9.402   5.951  23.952  0.00  0.00    +0.032 A 
ATOM     15  C   UNL     1      10.569   5.373  23.408  0.00  0.00    +0.023 A 
ATOM     16  C   UNL     1      11.856   5.659  23.888  0.00  0.00    +0.002 A 
ATOM     17  C   UNL     1      12.020   6.540  24.942  0.00  0.00    +0.000 A 
ATOM     18  C   UNL     1      10.901   7.107  25.528  0.00  0.00    +0.002 A 
ATOM     19  C   UNL     1       9.618   6.800  25.046  0.00  0.00    +0.023 A 
ENDBRANCH  11  14
ENDBRANCH   1   2
BRANCH   1  20
ATOM     20  C   UNL     1       7.042   0.260  26.522  0.00  0.00    +0.016 C 
BRANCH  20  21
ATOM     21  C   UNL     1       8.319  -0.566  26.741  0.00  0.00    +0.014 C 
BRANCH  21  22
ATOM     22  C   UNL     1       8.921  -1.331  25.523  0.00  0.00    +0.049 C 
BRANCH  22  27
ATOM     23  F   UNL     1      10.729   2.375  21.612  0.00  0.00    -0.205 F 
ATOM     24  C   UNL     1      10.340   1.481  22.531  0.00  0.00    +0.123 A 
ATOM     25  C   UNL     1      10.785   1.606  23.838  0.00  0.00    +0.038 A 
ATOM     26  C   UNL     1      10.373   0.680  24.797  0.00  0.00    +0.007 A 
ATOM     27  C   UNL     1       9.457  -0.341  24.479  0.00  0.00    -0.040 A 
ATOM     28  C   UNL     1       9.059  -0.468  23.133  0.00  0.00    +0.007 A 
ATOM     29  C   UNL     1       9.503   0.437  22.164  0.00  0.00    +0.038 A 
ENDBRANCH  22  27
BRANCH  22  30
ATOM     30  C   UNL     1       8.112  -2.547  25.035  0.00  0.00    -0.040 A 
ATOM     31  C   UNL     1       8.784  -3.753  24.746  0.00  0.00    +0.007 A 
ATOM     32  C   UNL     1       8.102  -4.890  24.301  0.00  0.00    +0.038 A 
ATOM     33  C   UNL     1       6.728  -4.834  24.131  0.00  0.00    +0.123 A 
ATOM     34  F   UNL     1       6.064  -5.924  23.721  0.00  0.00    -0.205 F 
ATOM     35  C   UNL     1       6.036  -3.661  24.368  0.00  0.00    +0.038 A 
ATOM     36  C   UNL     1       6.728  -2.518  24.786  0.00  0.00    +0.007 A 
ENDBRANCH  22  30
ENDBRANCH  21  22
ENDBRANCH  20  21
ENDBRANCH   1  20
TORSDOF 7
ENDMDL
MODEL 6
REMARK VINA RESULT:      -7.5      3.199      7.128
REMARK  Name = 
REMARK  7 active torsions:
REMARK  status: ('A' for Active; 'I' for Inactive)
REMARK    1  A    between atoms: C_5  and  C_8
REMARK    2  A    between atoms: C_8  and  C_9
REMARK    3  A    between atoms: C_8  and  C_29
REMARK    4  A    between atoms: C_9  and  C_10
REMARK    5  A    between atoms: C_10  and  C_11
REMARK    6  A    between atoms: C_11  and  N_12
REMARK    7  A    between atoms: N_18  and  C_23
REMARK                            x       y       z     vdW  Elec       q    Type
REMARK                         _______ _______ _______ _____ _____    ______ ____
ROOT
ATOM      1  C   UNL     1       9.183  -0.861  23.088  0.00  0.00    +0.084 C 
ENDROOT
BRANCH   1   2
ATOM      2  N   UNL     1      10.184   0.208  23.075  0.00  0.00    -0.302 NA
ATOM      3  C   UNL     1      10.320   0.861  24.383  0.00  0.00    +0.087 C 
ATOM      4  C   UNL     1       9.202   1.857  24.702  0.00  0.00    +0.051 C 
ATOM      5  C   UNL     1       9.033   2.884  23.577  0.00  0.00    +0.115 C 
ATOM      6  C   UNL     1      10.241   3.848  23.610  0.00  0.00    +0.238 C 
ATOM      7  O   UNL     1      11.409   3.627  23.332  0.00  0.00    -0.273 OA
ATOM      8  N   UNL     1       9.802   5.072  24.033  0.00  0.00    -0.298 N 
ATOM      9  H   UNL     1      10.438   5.853  24.109  0.00  0.00    +0.150 HD
ATOM     10  C   UNL     1       8.412   5.125  24.284  0.00  0.00    +0.214 C 
ATOM     11  N   UNL     1       7.902   3.828  23.862  0.00  0.00    -0.300 N 
ATOM     12  C   UNL     1       8.973   2.244  22.185  0.00  0.00    +0.051 C 
ATOM     13  C   UNL     1      10.060   1.183  21.988  0.00  0.00    +0.087 C 
BRANCH  11  14
ATOM     14  C   UNL     1       6.538   3.596  23.849  0.00  0.00    +0.032 A 
ATOM     15  C   UNL     1       5.764   3.783  22.684  0.00  0.00    +0.023 A 
ATOM     16  C   UNL     1       4.393   3.493  22.625  0.00  0.00    +0.002 A 
ATOM     17  C   UNL     1       3.741   3.004  23.744  0.00  0.00    +0.000 A 
ATOM     18  C   UNL     1       4.455   2.834  24.919  0.00  0.00    +0.002 A 
ATOM     19  C   UNL     1       5.824   3.143  24.966  0.00  0.00    +0.023 A 
ENDBRANCH  11  14
ENDBRANCH   1   2
BRANCH   1  20
ATOM     20  C   UNL     1       9.733  -2.247  23.452  0.00  0.00    +0.016 C 
BRANCH  20  21
ATOM     21  C   UNL     1       9.243  -2.859  24.773  0.00  0.00    +0.014 C 
BRANCH  21  22
ATOM     22  C   UNL     1       7.745  -3.276  24.881  0.00  0.00    +0.049 C 
BRANCH  22  27
ATOM     23  F   UNL     1       5.941  -5.884  20.166  0.00  0.00    -0.205 F 
ATOM     24  C   UNL     1       6.396  -5.250  21.254  0.00  0.00    +0.123 A 
ATOM     25  C   UNL     1       6.030  -3.932  21.480  0.00  0.00    +0.038 A 
ATOM     26  C   UNL     1       6.497  -3.274  22.618  0.00  0.00    +0.007 A 
ATOM     27  C   UNL     1       7.277  -3.943  23.580  0.00  0.00    -0.040 A 
ATOM     28  C   UNL     1       7.669  -5.267  23.299  0.00  0.00    +0.007 A 
ATOM     29  C   UNL     1       7.233  -5.915  22.139  0.00  0.00    +0.038 A 
ENDBRANCH  22  27
BRANCH  22  30
ATOM     30  C   UNL     1       6.815  -2.249  25.556  0.00  0.00    -0.040 A 
ATOM     31  C   UNL     1       7.375  -1.117  26.184  0.00  0.00    +0.007 A 
ATOM     32  C   UNL     1       6.579  -0.153  26.811  0.00  0.00    +0.038 A 
ATOM     33  C   UNL     1       5.203  -0.311  26.824  0.00  0.00    +0.123 A 
ATOM     34  F   UNL     1       4.432   0.617  27.408  0.00  0.00    -0.205 F 
ATOM     35  C   UNL     1       4.617  -1.425  26.252  0.00  0.00    +0.038 A 
ATOM     36  C   UNL     1       5.419  -2.401  25.650  0.00  0.00    +0.007 A 
ENDBRANCH  22  30
ENDBRANCH  21  22
ENDBRANCH  20  21
ENDBRANCH   1  20
TORSDOF 7
ENDMDL
MODEL 7
REMARK VINA RESULT:      -7.4      3.411      6.970
REMARK  Name = 
REMARK  7 active torsions:
REMARK  status: ('A' for Active; 'I' for Inactive)
REMARK    1  A    between atoms: C_5  and  C_8
REMARK    2  A    between atoms: C_8  and  C_9
REMARK    3  A    between atoms: C_8  and  C_29
REMARK    4  A    between atoms: C_9  and  C_10
REMARK    5  A    between atoms: C_10  and  C_11
REMARK    6  A    between atoms: C_11  and  N_12
REMARK    7  A    between atoms: N_18  and  C_23
REMARK                            x       y       z     vdW  Elec       q    Type
REMARK                         _______ _______ _______ _____ _____    ______ ____
ROOT
ATOM      1  C   UNL     1       4.154  -1.122  26.777  0.00  0.00    +0.084 C 
ENDROOT
BRANCH   1   2
ATOM      2  N   UNL     1       3.571  -2.274  27.467  0.00  0.00    -0.302 NA
ATOM      3  C   UNL     1       4.588  -3.241  27.899  0.00  0.00    +0.087 C 
ATOM      4  C   UNL     1       5.117  -4.132  26.773  0.00  0.00    +0.051 C 
ATOM      5  C   UNL     1       3.972  -4.821  26.022  0.00  0.00    +0.115 C 
ATOM      6  C   UNL     1       3.371  -5.910  26.940  0.00  0.00    +0.238 C 
ATOM      7  O   UNL     1       2.719  -5.779  27.963  0.00  0.00    -0.273 OA
ATOM      8  N   UNL     1       3.698  -7.134  26.425  0.00  0.00    -0.298 N 
ATOM      9  H   UNL     1       3.386  -7.984  26.871  0.00  0.00    +0.150 HD
ATOM     10  C   UNL     1       4.440  -7.069  25.224  0.00  0.00    +0.214 C 
ATOM     11  N   UNL     1       4.486  -5.653  24.884  0.00  0.00    -0.300 N 
ATOM     12  C   UNL     1       2.848  -3.856  25.629  0.00  0.00    +0.051 C 
ATOM     13  C   UNL     1       2.452  -2.928  26.782  0.00  0.00    +0.087 C 
BRANCH  11  14
ATOM     14  C   UNL     1       5.030  -5.253  23.677  0.00  0.00    +0.032 A 
ATOM     15  C   UNL     1       4.946  -3.916  23.232  0.00  0.00    +0.023 A 
ATOM     16  C   UNL     1       5.546  -3.469  22.045  0.00  0.00    +0.002 A 
ATOM     17  C   UNL     1       6.254  -4.355  21.252  0.00  0.00    +0.000 A 
ATOM     18  C   UNL     1       6.337  -5.683  21.634  0.00  0.00    +0.002 A 
ATOM     19  C   UNL     1       5.719  -6.119  22.817  0.00  0.00    +0.023 A 
ENDBRANCH  11  14
ENDBRANCH   1   2
BRANCH   1  20
ATOM     20  C   UNL     1       5.628  -0.855  27.114  0.00  0.00    +0.016 C 
BRANCH  20  21
ATOM     21  C   UNL     1       6.519  -0.356  25.966  0.00  0.00    +0.014 C 
BRANCH  21  22
ATOM     22  C   UNL     1       8.033  -0.726  25.993  0.00  0.00    +0.049 C 
BRANCH  22  27
ATOM     23  F   UNL     1      11.145   3.146  23.234  0.00  0.00    -0.205 F 
ATOM     24  C   UNL     1      10.417   2.255  23.920  0.00  0.00    +0.123 A 
ATOM     25  C   UNL     1       9.101   2.550  24.241  0.00  0.00    +0.038 A 
ATOM     26  C   UNL     1       8.341   1.618  24.949  0.00  0.00    +0.007 A 
ATOM     27  C   UNL     1       8.862   0.354  25.284  0.00  0.00    -0.040 A 
ATOM     28  C   UNL     1      10.216   0.103  24.983  0.00  0.00    +0.007 A 
ATOM     29  C   UNL     1      10.990   1.052  24.308  0.00  0.00    +0.038 A 
ENDBRANCH  22  27
BRANCH  22  30
ATOM     30  C   UNL     1       8.362  -2.205  25.718  0.00  0.00    -0.040 A 
ATOM     31  C   UNL     1       8.324  -2.687  24.394  0.00  0.00    +0.007 A 
ATOM     32  C   UNL     1       8.615  -4.020  24.085  0.00  0.00    +0.038 A 
ATOM     33  C   UNL     1       8.943  -4.897  25.105  0.00  0.00    +0.123 A 
ATOM     34  F   UNL     1       9.240  -6.172  24.816  0.00  0.00    -0.205 F 
ATOM     35  C   UNL     1       8.956  -4.474  26.422  0.00  0.00    +0.038 A 
ATOM     36  C   UNL     1       8.637  -3.146  26.728  0.00  0.00    +0.007 A 
ENDBRANCH  22  30
ENDBRANCH  21  22
ENDBRANCH  20  21
ENDBRANCH   1  20
TORSDOF 7
ENDMDL
MODEL 8
REMARK VINA RESULT:      -7.4      4.054      8.023
REMARK  Name = 
REMARK  7 active torsions:
REMARK  status: ('A' for Active; 'I' for Inactive)
REMARK    1  A    between atoms: C_5  and  C_8
REMARK    2  A    between atoms: C_8  and  C_9
REMARK    3  A    between atoms: C_8  and  C_29
REMARK    4  A    between atoms: C_9  and  C_10
REMARK    5  A    between atoms: C_10  and  C_11
REMARK    6  A    between atoms: C_11  and  N_12
REMARK    7  A    between atoms: N_18  and  C_23
REMARK                            x       y       z     vdW  Elec       q    Type
REMARK                         _______ _______ _______ _____ _____    ______ ____
ROOT
ATOM      1  C   UNL     1       9.092  -1.057  23.445  0.00  0.00    +0.084 C 
ENDROOT
BRANCH   1   2
ATOM      2  N   UNL     1      10.121  -0.023  23.326  0.00  0.00    -0.302 NA
ATOM      3  C   UNL     1      10.247   0.781  24.548  0.00  0.00    +0.087 C 
ATOM      4  C   UNL     1       9.149   1.835  24.717  0.00  0.00    +0.051 C 
ATOM      5  C   UNL     1       9.032   2.722  23.472  0.00  0.00    +0.115 C 
ATOM      6  C   UNL     1      10.264   3.653  23.417  0.00  0.00    +0.238 C 
ATOM      7  O   UNL     1      11.431   3.372  23.197  0.00  0.00    -0.273 OA
ATOM      8  N   UNL     1       9.850   4.929  23.679  0.00  0.00    -0.298 N 
ATOM      9  H   UNL     1      10.505   5.698  23.676  0.00  0.00    +0.150 HD
ATOM     10  C   UNL     1       8.457   5.046  23.888  0.00  0.00    +0.214 C 
ATOM     11  N   UNL     1       7.920   3.721  23.614  0.00  0.00    -0.300 N 
ATOM     12  C   UNL     1       8.983   1.919  22.167  0.00  0.00    +0.051 C 
ATOM     13  C   UNL     1      10.046   0.816  22.126  0.00  0.00    +0.087 C 
BRANCH  11  14
ATOM     14  C   UNL     1       6.552   3.521  23.597  0.00  0.00    +0.032 A 
ATOM     15  C   UNL     1       5.802   3.414  24.787  0.00  0.00    +0.023 A 
ATOM     16  C   UNL     1       4.405   3.278  24.798  0.00  0.00    +0.002 A 
ATOM     17  C   UNL     1       3.705   3.239  23.606  0.00  0.00    +0.000 A 
ATOM     18  C   UNL     1       4.403   3.310  22.412  0.00  0.00    +0.002 A 
ATOM     19  C   UNL     1       5.802   3.432  22.416  0.00  0.00    +0.023 A 
ENDBRANCH  11  14
ENDBRANCH   1   2
BRANCH   1  20
ATOM     20  C   UNL     1       9.598  -2.404  23.979  0.00  0.00    +0.016 C 
BRANCH  20  21
ATOM     21  C   UNL     1       8.838  -3.002  25.174  0.00  0.00    +0.014 C 
BRANCH  21  22
ATOM     22  C   UNL     1       7.333  -3.358  24.986  0.00  0.00    +0.049 C 
BRANCH  22  27
ATOM     23  F   UNL     1       5.062  -5.684  29.647  0.00  0.00    -0.205 F 
ATOM     24  C   UNL     1       5.627  -5.118  28.572  0.00  0.00    +0.123 A 
ATOM     25  C   UNL     1       6.764  -5.686  28.019  0.00  0.00    +0.038 A 
ATOM     26  C   UNL     1       7.347  -5.100  26.895  0.00  0.00    +0.007 A 
ATOM     27  C   UNL     1       6.764  -3.982  26.268  0.00  0.00    -0.040 A 
ATOM     28  C   UNL     1       5.635  -3.403  26.881  0.00  0.00    +0.007 A 
ATOM     29  C   UNL     1       5.072  -3.967  28.030  0.00  0.00    +0.038 A 
ENDBRANCH  22  27
BRANCH  22  30
ATOM     30  C   UNL     1       6.962  -3.993  23.632  0.00  0.00    -0.040 A 
ATOM     31  C   UNL     1       7.456  -5.274  23.311  0.00  0.00    +0.007 A 
ATOM     32  C   UNL     1       7.152  -5.900  22.097  0.00  0.00    +0.038 A 
ATOM     33  C   UNL     1       6.348  -5.245  21.178  0.00  0.00    +0.123 A 
ATOM     34  F   UNL     1       6.038  -5.844  20.020  0.00  0.00    -0.205 F 
ATOM     35  C   UNL     1       5.873  -3.972  21.439  0.00  0.00    +0.038 A 
ATOM     36  C   UNL     1       6.204  -3.340  22.643  0.00  0.00    +0.007 A 
ENDBRANCH  22  30
ENDBRANCH  21  22
ENDBRANCH  20  21
ENDBRANCH   1  20
TORSDOF 7
ENDMDL
MODEL 9
REMARK VINA RESULT:      -7.4      3.871      7.462
REMARK  Name = 
REMARK  7 active torsions:
REMARK  status: ('A' for Active; 'I' for Inactive)
REMARK    1  A    between atoms: C_5  and  C_8
REMARK    2  A    between atoms: C_8  and  C_9
REMARK    3  A    between atoms: C_8  and  C_29
REMARK    4  A    between atoms: C_9  and  C_10
REMARK    5  A    between atoms: C_10  and  C_11
REMARK    6  A    between atoms: C_11  and  N_12
REMARK    7  A    between atoms: N_18  and  C_23
REMARK                            x       y       z     vdW  Elec       q    Type
REMARK                         _______ _______ _______ _____ _____    ______ ____
ROOT
ATOM      1  C   UNL     1       5.088   3.343  23.473  0.00  0.00    +0.084 C 
ENDROOT
BRANCH   1   2
ATOM      2  N   UNL     1       5.874   4.532  23.804  0.00  0.00    -0.302 NA
ATOM      3  C   UNL     1       6.653   5.023  22.659  0.00  0.00    +0.087 C 
ATOM      4  C   UNL     1       7.920   4.214  22.374  0.00  0.00    +0.051 C 
ATOM      5  C   UNL     1       8.791   4.083  23.629  0.00  0.00    +0.115 C 
ATOM      6  C   UNL     1       9.434   5.457  23.924  0.00  0.00    +0.238 C 
ATOM      7  O   UNL     1       8.905   6.486  24.310  0.00  0.00    -0.273 OA
ATOM      8  N   UNL     1      10.774   5.368  23.667  0.00  0.00    -0.298 N 
ATOM      9  H   UNL     1      11.384   6.160  23.812  0.00  0.00    +0.150 HD
ATOM     10  C   UNL     1      11.191   4.084  23.247  0.00  0.00    +0.214 C 
ATOM     11  N   UNL     1      10.008   3.244  23.366  0.00  0.00    -0.300 N 
ATOM     12  C   UNL     1       7.996   3.653  24.868  0.00  0.00    +0.051 C 
ATOM     13  C   UNL     1       6.690   4.439  25.018  0.00  0.00    +0.087 C 
BRANCH  11  14
ATOM     14  C   UNL     1      10.107   1.880  23.158  0.00  0.00    +0.032 A 
ATOM     15  C   UNL     1      10.535   1.003  24.178  0.00  0.00    +0.023 A 
ATOM     16  C   UNL     1      10.583  -0.390  24.014  0.00  0.00    +0.002 A 
ATOM     17  C   UNL     1      10.204  -0.958  22.811  0.00  0.00    +0.000 A 
ATOM     18  C   UNL     1       9.806  -0.133  21.772  0.00  0.00    +0.002 A 
ATOM     19  C   UNL     1       9.777   1.260  21.945  0.00  0.00    +0.023 A 
ENDBRANCH  11  14
ENDBRANCH   1   2
BRANCH   1  20
ATOM     20  C   UNL     1       5.284   2.161  24.431  0.00  0.00    +0.016 C 
BRANCH  20  21
ATOM     21  C   UNL     1       6.108   0.975  23.905  0.00  0.00    +0.014 C 
BRANCH  21  22
ATOM     22  C   UNL     1       6.845   0.072  24.939  0.00  0.00    +0.049 C 
BRANCH  22  27
ATOM     23  F   UNL     1       7.692  -5.079  22.693  0.00  0.00    -0.205 F 
ATOM     24  C   UNL     1       7.459  -3.880  23.244  0.00  0.00    +0.123 A 
ATOM     25  C   UNL     1       7.875  -3.632  24.543  0.00  0.00    +0.038 A 
ATOM     26  C   UNL     1       7.640  -2.381  25.113  0.00  0.00    +0.007 A 
ATOM     27  C   UNL     1       7.049  -1.340  24.372  0.00  0.00    -0.040 A 
ATOM     28  C   UNL     1       6.597  -1.637  23.071  0.00  0.00    +0.007 A 
ATOM     29  C   UNL     1       6.798  -2.904  22.512  0.00  0.00    +0.038 A 
ENDBRANCH  22  27
BRANCH  22  30
ATOM     30  C   UNL     1       6.378   0.216  26.400  0.00  0.00    -0.040 A 
ATOM     31  C   UNL     1       5.163  -0.378  26.800  0.00  0.00    +0.007 A 
ATOM     32  C   UNL     1       4.690  -0.281  28.113  0.00  0.00    +0.038 A 
ATOM     33  C   UNL     1       5.429   0.423  29.050  0.00  0.00    +0.123 A 
ATOM     34  F   UNL     1       4.992   0.506  30.314  0.00  0.00    -0.205 F 
ATOM     35  C   UNL     1       6.608   1.050  28.691  0.00  0.00    +0.038 A 
ATOM     36  C   UNL     1       7.061   0.973  27.369  0.00  0.00    +0.007 A 
ENDBRANCH  22  30
ENDBRANCH  21  22
ENDBRANCH  20  21
ENDBRANCH   1  20
TORSDOF 7
ENDMDL
