MODEL 1
REMARK VINA RESULT:      -5.9      0.000      0.000
REMARK  Name = 
REMARK  19 active torsions:
REMARK  status: ('A' for Active; 'I' for Inactive)
REMARK    1  A    between atoms: C_1  and  O_2
REMARK    2  A    between atoms: O_2  and  C_3
REMARK    3  A    between atoms: C_3  and  C_4
REMARK    4  A    between atoms: C_4  and  O_5
REMARK    5  A    between atoms: N_6  and  C_7
REMARK    6  A    between atoms: C_10  and  C_11
REMARK    7  A    between atoms: C_11  and  O_12
REMARK    8  A    between atoms: N_13  and  C_14
REMARK    9  A    between atoms: C_14  and  C_15
REMARK   10  A    between atoms: C_15  and  O_16
REMARK   11  A    between atoms: C_15  and  C_17
REMARK   12  A    between atoms: C_17  and  O_18
REMARK   13  A    between atoms: C_21  and  C_22
REMARK   14  A    between atoms: N_24  and  C_25
REMARK   15  A    between atoms: N_24  and  C_26
REMARK   16  A    between atoms: C_26  and  C_27
REMARK   17  A    between atoms: C_27  and  O_28
REMARK   18  A    between atoms: C_27  and  C_29
REMARK   19  A    between atoms: C_29  and  O_30
REMARK                            x       y       z     vdW  Elec       q    Type
REMARK                         _______ _______ _______ _____ _____    ______ ____
ROOT
ATOM      1  C   UNL     1       6.648   2.361  25.726  0.00  0.00    +0.095 A 
ATOM      2  C   UNL     1       7.436   1.185  25.710  0.00  0.00    +0.053 A 
ATOM      3  I   UNL     1       7.042  -0.306  27.219  0.00  0.00    -0.041 I 
ATOM      4  C   UNL     1       8.538   1.039  24.827  0.00  0.00    +0.066 A 
ATOM      5  C   UNL     1       8.905   2.163  24.046  0.00  0.00    +0.040 A 
ATOM      6  I   UNL     1      10.042   1.872  22.234  0.00  0.00    -0.042 I 
ATOM      7  C   UNL     1       8.336   3.443  24.286  0.00  0.00    +0.065 A 
ATOM      8  C   UNL     1       7.176   3.518  25.092  0.00  0.00    +0.053 A 
ATOM      9  I   UNL     1       6.164   5.379  25.458  0.00  0.00    -0.041 I 
ENDROOT
BRANCH   4  10
ATOM     10  C   UNL     1       9.117  -0.322  24.622  0.00  0.00    +0.249 C 
ATOM     11  N   UNL     1       8.504  -1.292  23.814  0.00  0.00    -0.298 N 
ATOM     12  C   UNL     1       7.238  -1.134  23.100  0.00  0.00    +0.132 C 
ATOM     13  O   UNL     1      10.181  -0.557  25.197  0.00  0.00    -0.270 OA
BRANCH  11  14
ATOM     14  C   UNL     1       9.138  -2.622  23.698  0.00  0.00    +0.141 C 
BRANCH  14  15
ATOM     15  C   UNL     1       8.325  -3.736  24.387  0.00  0.00    +0.157 C 
BRANCH  15  16
ATOM     16  O   UNL     1       7.850  -4.716  23.450  0.00  0.00    -0.388 OA
ATOM     17  H   UNL     1       6.895  -4.847  23.612  0.00  0.00    +0.210 HD
ENDBRANCH  15  16
BRANCH  15  18
ATOM     18  C   UNL     1       9.136  -4.468  25.465  0.00  0.00    +0.188 C 
BRANCH  18  19
ATOM     19  O   UNL     1       9.859  -5.553  24.878  0.00  0.00    -0.392 OA
ATOM     20  H   UNL     1       9.807  -6.296  25.512  0.00  0.00    +0.210 HD
ENDBRANCH  18  19
ENDBRANCH  15  18
ENDBRANCH  14  15
ENDBRANCH  11  14
ENDBRANCH   4  10
BRANCH   7  21
ATOM     21  C   UNL     1       9.048   4.657  23.763  0.00  0.00    +0.217 C 
ATOM     22  N   UNL     1      10.092   5.153  24.328  0.00  0.00    -0.248 NA
BRANCH  21  23
ATOM     23  O   UNL     1       8.561   5.188  22.623  0.00  0.00    -0.492 OA
ATOM     24  H   UNL     1       7.637   5.486  22.703  0.00  0.00    +0.294 HD
ENDBRANCH  21  23
BRANCH  22  25
ATOM     25  C   UNL     1      10.740   6.321  23.707  0.00  0.00    +0.179 C 
BRANCH  25  26
ATOM     26  C   UNL     1      12.274   6.252  23.842  0.00  0.00    +0.161 C 
BRANCH  26  27
ATOM     27  O   UNL     1      12.705   6.459  25.197  0.00  0.00    -0.388 OA
ATOM     28  H   UNL     1      13.654   6.692  25.154  0.00  0.00    +0.210 HD
ENDBRANCH  26  27
BRANCH  26  29
ATOM     29  C   UNL     1      12.823   4.889  23.394  0.00  0.00    +0.189 C 
BRANCH  29  30
ATOM     30  O   UNL     1      14.226   4.955  23.123  0.00  0.00    -0.392 OA
ATOM     31  H   UNL     1      14.671   4.374  23.769  0.00  0.00    +0.210 HD
ENDBRANCH  29  30
ENDBRANCH  26  29
ENDBRANCH  25  26
ENDBRANCH  22  25
ENDBRANCH   7  21
BRANCH   1  33
ATOM     32  C   UNL     1       4.286   2.179  25.786  0.00  0.00    +0.214 C 
ATOM     33  N   UNL     1       5.404   2.432  26.418  0.00  0.00    -0.213 NA
BRANCH  32  34
ATOM     34  O   UNL     1       4.254   1.804  24.494  0.00  0.00    -0.494 OA
ATOM     35  H   UNL     1       3.616   1.092  24.327  0.00  0.00    +0.293 HD
ENDBRANCH  32  34
BRANCH  32  36
ATOM     36  C   UNL     1       2.924   2.262  26.472  0.00  0.00    +0.254 C 
BRANCH  36  38
ATOM     37  C   UNL     1       2.728   0.168  27.544  0.00  0.00    +0.194 C 
ATOM     38  O   UNL     1       2.262   1.004  26.485  0.00  0.00    -0.374 OA
ENDBRANCH  36  38
ENDBRANCH  32  36
ENDBRANCH   1  33
TORSDOF 17
ENDMDL
MODEL 2
REMARK VINA RESULT:      -5.6      2.331      2.772
REMARK  Name = 
REMARK  19 active torsions:
REMARK  status: ('A' for Active; 'I' for Inactive)
REMARK    1  A    between atoms: C_1  and  O_2
REMARK    2  A    between atoms: O_2  and  C_3
REMARK    3  A    between atoms: C_3  and  C_4
REMARK    4  A    between atoms: C_4  and  O_5
REMARK    5  A    between atoms: N_6  and  C_7
REMARK    6  A    between atoms: C_10  and  C_11
REMARK    7  A    between atoms: C_11  and  O_12
REMARK    8  A    between atoms: N_13  and  C_14
REMARK    9  A    between atoms: C_14  and  C_15
REMARK   10  A    between atoms: C_15  and  O_16
REMARK   11  A    between atoms: C_15  and  C_17
REMARK   12  A    between atoms: C_17  and  O_18
REMARK   13  A    between atoms: C_21  and  C_22
REMARK   14  A    between atoms: N_24  and  C_25
REMARK   15  A    between atoms: N_24  and  C_26
REMARK   16  A    between atoms: C_26  and  C_27
REMARK   17  A    between atoms: C_27  and  O_28
REMARK   18  A    between atoms: C_27  and  C_29
REMARK   19  A    between atoms: C_29  and  O_30
REMARK                            x       y       z     vdW  Elec       q    Type
REMARK                         _______ _______ _______ _____ _____    ______ ____
ROOT
ATOM      1  C   UNL     1       6.259   2.651  24.293  0.00  0.00    +0.095 A 
ATOM      2  C   UNL     1       6.280   1.360  24.873  0.00  0.00    +0.053 A 
ATOM      3  I   UNL     1       4.804   0.913  26.382  0.00  0.00    -0.041 I 
ATOM      4  C   UNL     1       7.313   0.430  24.582  0.00  0.00    +0.066 A 
ATOM      5  C   UNL     1       8.396   0.881  23.787  0.00  0.00    +0.040 A 
ATOM      6  I   UNL     1       9.605  -0.557  22.725  0.00  0.00    -0.042 I 
ATOM      7  C   UNL     1       8.553   2.258  23.472  0.00  0.00    +0.065 A 
ATOM      8  C   UNL     1       7.453   3.122  23.687  0.00  0.00    +0.053 A 
ATOM      9  I   UNL     1       7.528   5.206  23.166  0.00  0.00    -0.041 I 
ENDROOT
BRANCH   4  10
ATOM     10  C   UNL     1       7.113  -1.002  24.952  0.00  0.00    +0.249 C 
ATOM     11  N   UNL     1       7.735  -1.592  26.063  0.00  0.00    -0.298 N 
ATOM     12  C   UNL     1       8.663  -0.927  26.976  0.00  0.00    +0.132 C 
ATOM     13  O   UNL     1       6.356  -1.654  24.230  0.00  0.00    -0.270 OA
BRANCH  11  14
ATOM     14  C   UNL     1       7.500  -3.027  26.329  0.00  0.00    +0.141 C 
BRANCH  14  15
ATOM     15  C   UNL     1       8.798  -3.859  26.328  0.00  0.00    +0.157 C 
BRANCH  15  16
ATOM     16  O   UNL     1       8.666  -5.068  27.090  0.00  0.00    -0.388 OA
ATOM     17  H   UNL     1       8.730  -5.821  26.470  0.00  0.00    +0.210 HD
ENDBRANCH  15  16
BRANCH  15  18
ATOM     18  C   UNL     1       9.244  -4.240  24.910  0.00  0.00    +0.188 C 
BRANCH  18  19
ATOM     19  O   UNL     1      10.311  -5.191  24.974  0.00  0.00    -0.392 OA
ATOM     20  H   UNL     1      11.102  -4.745  24.613  0.00  0.00    +0.210 HD
ENDBRANCH  18  19
ENDBRANCH  15  18
ENDBRANCH  14  15
ENDBRANCH  11  14
ENDBRANCH   4  10
BRANCH   7  21
ATOM     21  C   UNL     1       9.901   2.745  23.026  0.00  0.00    +0.217 C 
ATOM     22  N   UNL     1      10.734   3.321  23.819  0.00  0.00    -0.248 NA
BRANCH  21  23
ATOM     23  O   UNL     1      10.225   2.505  21.738  0.00  0.00    -0.492 OA
ATOM     24  H   UNL     1       9.919   1.637  21.421  0.00  0.00    +0.294 HD
ENDBRANCH  21  23
BRANCH  22  25
ATOM     25  C   UNL     1      12.049   3.721  23.289  0.00  0.00    +0.179 C 
BRANCH  25  26
ATOM     26  C   UNL     1      12.171   5.254  23.183  0.00  0.00    +0.161 C 
BRANCH  26  27
ATOM     27  O   UNL     1      12.837   5.821  24.322  0.00  0.00    -0.388 OA
ATOM     28  H   UNL     1      12.698   5.199  25.064  0.00  0.00    +0.210 HD
ENDBRANCH  26  27
BRANCH  26  29
ATOM     29  C   UNL     1      12.963   5.676  21.937  0.00  0.00    +0.189 C 
BRANCH  29  30
ATOM     30  O   UNL     1      14.312   6.020  22.267  0.00  0.00    -0.392 OA
ATOM     31  H   UNL     1      14.347   6.991  22.361  0.00  0.00    +0.210 HD
ENDBRANCH  29  30
ENDBRANCH  26  29
ENDBRANCH  25  26
ENDBRANCH  22  25
ENDBRANCH   7  21
BRANCH   1  33
ATOM     32  C   UNL     1       4.205   3.465  23.436  0.00  0.00    +0.214 C 
ATOM     33  N   UNL     1       5.116   3.501  24.374  0.00  0.00    -0.213 NA
BRANCH  32  34
ATOM     34  O   UNL     1       4.270   2.616  22.395  0.00  0.00    -0.494 OA
ATOM     35  H   UNL     1       5.073   2.072  22.405  0.00  0.00    +0.293 HD
ENDBRANCH  32  34
BRANCH  32  36
ATOM     36  C   UNL     1       2.973   4.368  23.461  0.00  0.00    +0.254 C 
BRANCH  36  38
ATOM     37  C   UNL     1       2.597   6.163  24.946  0.00  0.00    +0.194 C 
ATOM     38  O   UNL     1       3.308   5.709  23.795  0.00  0.00    -0.374 OA
ENDBRANCH  36  38
ENDBRANCH  32  36
ENDBRANCH   1  33
TORSDOF 17
ENDMDL
MODEL 3
REMARK VINA RESULT:      -5.3      3.139      8.028
REMARK  Name = 
REMARK  19 active torsions:
REMARK  status: ('A' for Active; 'I' for Inactive)
REMARK    1  A    between atoms: C_1  and  O_2
REMARK    2  A    between atoms: O_2  and  C_3
REMARK    3  A    between atoms: C_3  and  C_4
REMARK    4  A    between atoms: C_4  and  O_5
REMARK    5  A    between atoms: N_6  and  C_7
REMARK    6  A    between atoms: C_10  and  C_11
REMARK    7  A    between atoms: C_11  and  O_12
REMARK    8  A    between atoms: N_13  and  C_14
REMARK    9  A    between atoms: C_14  and  C_15
REMARK   10  A    between atoms: C_15  and  O_16
REMARK   11  A    between atoms: C_15  and  C_17
REMARK   12  A    between atoms: C_17  and  O_18
REMARK   13  A    between atoms: C_21  and  C_22
REMARK   14  A    between atoms: N_24  and  C_25
REMARK   15  A    between atoms: N_24  and  C_26
REMARK   16  A    between atoms: C_26  and  C_27
REMARK   17  A    between atoms: C_27  and  O_28
REMARK   18  A    between atoms: C_27  and  C_29
REMARK   19  A    between atoms: C_29  and  O_30
REMARK                            x       y       z     vdW  Elec       q    Type
REMARK                         _______ _______ _______ _____ _____    ______ ____
ROOT
ATOM      1  C   UNL     1       5.428  -0.071  25.774  0.00  0.00    +0.095 A 
ATOM      2  C   UNL     1       6.114   0.735  24.835  0.00  0.00    +0.053 A 
ATOM      3  I   UNL     1       5.755   2.862  24.886  0.00  0.00    -0.041 I 
ATOM      4  C   UNL     1       6.906   0.166  23.803  0.00  0.00    +0.066 A 
ATOM      5  C   UNL     1       6.887  -1.244  23.664  0.00  0.00    +0.040 A 
ATOM      6  I   UNL     1       8.519  -2.235  22.657  0.00  0.00    -0.042 I 
ATOM      7  C   UNL     1       5.955  -2.041  24.383  0.00  0.00    +0.065 A 
ATOM      8  C   UNL     1       5.268  -1.449  25.469  0.00  0.00    +0.053 A 
ATOM      9  I   UNL     1       3.902  -2.568  26.694  0.00  0.00    -0.041 I 
ENDROOT
BRANCH   4  10
ATOM     10  C   UNL     1       7.856   1.047  23.060  0.00  0.00    +0.249 C 
ATOM     11  N   UNL     1       9.157   1.311  23.515  0.00  0.00    -0.298 N 
ATOM     12  C   UNL     1       9.748   0.808  24.754  0.00  0.00    +0.132 C 
ATOM     13  O   UNL     1       7.443   1.532  22.005  0.00  0.00    -0.270 OA
BRANCH  11  14
ATOM     14  C   UNL     1      10.013   2.222  22.725  0.00  0.00    +0.141 C 
BRANCH  14  15
ATOM     15  C   UNL     1      10.491   3.447  23.532  0.00  0.00    +0.157 C 
BRANCH  15  16
ATOM     16  O   UNL     1      11.569   4.135  22.881  0.00  0.00    -0.388 OA
ATOM     17  H   UNL     1      11.858   4.862  23.468  0.00  0.00    +0.210 HD
ENDBRANCH  15  16
BRANCH  15  18
ATOM     18  C   UNL     1       9.363   4.458  23.776  0.00  0.00    +0.188 C 
BRANCH  18  19
ATOM     19  O   UNL     1       8.496   4.505  22.639  0.00  0.00    -0.392 OA
ATOM     20  H   UNL     1       8.343   3.579  22.369  0.00  0.00    +0.210 HD
ENDBRANCH  18  19
ENDBRANCH  15  18
ENDBRANCH  14  15
ENDBRANCH  11  14
ENDBRANCH   4  10
BRANCH   7  21
ATOM     21  C   UNL     1       5.669  -3.431  23.894  0.00  0.00    +0.217 C 
ATOM     22  N   UNL     1       6.047  -4.486  24.525  0.00  0.00    -0.248 NA
BRANCH  21  23
ATOM     23  O   UNL     1       4.943  -3.527  22.760  0.00  0.00    -0.492 OA
ATOM     24  H   UNL     1       4.295  -4.253  22.781  0.00  0.00    +0.294 HD
ENDBRANCH  21  23
BRANCH  22  25
ATOM     25  C   UNL     1       5.677  -5.803  23.980  0.00  0.00    +0.179 C 
BRANCH  25  26
ATOM     26  C   UNL     1       4.417  -6.363  24.668  0.00  0.00    +0.161 C 
BRANCH  26  27
ATOM     27  O   UNL     1       4.020  -7.629  24.118  0.00  0.00    -0.388 OA
ATOM     28  H   UNL     1       3.494  -7.432  23.317  0.00  0.00    +0.210 HD
ENDBRANCH  26  27
BRANCH  26  29
ATOM     29  C   UNL     1       4.637  -6.571  26.174  0.00  0.00    +0.189 C 
BRANCH  29  30
ATOM     30  O   UNL     1       6.027  -6.522  26.511  0.00  0.00    -0.392 OA
ATOM     31  H   UNL     1       6.209  -7.285  27.092  0.00  0.00    +0.210 HD
ENDBRANCH  29  30
ENDBRANCH  26  29
ENDBRANCH  25  26
ENDBRANCH  22  25
ENDBRANCH   7  21
BRANCH   1  33
ATOM     32  C   UNL     1       5.559   0.641  28.030  0.00  0.00    +0.214 C 
ATOM     33  N   UNL     1       4.836   0.472  26.953  0.00  0.00    -0.213 NA
BRANCH  32  34
ATOM     34  O   UNL     1       6.875   0.363  28.072  0.00  0.00    -0.494 OA
ATOM     35  H   UNL     1       7.193  -0.062  27.259  0.00  0.00    +0.293 HD
ENDBRANCH  32  34
BRANCH  32  36
ATOM     36  C   UNL     1       4.972   1.198  29.326  0.00  0.00    +0.254 C 
BRANCH  36  38
ATOM     37  C   UNL     1       4.542   3.494  28.989  0.00  0.00    +0.194 C 
ATOM     38  O   UNL     1       5.411   2.527  29.577  0.00  0.00    -0.374 OA
ENDBRANCH  36  38
ENDBRANCH  32  36
ENDBRANCH   1  33
TORSDOF 17
ENDMDL
MODEL 4
REMARK VINA RESULT:      -5.3      1.993      2.771
REMARK  Name = 
REMARK  19 active torsions:
REMARK  status: ('A' for Active; 'I' for Inactive)
REMARK    1  A    between atoms: C_1  and  O_2
REMARK    2  A    between atoms: O_2  and  C_3
REMARK    3  A    between atoms: C_3  and  C_4
REMARK    4  A    between atoms: C_4  and  O_5
REMARK    5  A    between atoms: N_6  and  C_7
REMARK    6  A    between atoms: C_10  and  C_11
REMARK    7  A    between atoms: C_11  and  O_12
REMARK    8  A    between atoms: N_13  and  C_14
REMARK    9  A    between atoms: C_14  and  C_15
REMARK   10  A    between atoms: C_15  and  O_16
REMARK   11  A    between atoms: C_15  and  C_17
REMARK   12  A    between atoms: C_17  and  O_18
REMARK   13  A    between atoms: C_21  and  C_22
REMARK   14  A    between atoms: N_24  and  C_25
REMARK   15  A    between atoms: N_24  and  C_26
REMARK   16  A    between atoms: C_26  and  C_27
REMARK   17  A    between atoms: C_27  and  O_28
REMARK   18  A    between atoms: C_27  and  C_29
REMARK   19  A    between atoms: C_29  and  O_30
REMARK                            x       y       z     vdW  Elec       q    Type
REMARK                         _______ _______ _______ _____ _____    ______ ____
ROOT
ATOM      1  C   UNL     1       6.314   0.943  25.162  0.00  0.00    +0.095 A 
ATOM      2  C   UNL     1       6.314  -0.433  24.830  0.00  0.00    +0.053 A 
ATOM      3  I   UNL     1       4.879  -1.703  25.821  0.00  0.00    -0.041 I 
ATOM      4  C   UNL     1       7.304  -0.994  23.981  0.00  0.00    +0.066 A 
ATOM      5  C   UNL     1       8.372  -0.156  23.576  0.00  0.00    +0.040 A 
ATOM      6  I   UNL     1       9.494  -0.648  21.799  0.00  0.00    -0.042 I 
ATOM      7  C   UNL     1       8.563   1.126  24.162  0.00  0.00    +0.065 A 
ATOM      8  C   UNL     1       7.501   1.682  24.913  0.00  0.00    +0.053 A 
ATOM      9  I   UNL     1       7.627   3.648  25.773  0.00  0.00    -0.041 I 
ENDROOT
BRANCH   4  10
ATOM     10  C   UNL     1       7.070  -2.352  23.407  0.00  0.00    +0.249 C 
ATOM     11  N   UNL     1       7.659  -3.511  23.938  0.00  0.00    -0.298 N 
ATOM     12  C   UNL     1       8.580  -3.559  25.072  0.00  0.00    +0.132 C 
ATOM     13  O   UNL     1       6.315  -2.414  22.435  0.00  0.00    -0.270 OA
BRANCH  11  14
ATOM     14  C   UNL     1       7.391  -4.807  23.279  0.00  0.00    +0.141 C 
BRANCH  14  15
ATOM     15  C   UNL     1       5.959  -5.323  23.530  0.00  0.00    +0.157 C 
BRANCH  15  16
ATOM     16  O   UNL     1       5.630  -6.436  22.686  0.00  0.00    -0.388 OA
ATOM     17  H   UNL     1       6.147  -6.349  21.860  0.00  0.00    +0.210 HD
ENDBRANCH  15  16
BRANCH  15  18
ATOM     18  C   UNL     1       5.744  -5.755  24.987  0.00  0.00    +0.188 C 
BRANCH  18  19
ATOM     19  O   UNL     1       4.826  -6.851  25.040  0.00  0.00    -0.392 OA
ATOM     20  H   UNL     1       4.247  -6.691  25.811  0.00  0.00    +0.210 HD
ENDBRANCH  18  19
ENDBRANCH  15  18
ENDBRANCH  14  15
ENDBRANCH  11  14
ENDBRANCH   4  10
BRANCH   7  21
ATOM     21  C   UNL     1       9.910   1.777  24.041  0.00  0.00    +0.217 C 
ATOM     22  N   UNL     1      10.098   2.886  23.417  0.00  0.00    -0.248 NA
BRANCH  21  23
ATOM     23  O   UNL     1      10.930   1.158  24.671  0.00  0.00    -0.492 OA
ATOM     24  H   UNL     1      11.256   1.648  25.446  0.00  0.00    +0.294 HD
ENDBRANCH  21  23
BRANCH  22  25
ATOM     25  C   UNL     1      11.453   3.461  23.396  0.00  0.00    +0.179 C 
BRANCH  25  26
ATOM     26  C   UNL     1      11.412   4.994  23.238  0.00  0.00    +0.161 C 
BRANCH  26  27
ATOM     27  O   UNL     1      10.326   5.582  23.972  0.00  0.00    -0.388 OA
ATOM     28  H   UNL     1      10.179   5.015  24.754  0.00  0.00    +0.210 HD
ENDBRANCH  26  27
BRANCH  26  29
ATOM     29  C   UNL     1      12.707   5.652  23.740  0.00  0.00    +0.189 C 
BRANCH  29  30
ATOM     30  O   UNL     1      13.864   5.001  23.206  0.00  0.00    -0.392 OA
ATOM     31  H   UNL     1      13.684   4.821  22.264  0.00  0.00    +0.210 HD
ENDBRANCH  29  30
ENDBRANCH  26  29
ENDBRANCH  25  26
ENDBRANCH  22  25
ENDBRANCH   7  21
BRANCH   1  33
ATOM     32  C   UNL     1       4.301   2.191  25.086  0.00  0.00    +0.214 C 
ATOM     33  N   UNL     1       5.205   1.571  25.802  0.00  0.00    -0.213 NA
BRANCH  32  34
ATOM     34  O   UNL     1       4.343   2.231  23.742  0.00  0.00    -0.494 OA
ATOM     35  H   UNL     1       3.784   1.552  23.330  0.00  0.00    +0.293 HD
ENDBRANCH  32  34
BRANCH  32  36
ATOM     36  C   UNL     1       3.105   2.898  25.720  0.00  0.00    +0.254 C 
BRANCH  36  38
ATOM     37  C   UNL     1       0.801   2.385  25.712  0.00  0.00    +0.194 C 
ATOM     38  O   UNL     1       2.103   1.977  26.132  0.00  0.00    -0.374 OA
ENDBRANCH  36  38
ENDBRANCH  32  36
ENDBRANCH   1  33
TORSDOF 17
ENDMDL
MODEL 5
REMARK VINA RESULT:      -5.2      2.752      7.611
REMARK  Name = 
REMARK  19 active torsions:
REMARK  status: ('A' for Active; 'I' for Inactive)
REMARK    1  A    between atoms: C_1  and  O_2
REMARK    2  A    between atoms: O_2  and  C_3
REMARK    3  A    between atoms: C_3  and  C_4
REMARK    4  A    between atoms: C_4  and  O_5
REMARK    5  A    between atoms: N_6  and  C_7
REMARK    6  A    between atoms: C_10  and  C_11
REMARK    7  A    between atoms: C_11  and  O_12
REMARK    8  A    between atoms: N_13  and  C_14
REMARK    9  A    between atoms: C_14  and  C_15
REMARK   10  A    between atoms: C_15  and  O_16
REMARK   11  A    between atoms: C_15  and  C_17
REMARK   12  A    between atoms: C_17  and  O_18
REMARK   13  A    between atoms: C_21  and  C_22
REMARK   14  A    between atoms: N_24  and  C_25
REMARK   15  A    between atoms: N_24  and  C_26
REMARK   16  A    between atoms: C_26  and  C_27
REMARK   17  A    between atoms: C_27  and  O_28
REMARK   18  A    between atoms: C_27  and  C_29
REMARK   19  A    between atoms: C_29  and  O_30
REMARK                            x       y       z     vdW  Elec       q    Type
REMARK                         _______ _______ _______ _____ _____    ______ ____
ROOT
ATOM      1  C   UNL     1       6.610   0.542  25.969  0.00  0.00    +0.095 A 
ATOM      2  C   UNL     1       7.184   1.430  25.028  0.00  0.00    +0.053 A 
ATOM      3  I   UNL     1       6.928   3.546  25.362  0.00  0.00    -0.041 I 
ATOM      4  C   UNL     1       7.788   0.960  23.832  0.00  0.00    +0.066 A 
ATOM      5  C   UNL     1       7.688  -0.424  23.548  0.00  0.00    +0.040 A 
ATOM      6  I   UNL     1       9.107  -1.338  22.203  0.00  0.00    -0.042 I 
ATOM      7  C   UNL     1       6.839  -1.272  24.311  0.00  0.00    +0.065 A 
ATOM      8  C   UNL     1       6.347  -0.788  25.546  0.00  0.00    +0.053 A 
ATOM      9  I   UNL     1       5.132  -2.002  26.838  0.00  0.00    -0.041 I 
ENDROOT
BRANCH   4  10
ATOM     10  C   UNL     1       8.654   1.893  23.052  0.00  0.00    +0.249 C 
ATOM     11  N   UNL     1      10.016   2.079  23.336  0.00  0.00    -0.298 N 
ATOM     12  C   UNL     1      10.760   1.433  24.416  0.00  0.00    +0.132 C 
ATOM     13  O   UNL     1       8.112   2.498  22.125  0.00  0.00    -0.270 OA
BRANCH  11  14
ATOM     14  C   UNL     1      10.783   3.049  22.527  0.00  0.00    +0.141 C 
BRANCH  14  15
ATOM     15  C   UNL     1      11.388   4.189  23.371  0.00  0.00    +0.157 C 
BRANCH  15  16
ATOM     16  O   UNL     1      12.375   4.936  22.643  0.00  0.00    -0.388 OA
ATOM     17  H   UNL     1      11.906   5.585  22.082  0.00  0.00    +0.210 HD
ENDBRANCH  15  16
BRANCH  15  18
ATOM     18  C   UNL     1      10.321   5.175  23.867  0.00  0.00    +0.188 C 
BRANCH  18  19
ATOM     19  O   UNL     1       9.304   5.334  22.872  0.00  0.00    -0.392 OA
ATOM     20  H   UNL     1       9.187   4.458  22.454  0.00  0.00    +0.210 HD
ENDBRANCH  18  19
ENDBRANCH  15  18
ENDBRANCH  14  15
ENDBRANCH  11  14
ENDBRANCH   4  10
BRANCH   7  21
ATOM     21  C   UNL     1       6.424  -2.590  23.724  0.00  0.00    +0.217 C 
ATOM     22  N   UNL     1       6.941  -3.711  24.087  0.00  0.00    -0.248 NA
BRANCH  21  23
ATOM     23  O   UNL     1       5.431  -2.550  22.811  0.00  0.00    -0.492 OA
ATOM     24  H   UNL     1       5.667  -2.980  21.970  0.00  0.00    +0.294 HD
ENDBRANCH  21  23
BRANCH  22  25
ATOM     25  C   UNL     1       6.430  -4.951  23.479  0.00  0.00    +0.179 C 
BRANCH  25  26
ATOM     26  C   UNL     1       7.234  -5.334  22.221  0.00  0.00    +0.161 C 
BRANCH  26  27
ATOM     27  O   UNL     1       8.020  -6.519  22.424  0.00  0.00    -0.388 OA
ATOM     28  H   UNL     1       8.876  -6.225  22.796  0.00  0.00    +0.210 HD
ENDBRANCH  26  27
BRANCH  26  29
ATOM     29  C   UNL     1       6.316  -5.598  21.018  0.00  0.00    +0.189 C 
BRANCH  29  30
ATOM     30  O   UNL     1       5.744  -4.384  20.520  0.00  0.00    -0.392 OA
ATOM     31  H   UNL     1       4.778  -4.455  20.632  0.00  0.00    +0.210 HD
ENDBRANCH  29  30
ENDBRANCH  26  29
ENDBRANCH  25  26
ENDBRANCH  22  25
ENDBRANCH   7  21
BRANCH   1  33
ATOM     32  C   UNL     1       7.057   0.837  28.278  0.00  0.00    +0.214 C 
ATOM     33  N   UNL     1       6.225   0.964  27.276  0.00  0.00    -0.213 NA
BRANCH  32  34
ATOM     34  O   UNL     1       8.305   0.357  28.127  0.00  0.00    -0.494 OA
ATOM     35  H   UNL     1       8.955   0.824  28.676  0.00  0.00    +0.293 HD
ENDBRANCH  32  34
BRANCH  32  36
ATOM     36  C   UNL     1       6.689   1.252  29.701  0.00  0.00    +0.254 C 
BRANCH  36  38
ATOM     37  C   UNL     1       6.848   3.605  29.768  0.00  0.00    +0.194 C 
ATOM     38  O   UNL     1       7.453   2.368  30.140  0.00  0.00    -0.374 OA
ENDBRANCH  36  38
ENDBRANCH  32  36
ENDBRANCH   1  33
TORSDOF 17
ENDMDL
MODEL 6
REMARK VINA RESULT:      -5.2      1.733      2.278
REMARK  Name = 
REMARK  19 active torsions:
REMARK  status: ('A' for Active; 'I' for Inactive)
REMARK    1  A    between atoms: C_1  and  O_2
REMARK    2  A    between atoms: O_2  and  C_3
REMARK    3  A    between atoms: C_3  and  C_4
REMARK    4  A    between atoms: C_4  and  O_5
REMARK    5  A    between atoms: N_6  and  C_7
REMARK    6  A    between atoms: C_10  and  C_11
REMARK    7  A    between atoms: C_11  and  O_12
REMARK    8  A    between atoms: N_13  and  C_14
REMARK    9  A    between atoms: C_14  and  C_15
REMARK   10  A    between atoms: C_15  and  O_16
REMARK   11  A    between atoms: C_15  and  C_17
REMARK   12  A    between atoms: C_17  and  O_18
REMARK   13  A    between atoms: C_21  and  C_22
REMARK   14  A    between atoms: N_24  and  C_25
REMARK   15  A    between atoms: N_24  and  C_26
REMARK   16  A    between atoms: C_26  and  C_27
REMARK   17  A    between atoms: C_27  and  O_28
REMARK   18  A    between atoms: C_27  and  C_29
REMARK   19  A    between atoms: C_29  and  O_30
REMARK                            x       y       z     vdW  Elec       q    Type
REMARK                         _______ _______ _______ _____ _____    ______ ____
ROOT
ATOM      1  C   UNL     1       6.463   1.888  25.067  0.00  0.00    +0.095 A 
ATOM      2  C   UNL     1       6.746   0.555  25.450  0.00  0.00    +0.053 A 
ATOM      3  I   UNL     1       5.699  -0.241  27.160  0.00  0.00    -0.041 I 
ATOM      4  C   UNL     1       7.779  -0.195  24.827  0.00  0.00    +0.066 A 
ATOM      5  C   UNL     1       8.604   0.477  23.892  0.00  0.00    +0.040 A 
ATOM      6  I   UNL     1       9.688  -0.667  22.417  0.00  0.00    -0.042 I 
ATOM      7  C   UNL     1       8.543   1.889  23.739  0.00  0.00    +0.065 A 
ATOM      8  C   UNL     1       7.436   2.574  24.293  0.00  0.00    +0.053 A 
ATOM      9  I   UNL     1       7.177   4.694  24.053  0.00  0.00    -0.041 I 
ENDROOT
BRANCH   4  10
ATOM     10  C   UNL     1       7.815  -1.673  25.034  0.00  0.00    +0.249 C 
ATOM     11  N   UNL     1       6.991  -2.558  24.322  0.00  0.00    -0.298 N 
ATOM     12  C   UNL     1       5.989  -2.180  23.328  0.00  0.00    +0.132 C 
ATOM     13  O   UNL     1       8.623  -2.090  25.867  0.00  0.00    -0.270 OA
BRANCH  11  14
ATOM     14  C   UNL     1       7.078  -4.003  24.621  0.00  0.00    +0.141 C 
BRANCH  14  15
ATOM     15  C   UNL     1       7.914  -4.781  23.584  0.00  0.00    +0.157 C 
BRANCH  15  16
ATOM     16  O   UNL     1       8.991  -5.509  24.194  0.00  0.00    -0.388 OA
ATOM     17  H   UNL     1       8.619  -6.032  24.931  0.00  0.00    +0.210 HD
ENDBRANCH  15  16
BRANCH  15  18
ATOM     18  C   UNL     1       7.066  -5.777  22.782  0.00  0.00    +0.188 C 
BRANCH  18  19
ATOM     19  O   UNL     1       7.157  -5.480  21.385  0.00  0.00    -0.392 OA
ATOM     20  H   UNL     1       6.767  -4.592  21.265  0.00  0.00    +0.210 HD
ENDBRANCH  18  19
ENDBRANCH  15  18
ENDBRANCH  14  15
ENDBRANCH  11  14
ENDBRANCH   4  10
BRANCH   7  21
ATOM     21  C   UNL     1       9.700   2.593  23.091  0.00  0.00    +0.217 C 
ATOM     22  N   UNL     1      10.635   3.166  23.763  0.00  0.00    -0.248 NA
BRANCH  21  23
ATOM     23  O   UNL     1       9.740   2.557  21.742  0.00  0.00    -0.492 OA
ATOM     24  H   UNL     1       8.899   2.815  21.327  0.00  0.00    +0.294 HD
ENDBRANCH  21  23
BRANCH  22  25
ATOM     25  C   UNL     1      11.748   3.791  23.028  0.00  0.00    +0.179 C 
BRANCH  25  26
ATOM     26  C   UNL     1      12.279   5.037  23.763  0.00  0.00    +0.161 C 
BRANCH  26  27
ATOM     27  O   UNL     1      13.357   5.665  23.050  0.00  0.00    -0.388 OA
ATOM     28  H   UNL     1      14.180   5.416  23.516  0.00  0.00    +0.210 HD
ENDBRANCH  26  27
BRANCH  26  29
ATOM     29  C   UNL     1      11.182   6.096  23.951  0.00  0.00    +0.189 C 
BRANCH  29  30
ATOM     30  O   UNL     1      10.241   6.071  22.873  0.00  0.00    -0.392 OA
ATOM     31  H   UNL     1      10.286   5.182  22.473  0.00  0.00    +0.210 HD
ENDBRANCH  29  30
ENDBRANCH  26  29
ENDBRANCH  25  26
ENDBRANCH  22  25
ENDBRANCH   7  21
BRANCH   1  33
ATOM     32  C   UNL     1       4.266   2.693  24.687  0.00  0.00    +0.214 C 
ATOM     33  N   UNL     1       5.286   2.568  25.498  0.00  0.00    -0.213 NA
BRANCH  32  34
ATOM     34  O   UNL     1       4.254   2.160  23.451  0.00  0.00    -0.494 OA
ATOM     35  H   UNL     1       4.917   1.461  23.338  0.00  0.00    +0.293 HD
ENDBRANCH  32  34
BRANCH  32  36
ATOM     36  C   UNL     1       2.990   3.429  25.089  0.00  0.00    +0.254 C 
BRANCH  36  38
ATOM     37  C   UNL     1       2.189   3.454  27.308  0.00  0.00    +0.194 C 
ATOM     38  O   UNL     1       3.105   4.024  26.375  0.00  0.00    -0.374 OA
ENDBRANCH  36  38
ENDBRANCH  32  36
ENDBRANCH   1  33
TORSDOF 17
ENDMDL
MODEL 7
REMARK VINA RESULT:      -5.2      2.089      7.161
REMARK  Name = 
REMARK  19 active torsions:
REMARK  status: ('A' for Active; 'I' for Inactive)
REMARK    1  A    between atoms: C_1  and  O_2
REMARK    2  A    between atoms: O_2  and  C_3
REMARK    3  A    between atoms: C_3  and  C_4
REMARK    4  A    between atoms: C_4  and  O_5
REMARK    5  A    between atoms: N_6  and  C_7
REMARK    6  A    between atoms: C_10  and  C_11
REMARK    7  A    between atoms: C_11  and  O_12
REMARK    8  A    between atoms: N_13  and  C_14
REMARK    9  A    between atoms: C_14  and  C_15
REMARK   10  A    between atoms: C_15  and  O_16
REMARK   11  A    between atoms: C_15  and  C_17
REMARK   12  A    between atoms: C_17  and  O_18
REMARK   13  A    between atoms: C_21  and  C_22
REMARK   14  A    between atoms: N_24  and  C_25
REMARK   15  A    between atoms: N_24  and  C_26
REMARK   16  A    between atoms: C_26  and  C_27
REMARK   17  A    between atoms: C_27  and  O_28
REMARK   18  A    between atoms: C_27  and  C_29
REMARK   19  A    between atoms: C_29  and  O_30
REMARK                            x       y       z     vdW  Elec       q    Type
REMARK                         _______ _______ _______ _____ _____    ______ ____
ROOT
ATOM      1  C   UNL     1       5.286   0.510  25.663  0.00  0.00    +0.095 A 
ATOM      2  C   UNL     1       5.934   1.699  25.251  0.00  0.00    +0.053 A 
ATOM      3  I   UNL     1       4.738   3.487  25.088  0.00  0.00    -0.041 I 
ATOM      4  C   UNL     1       7.288   1.699  24.825  0.00  0.00    +0.066 A 
ATOM      5  C   UNL     1       7.938   0.446  24.704  0.00  0.00    +0.040 A 
ATOM      6  I   UNL     1      10.094   0.357  24.762  0.00  0.00    -0.042 I 
ATOM      7  C   UNL     1       7.210  -0.771  24.797  0.00  0.00    +0.065 A 
ATOM      8  C   UNL     1       5.898  -0.727  25.326  0.00  0.00    +0.053 A 
ATOM      9  I   UNL     1       4.725  -2.506  25.605  0.00  0.00    -0.041 I 
ENDROOT
BRANCH   4  10
ATOM     10  C   UNL     1       8.006   3.004  24.721  0.00  0.00    +0.249 C 
ATOM     11  N   UNL     1       8.370   3.573  23.490  0.00  0.00    -0.298 N 
ATOM     12  C   UNL     1       8.137   2.982  22.174  0.00  0.00    +0.132 C 
ATOM     13  O   UNL     1       8.261   3.576  25.783  0.00  0.00    -0.270 OA
BRANCH  11  14
ATOM     14  C   UNL     1       9.108   4.854  23.492  0.00  0.00    +0.141 C 
BRANCH  14  15
ATOM     15  C   UNL     1      10.605   4.684  23.820  0.00  0.00    +0.157 C 
BRANCH  15  16
ATOM     16  O   UNL     1      11.296   3.931  22.812  0.00  0.00    -0.388 OA
ATOM     17  H   UNL     1      11.083   4.326  21.944  0.00  0.00    +0.210 HD
ENDBRANCH  15  16
BRANCH  15  18
ATOM     18  C   UNL     1      11.322   6.032  23.978  0.00  0.00    +0.188 C 
BRANCH  18  19
ATOM     19  O   UNL     1      12.713   5.816  24.238  0.00  0.00    -0.392 OA
ATOM     20  H   UNL     1      12.776   5.497  25.160  0.00  0.00    +0.210 HD
ENDBRANCH  18  19
ENDBRANCH  15  18
ENDBRANCH  14  15
ENDBRANCH  11  14
ENDBRANCH   4  10
BRANCH   7  21
ATOM     21  C   UNL     1       7.824  -2.021  24.238  0.00  0.00    +0.217 C 
ATOM     22  N   UNL     1       8.409  -2.902  24.970  0.00  0.00    -0.248 NA
BRANCH  21  23
ATOM     23  O   UNL     1       7.694  -2.206  22.907  0.00  0.00    -0.492 OA
ATOM     24  H   UNL     1       6.770  -2.160  22.603  0.00  0.00    +0.294 HD
ENDBRANCH  21  23
BRANCH  22  25
ATOM     25  C   UNL     1       8.941  -4.114  24.325  0.00  0.00    +0.179 C 
BRANCH  25  26
ATOM     26  C   UNL     1       8.859  -5.334  25.264  0.00  0.00    +0.161 C 
BRANCH  26  27
ATOM     27  O   UNL     1      10.116  -5.608  25.902  0.00  0.00    -0.388 OA
ATOM     28  H   UNL     1      10.787  -5.068  25.439  0.00  0.00    +0.210 HD
ENDBRANCH  26  27
BRANCH  26  29
ATOM     29  C   UNL     1       7.820  -5.126  26.376  0.00  0.00    +0.189 C 
BRANCH  29  30
ATOM     30  O   UNL     1       8.055  -6.004  27.482  0.00  0.00    -0.392 OA
ATOM     31  H   UNL     1       8.194  -6.898  27.114  0.00  0.00    +0.210 HD
ENDBRANCH  29  30
ENDBRANCH  26  29
ENDBRANCH  25  26
ENDBRANCH  22  25
ENDBRANCH   7  21
BRANCH   1  33
ATOM     32  C   UNL     1       3.962   0.607  27.626  0.00  0.00    +0.214 C 
ATOM     33  N   UNL     1       4.021   0.523  26.321  0.00  0.00    -0.213 NA
BRANCH  32  34
ATOM     34  O   UNL     1       5.059   0.730  28.394  0.00  0.00    -0.494 OA
ATOM     35  H   UNL     1       5.666   1.416  28.074  0.00  0.00    +0.293 HD
ENDBRANCH  32  34
BRANCH  32  36
ATOM     36  C   UNL     1       2.636   0.604  28.384  0.00  0.00    +0.254 C 
BRANCH  36  38
ATOM     37  C   UNL     1       2.369  -1.697  28.835  0.00  0.00    +0.194 C 
ATOM     38  O   UNL     1       1.876  -0.568  28.115  0.00  0.00    -0.374 OA
ENDBRANCH  36  38
ENDBRANCH  32  36
ENDBRANCH   1  33
TORSDOF 17
ENDMDL
MODEL 8
REMARK VINA RESULT:      -5.1      3.547      8.073
REMARK  Name = 
REMARK  19 active torsions:
REMARK  status: ('A' for Active; 'I' for Inactive)
REMARK    1  A    between atoms: C_1  and  O_2
REMARK    2  A    between atoms: O_2  and  C_3
REMARK    3  A    between atoms: C_3  and  C_4
REMARK    4  A    between atoms: C_4  and  O_5
REMARK    5  A    between atoms: N_6  and  C_7
REMARK    6  A    between atoms: C_10  and  C_11
REMARK    7  A    between atoms: C_11  and  O_12
REMARK    8  A    between atoms: N_13  and  C_14
REMARK    9  A    between atoms: C_14  and  C_15
REMARK   10  A    between atoms: C_15  and  O_16
REMARK   11  A    between atoms: C_15  and  C_17
REMARK   12  A    between atoms: C_17  and  O_18
REMARK   13  A    between atoms: C_21  and  C_22
REMARK   14  A    between atoms: N_24  and  C_25
REMARK   15  A    between atoms: N_24  and  C_26
REMARK   16  A    between atoms: C_26  and  C_27
REMARK   17  A    between atoms: C_27  and  O_28
REMARK   18  A    between atoms: C_27  and  C_29
REMARK   19  A    between atoms: C_29  and  O_30
REMARK                            x       y       z     vdW  Elec       q    Type
REMARK                         _______ _______ _______ _____ _____    ______ ____
ROOT
ATOM      1  C   UNL     1       5.919   0.198  26.597  0.00  0.00    +0.095 A 
ATOM      2  C   UNL     1       6.507   0.584  25.368  0.00  0.00    +0.053 A 
ATOM      3  I   UNL     1       6.909   2.682  25.064  0.00  0.00    -0.041 I 
ATOM      4  C   UNL     1       6.704  -0.345  24.313  0.00  0.00    +0.066 A 
ATOM      5  C   UNL     1       6.176  -1.649  24.481  0.00  0.00    +0.040 A 
ATOM      6  I   UNL     1       6.989  -3.281  23.326  0.00  0.00    -0.042 I 
ATOM      7  C   UNL     1       5.303  -1.955  25.561  0.00  0.00    +0.065 A 
ATOM      8  C   UNL     1       5.224  -1.040  26.636  0.00  0.00    +0.053 A 
ATOM      9  I   UNL     1       4.015  -1.427  28.371  0.00  0.00    -0.041 I 
ENDROOT
BRANCH   4  10
ATOM     10  C   UNL     1       7.612   0.029  23.189  0.00  0.00    +0.249 C 
ATOM     11  N   UNL     1       9.009  -0.083  23.274  0.00  0.00    -0.298 N 
ATOM     12  C   UNL     1       9.760  -0.539  24.442  0.00  0.00    +0.132 C 
ATOM     13  O   UNL     1       7.072   0.440  22.161  0.00  0.00    -0.270 OA
BRANCH  11  14
ATOM     14  C   UNL     1       9.826   0.343  22.118  0.00  0.00    +0.141 C 
BRANCH  14  15
ATOM     15  C   UNL     1      10.047   1.868  22.069  0.00  0.00    +0.157 C 
BRANCH  15  16
ATOM     16  O   UNL     1       8.879   2.569  21.615  0.00  0.00    -0.388 OA
ATOM     17  H   UNL     1       8.096   2.034  21.855  0.00  0.00    +0.210 HD
ENDBRANCH  15  16
BRANCH  15  18
ATOM     18  C   UNL     1      10.440   2.443  23.437  0.00  0.00    +0.188 C 
BRANCH  18  19
ATOM     19  O   UNL     1      10.328   3.869  23.417  0.00  0.00    -0.392 OA
ATOM     20  H   UNL     1       9.618   4.082  22.780  0.00  0.00    +0.210 HD
ENDBRANCH  18  19
ENDBRANCH  15  18
ENDBRANCH  14  15
ENDBRANCH  11  14
ENDBRANCH   4  10
BRANCH   7  21
ATOM     21  C   UNL     1       4.436  -3.176  25.460  0.00  0.00    +0.217 C 
ATOM     22  N   UNL     1       4.802  -4.332  25.891  0.00  0.00    -0.248 NA
BRANCH  21  23
ATOM     23  O   UNL     1       3.210  -2.995  24.925  0.00  0.00    -0.492 OA
ATOM     24  H   UNL     1       2.838  -2.114  25.111  0.00  0.00    +0.294 HD
ENDBRANCH  21  23
BRANCH  22  25
ATOM     25  C   UNL     1       3.856  -5.455  25.782  0.00  0.00    +0.179 C 
BRANCH  25  26
ATOM     26  C   UNL     1       4.478  -6.643  25.022  0.00  0.00    +0.161 C 
BRANCH  26  27
ATOM     27  O   UNL     1       3.733  -7.856  25.215  0.00  0.00    -0.388 OA
ATOM     28  H   UNL     1       2.809  -7.658  24.963  0.00  0.00    +0.210 HD
ENDBRANCH  26  27
BRANCH  26  29
ATOM     29  C   UNL     1       4.535  -6.382  23.509  0.00  0.00    +0.189 C 
BRANCH  29  30
ATOM     30  O   UNL     1       3.544  -5.432  23.105  0.00  0.00    -0.392 OA
ATOM     31  H   UNL     1       3.981  -4.560  23.068  0.00  0.00    +0.210 HD
ENDBRANCH  29  30
ENDBRANCH  26  29
ENDBRANCH  25  26
ENDBRANCH  22  25
ENDBRANCH   7  21
BRANCH   1  33
ATOM     32  C   UNL     1       6.996   1.080  28.515  0.00  0.00    +0.214 C 
ATOM     33  N   UNL     1       5.937   1.043  27.746  0.00  0.00    -0.213 NA
BRANCH  32  34
ATOM     34  O   UNL     1       8.112   0.380  28.245  0.00  0.00    -0.494 OA
ATOM     35  H   UNL     1       8.408  -0.158  28.997  0.00  0.00    +0.293 HD
ENDBRANCH  32  34
BRANCH  32  36
ATOM     36  C   UNL     1       7.062   1.949  29.769  0.00  0.00    +0.254 C 
BRANCH  36  38
ATOM     37  C   UNL     1       6.603   4.221  29.323  0.00  0.00    +0.194 C 
ATOM     38  O   UNL     1       7.616   3.230  29.496  0.00  0.00    -0.374 OA
ENDBRANCH  36  38
ENDBRANCH  32  36
ENDBRANCH   1  33
TORSDOF 17
ENDMDL
MODEL 9
REMARK VINA RESULT:      -5.0      2.555      6.453
REMARK  Name = 
REMARK  19 active torsions:
REMARK  status: ('A' for Active; 'I' for Inactive)
REMARK    1  A    between atoms: C_1  and  O_2
REMARK    2  A    between atoms: O_2  and  C_3
REMARK    3  A    between atoms: C_3  and  C_4
REMARK    4  A    between atoms: C_4  and  O_5
REMARK    5  A    between atoms: N_6  and  C_7
REMARK    6  A    between atoms: C_10  and  C_11
REMARK    7  A    between atoms: C_11  and  O_12
REMARK    8  A    between atoms: N_13  and  C_14
REMARK    9  A    between atoms: C_14  and  C_15
REMARK   10  A    between atoms: C_15  and  O_16
REMARK   11  A    between atoms: C_15  and  C_17
REMARK   12  A    between atoms: C_17  and  O_18
REMARK   13  A    between atoms: C_21  and  C_22
REMARK   14  A    between atoms: N_24  and  C_25
REMARK   15  A    between atoms: N_24  and  C_26
REMARK   16  A    between atoms: C_26  and  C_27
REMARK   17  A    between atoms: C_27  and  O_28
REMARK   18  A    between atoms: C_27  and  C_29
REMARK   19  A    between atoms: C_29  and  O_30
REMARK                            x       y       z     vdW  Elec       q    Type
REMARK                         _______ _______ _______ _____ _____    ______ ____
ROOT
ATOM      1  C   UNL     1       8.082   3.334  23.692  0.00  0.00    +0.095 A 
ATOM      2  C   UNL     1       8.298   1.984  24.056  0.00  0.00    +0.053 A 
ATOM      3  I   UNL     1      10.149   1.063  23.437  0.00  0.00    -0.041 I 
ATOM      4  C   UNL     1       7.287   1.210  24.685  0.00  0.00    +0.066 A 
ATOM      5  C   UNL     1       6.005   1.797  24.824  0.00  0.00    +0.040 A 
ATOM      6  I   UNL     1       4.650   1.047  26.327  0.00  0.00    -0.042 I 
ATOM      7  C   UNL     1       5.682   3.020  24.175  0.00  0.00    +0.065 A 
ATOM      8  C   UNL     1       6.741   3.801  23.656  0.00  0.00    +0.053 A 
ATOM      9  I   UNL     1       6.397   5.713  22.735  0.00  0.00    -0.041 I 
ENDROOT
BRANCH   4  10
ATOM     10  C   UNL     1       7.669  -0.078  25.334  0.00  0.00    +0.249 C 
ATOM     11  N   UNL     1       7.417  -1.327  24.746  0.00  0.00    -0.298 N 
ATOM     12  C   UNL     1       6.740  -1.550  23.470  0.00  0.00    +0.132 C 
ATOM     13  O   UNL     1       8.235   0.005  26.426  0.00  0.00    -0.270 OA
BRANCH  11  14
ATOM     14  C   UNL     1       7.805  -2.549  25.483  0.00  0.00    +0.141 C 
BRANCH  14  15
ATOM     15  C   UNL     1       8.688  -3.498  24.647  0.00  0.00    +0.157 C 
BRANCH  15  16
ATOM     16  O   UNL     1       9.880  -2.851  24.175  0.00  0.00    -0.388 OA
ATOM     17  H   UNL     1      10.051  -2.081  24.752  0.00  0.00    +0.210 HD
ENDBRANCH  15  16
BRANCH  15  18
ATOM     18  C   UNL     1       9.109  -4.746  25.435  0.00  0.00    +0.188 C 
BRANCH  18  19
ATOM     19  O   UNL     1      10.379  -5.212  24.970  0.00  0.00    -0.392 OA
ATOM     20  H   UNL     1      10.673  -5.896  25.603  0.00  0.00    +0.210 HD
ENDBRANCH  18  19
ENDBRANCH  15  18
ENDBRANCH  14  15
ENDBRANCH  11  14
ENDBRANCH   4  10
BRANCH   7  21
ATOM     21  C   UNL     1       4.235   3.371  23.980  0.00  0.00    +0.217 C 
ATOM     22  N   UNL     1       3.522   2.895  23.021  0.00  0.00    -0.248 NA
BRANCH  21  23
ATOM     23  O   UNL     1       3.691   4.191  24.904  0.00  0.00    -0.492 OA
ATOM     24  H   UNL     1       3.284   3.713  25.648  0.00  0.00    +0.294 HD
ENDBRANCH  21  23
BRANCH  22  25
ATOM     25  C   UNL     1       2.100   3.270  22.947  0.00  0.00    +0.179 C 
BRANCH  25  26
ATOM     26  C   UNL     1       1.800   4.096  21.681  0.00  0.00    +0.161 C 
BRANCH  26  27
ATOM     27  O   UNL     1       2.971   4.762  21.182  0.00  0.00    -0.388 OA
ATOM     28  H   UNL     1       3.140   4.397  20.290  0.00  0.00    +0.210 HD
ENDBRANCH  26  27
BRANCH  26  29
ATOM     29  C   UNL     1       1.260   3.215  20.544  0.00  0.00    +0.189 C 
BRANCH  29  30
ATOM     30  O   UNL     1       1.713   1.863  20.669  0.00  0.00    -0.392 OA
ATOM     31  H   UNL     1       1.393   1.532  21.529  0.00  0.00    +0.210 HD
ENDBRANCH  29  30
ENDBRANCH  26  29
ENDBRANCH  25  26
ENDBRANCH  22  25
ENDBRANCH   7  21
BRANCH   1  33
ATOM     32  C   UNL     1       9.632   5.072  24.132  0.00  0.00    +0.214 C 
ATOM     33  N   UNL     1       9.147   4.193  23.292  0.00  0.00    -0.213 NA
BRANCH  32  34
ATOM     34  O   UNL     1       9.195   5.180  25.400  0.00  0.00    -0.494 OA
ATOM     35  H   UNL     1       9.616   5.910  25.881  0.00  0.00    +0.293 HD
ENDBRANCH  32  34
BRANCH  32  36
ATOM     36  C   UNL     1      10.757   6.031  23.750  0.00  0.00    +0.254 C 
BRANCH  36  38
ATOM     37  C   UNL     1      12.837   5.278  22.928  0.00  0.00    +0.194 C 
ATOM     38  O   UNL     1      12.035   5.507  24.086  0.00  0.00    -0.374 OA
ENDBRANCH  36  38
ENDBRANCH  32  36
ENDBRANCH   1  33
TORSDOF 17
ENDMDL
