MODEL 1
REMARK VINA RESULT:      -6.0      0.000      0.000
REMARK  Name = 
REMARK  5 active torsions:
REMARK  status: ('A' for Active; 'I' for Inactive)
REMARK    1  A    between atoms: N_1  and  CA_2
REMARK    2  A    between atoms: CA_2  and  C_4
REMARK    3  A    between atoms: CA_2  and  C_16
REMARK    4  A    between atoms: C_4  and  C_5
REMARK    5  A    between atoms: C_16  and  O_17
REMARK                            x       y       z     vdW  Elec       q    Type
REMARK                         _______ _______ _______ _____ _____    ______ ____
ROOT
ATOM      1  C   UNL     1       7.663  -3.875  23.236  0.00  0.00    -0.034 C 
ATOM      2  C   UNL     1       6.603  -4.857  23.191  0.00  0.00    +0.085 A 
ATOM      3  C   UNL     1       5.856  -5.327  22.009  0.00  0.00    +0.288 A 
ATOM      4  N   UNL     1       5.033  -6.340  22.425  0.00  0.00    -0.184 N 
ATOM      5  H   UNL     1       4.240  -6.667  21.893  0.00  0.00    +0.211 HD
ATOM      6  O   UNL     1       5.015  -6.407  23.835  0.00  0.00    -0.381 OA
ATOM      7  O   UNL     1       5.918  -4.880  20.878  0.00  0.00    -0.264 OA
ATOM      8  C   UNL     1       6.018  -5.515  24.198  0.00  0.00    +0.146 A 
ATOM      9  C   UNL     1       6.306  -5.446  25.666  0.00  0.00    +0.078 C 
ATOM     10  C   UNL     1       7.733  -5.130  26.145  0.00  0.00    +0.012 C 
ATOM     11  C   UNL     1       8.836  -5.138  25.088  0.00  0.00    +0.028 C 
ATOM     12  C   UNL     1       8.689  -4.016  24.101  0.00  0.00    -0.022 C 
ENDROOT
BRANCH   1  13
ATOM     13  C   UNL     1       7.634  -2.699  22.277  0.00  0.00    +0.065 C 
BRANCH  13  14
ATOM     14  CA  UNL     1       8.275  -1.418  22.841  0.00  0.00    +0.165 C 
BRANCH  14  15
ATOM     15  N   UNL     1       7.294  -0.310  23.084  0.00  0.00    -0.318 NA
ATOM     16  H1  UNL     1       7.698   0.552  22.694  0.00  0.00    +0.119 HD
ATOM     17  H2  UNL     1       6.480  -0.494  22.488  0.00  0.00    +0.119 HD
ENDBRANCH  14  15
BRANCH  14  18
ATOM     18  C   UNL     1       9.341  -0.908  21.858  0.00  0.00    +0.322 C 
ATOM     19  OXT UNL     1       9.251   0.100  21.177  0.00  0.00    -0.249 OA
BRANCH  18  20
ATOM     20  O   UNL     1      10.412  -1.747  21.814  0.00  0.00    -0.480 OA
ATOM     21  H   UNL     1      10.467  -2.150  22.717  0.00  0.00    +0.295 HD
ENDBRANCH  18  20
ENDBRANCH  14  18
ENDBRANCH  13  14
ENDBRANCH   1  13
TORSDOF 5
ENDMDL
MODEL 2
REMARK VINA RESULT:      -5.9      3.222      6.382
REMARK  Name = 
REMARK  5 active torsions:
REMARK  status: ('A' for Active; 'I' for Inactive)
REMARK    1  A    between atoms: N_1  and  CA_2
REMARK    2  A    between atoms: CA_2  and  C_4
REMARK    3  A    between atoms: CA_2  and  C_16
REMARK    4  A    between atoms: C_4  and  C_5
REMARK    5  A    between atoms: C_16  and  O_17
REMARK                            x       y       z     vdW  Elec       q    Type
REMARK                         _______ _______ _______ _____ _____    ______ ____
ROOT
ATOM      1  C   UNL     1       5.951  -5.508  24.878  0.00  0.00    -0.034 C 
ATOM      2  C   UNL     1       7.339  -5.152  25.075  0.00  0.00    +0.085 A 
ATOM      3  C   UNL     1       8.167  -5.377  26.275  0.00  0.00    +0.288 A 
ATOM      4  N   UNL     1       9.443  -4.984  25.966  0.00  0.00    -0.184 N 
ATOM      5  H   UNL     1      10.149  -4.790  26.660  0.00  0.00    +0.211 HD
ATOM      6  O   UNL     1       9.458  -4.300  24.732  0.00  0.00    -0.381 OA
ATOM      7  O   UNL     1       7.793  -5.793  27.356  0.00  0.00    -0.264 OA
ATOM      8  C   UNL     1       8.166  -4.493  24.256  0.00  0.00    +0.146 A 
ATOM      9  C   UNL     1       7.905  -3.953  22.884  0.00  0.00    +0.078 C 
ATOM     10  C   UNL     1       6.886  -4.658  21.972  0.00  0.00    +0.012 C 
ATOM     11  C   UNL     1       6.367  -6.017  22.435  0.00  0.00    +0.028 C 
ATOM     12  C   UNL     1       5.515  -5.914  23.667  0.00  0.00    -0.022 C 
ENDROOT
BRANCH   1  13
ATOM     13  C   UNL     1       4.992  -5.457  26.053  0.00  0.00    +0.065 C 
BRANCH  13  14
ATOM     14  CA  UNL     1       4.597  -6.843  26.596  0.00  0.00    +0.165 C 
BRANCH  14  15
ATOM     15  N   UNL     1       3.226  -7.285  26.181  0.00  0.00    -0.318 NA
ATOM     16  H1  UNL     1       3.322  -8.198  25.718  0.00  0.00    +0.119 HD
ATOM     17  H2  UNL     1       2.706  -7.496  27.040  0.00  0.00    +0.119 HD
ENDBRANCH  14  15
BRANCH  14  18
ATOM     18  C   UNL     1       4.650  -6.821  28.133  0.00  0.00    +0.322 C 
ATOM     19  OXT UNL     1       3.910  -6.174  28.856  0.00  0.00    -0.249 OA
BRANCH  18  20
ATOM     20  O   UNL     1       5.659  -7.603  28.602  0.00  0.00    -0.480 OA
ATOM     21  H   UNL     1       5.216  -8.320  29.122  0.00  0.00    +0.295 HD
ENDBRANCH  18  20
ENDBRANCH  14  18
ENDBRANCH  13  14
ENDBRANCH   1  13
TORSDOF 5
ENDMDL
MODEL 3
REMARK VINA RESULT:      -5.8      2.766      3.929
REMARK  Name = 
REMARK  5 active torsions:
REMARK  status: ('A' for Active; 'I' for Inactive)
REMARK    1  A    between atoms: N_1  and  CA_2
REMARK    2  A    between atoms: CA_2  and  C_4
REMARK    3  A    between atoms: CA_2  and  C_16
REMARK    4  A    between atoms: C_4  and  C_5
REMARK    5  A    between atoms: C_16  and  O_17
REMARK                            x       y       z     vdW  Elec       q    Type
REMARK                         _______ _______ _______ _____ _____    ______ ____
ROOT
ATOM      1  C   UNL     1       6.317  -4.963  24.630  0.00  0.00    -0.034 C 
ATOM      2  C   UNL     1       6.280  -5.587  25.935  0.00  0.00    +0.085 A 
ATOM      3  C   UNL     1       7.271  -5.469  27.021  0.00  0.00    +0.288 A 
ATOM      4  N   UNL     1       6.765  -6.136  28.105  0.00  0.00    -0.184 N 
ATOM      5  H   UNL     1       7.327  -6.431  28.890  0.00  0.00    +0.211 HD
ATOM      6  O   UNL     1       5.625  -6.880  27.733  0.00  0.00    -0.381 OA
ATOM      7  O   UNL     1       8.357  -4.921  26.965  0.00  0.00    -0.264 OA
ATOM      8  C   UNL     1       5.388  -6.450  26.432  0.00  0.00    +0.146 A 
ATOM      9  C   UNL     1       4.151  -7.005  25.794  0.00  0.00    +0.078 C 
ATOM     10  C   UNL     1       3.386  -6.159  24.763  0.00  0.00    +0.012 C 
ATOM     11  C   UNL     1       3.801  -4.697  24.621  0.00  0.00    +0.028 C 
ATOM     12  C   UNL     1       5.177  -4.547  24.039  0.00  0.00    -0.022 C 
ENDROOT
BRANCH   1  13
ATOM     13  C   UNL     1       7.653  -4.744  23.944  0.00  0.00    +0.065 C 
BRANCH  13  14
ATOM     14  CA  UNL     1       8.002  -3.261  23.718  0.00  0.00    +0.165 C 
BRANCH  14  15
ATOM     15  N   UNL     1       7.823  -2.808  22.300  0.00  0.00    -0.318 NA
ATOM     16  H1  UNL     1       8.750  -2.809  21.855  0.00  0.00    +0.119 HD
ATOM     17  H2  UNL     1       7.313  -3.552  21.810  0.00  0.00    +0.119 HD
ENDBRANCH  14  15
BRANCH  14  18
ATOM     18  C   UNL     1       9.466  -3.017  24.119  0.00  0.00    +0.322 C 
ATOM     19  OXT UNL     1      10.064  -1.959  24.006  0.00  0.00    -0.249 OA
BRANCH  18  20
ATOM     20  O   UNL     1      10.041  -4.153  24.600  0.00  0.00    -0.480 OA
ATOM     21  H   UNL     1       9.302  -4.666  25.015  0.00  0.00    +0.295 HD
ENDBRANCH  18  20
ENDBRANCH  14  18
ENDBRANCH  13  14
ENDBRANCH   1  13
TORSDOF 5
ENDMDL
MODEL 4
REMARK VINA RESULT:      -5.8      2.805      5.523
REMARK  Name = 
REMARK  5 active torsions:
REMARK  status: ('A' for Active; 'I' for Inactive)
REMARK    1  A    between atoms: N_1  and  CA_2
REMARK    2  A    between atoms: CA_2  and  C_4
REMARK    3  A    between atoms: CA_2  and  C_16
REMARK    4  A    between atoms: C_4  and  C_5
REMARK    5  A    between atoms: C_16  and  O_17
REMARK                            x       y       z     vdW  Elec       q    Type
REMARK                         _______ _______ _______ _____ _____    ______ ____
ROOT
ATOM      1  C   UNL     1       8.683  -2.598  23.870  0.00  0.00    -0.034 C 
ATOM      2  C   UNL     1       7.669  -1.567  23.845  0.00  0.00    +0.085 A 
ATOM      3  C   UNL     1       6.422  -1.507  24.631  0.00  0.00    +0.288 A 
ATOM      4  N   UNL     1       5.834  -0.299  24.366  0.00  0.00    -0.184 N 
ATOM      5  H   UNL     1       4.865  -0.096  24.561  0.00  0.00    +0.211 HD
ATOM      6  O   UNL     1       6.483   0.334  23.284  0.00  0.00    -0.381 OA
ATOM      7  O   UNL     1       5.968  -2.376  25.352  0.00  0.00    -0.264 OA
ATOM      8  C   UNL     1       7.592  -0.478  23.073  0.00  0.00    +0.146 A 
ATOM      9  C   UNL     1       8.547   0.009  22.027  0.00  0.00    +0.078 C 
ATOM     10  C   UNL     1      10.047  -0.302  22.166  0.00  0.00    +0.012 C 
ATOM     11  C   UNL     1      10.512  -0.891  23.495  0.00  0.00    +0.028 C 
ATOM     12  C   UNL     1       9.986  -2.280  23.720  0.00  0.00    -0.022 C 
ENDROOT
BRANCH   1  13
ATOM     13  C   UNL     1       8.276  -4.042  24.104  0.00  0.00    +0.065 C 
BRANCH  13  14
ATOM     14  CA  UNL     1       8.822  -4.639  25.415  0.00  0.00    +0.165 C 
BRANCH  14  15
ATOM     15  N   UNL     1       9.959  -5.596  25.214  0.00  0.00    -0.318 NA
ATOM     16  H1  UNL     1      10.788  -5.043  24.960  0.00  0.00    +0.119 HD
ATOM     17  H2  UNL     1      10.191  -5.983  26.135  0.00  0.00    +0.119 HD
ENDBRANCH  14  15
BRANCH  14  18
ATOM     18  C   UNL     1       7.691  -5.383  26.144  0.00  0.00    +0.322 C 
ATOM     19  OXT UNL     1       6.583  -5.610  25.685  0.00  0.00    -0.249 OA
BRANCH  18  20
ATOM     20  O   UNL     1       8.069  -5.745  27.399  0.00  0.00    -0.480 OA
ATOM     21  H   UNL     1       8.848  -6.344  27.277  0.00  0.00    +0.295 HD
ENDBRANCH  18  20
ENDBRANCH  14  18
ENDBRANCH  13  14
ENDBRANCH   1  13
TORSDOF 5
ENDMDL
MODEL 5
REMARK VINA RESULT:      -5.8      2.610      3.601
REMARK  Name = 
REMARK  5 active torsions:
REMARK  status: ('A' for Active; 'I' for Inactive)
REMARK    1  A    between atoms: N_1  and  CA_2
REMARK    2  A    between atoms: CA_2  and  C_4
REMARK    3  A    between atoms: CA_2  and  C_16
REMARK    4  A    between atoms: C_4  and  C_5
REMARK    5  A    between atoms: C_16  and  O_17
REMARK                            x       y       z     vdW  Elec       q    Type
REMARK                         _______ _______ _______ _____ _____    ______ ____
ROOT
ATOM      1  C   UNL     1       7.405  -2.317  23.131  0.00  0.00    -0.034 C 
ATOM      2  C   UNL     1       7.924  -3.320  24.034  0.00  0.00    +0.085 A 
ATOM      3  C   UNL     1       8.560  -3.110  25.349  0.00  0.00    +0.288 A 
ATOM      4  N   UNL     1       8.787  -4.346  25.892  0.00  0.00    -0.184 N 
ATOM      5  H   UNL     1       9.428  -4.511  26.654  0.00  0.00    +0.211 HD
ATOM      6  O   UNL     1       8.562  -5.352  24.928  0.00  0.00    -0.381 OA
ATOM      7  O   UNL     1       8.870  -2.044  25.851  0.00  0.00    -0.264 OA
ATOM      8  C   UNL     1       8.006  -4.644  23.868  0.00  0.00    +0.146 A 
ATOM      9  C   UNL     1       7.559  -5.481  22.709  0.00  0.00    +0.078 C 
ATOM     10  C   UNL     1       6.358  -5.025  21.863  0.00  0.00    +0.012 C 
ATOM     11  C   UNL     1       5.535  -3.857  22.401  0.00  0.00    +0.028 C 
ATOM     12  C   UNL     1       6.303  -2.566  22.394  0.00  0.00    -0.022 C 
ENDROOT
BRANCH   1  13
ATOM     13  C   UNL     1       8.087  -0.964  23.045  0.00  0.00    +0.065 C 
BRANCH  13  14
ATOM     14  CA  UNL     1       9.000  -0.804  21.815  0.00  0.00    +0.165 C 
BRANCH  14  15
ATOM     15  N   UNL     1      10.230  -1.661  21.861  0.00  0.00    -0.318 NA
ATOM     16  H1  UNL     1       9.927  -2.626  22.045  0.00  0.00    +0.119 HD
ATOM     17  H2  UNL     1      10.606  -1.697  20.907  0.00  0.00    +0.119 HD
ENDBRANCH  14  15
BRANCH  14  18
ATOM     18  C   UNL     1       9.442   0.665  21.698  0.00  0.00    +0.322 C 
ATOM     19  OXT UNL     1      10.328   1.190  22.352  0.00  0.00    -0.249 OA
BRANCH  18  20
ATOM     20  O   UNL     1       8.695   1.332  20.779  0.00  0.00    -0.480 OA
ATOM     21  H   UNL     1       7.930   0.736  20.578  0.00  0.00    +0.295 HD
ENDBRANCH  18  20
ENDBRANCH  14  18
ENDBRANCH  13  14
ENDBRANCH   1  13
TORSDOF 5
ENDMDL
MODEL 6
REMARK VINA RESULT:      -5.8      1.830      5.015
REMARK  Name = 
REMARK  5 active torsions:
REMARK  status: ('A' for Active; 'I' for Inactive)
REMARK    1  A    between atoms: N_1  and  CA_2
REMARK    2  A    between atoms: CA_2  and  C_4
REMARK    3  A    between atoms: CA_2  and  C_16
REMARK    4  A    between atoms: C_4  and  C_5
REMARK    5  A    between atoms: C_16  and  O_17
REMARK                            x       y       z     vdW  Elec       q    Type
REMARK                         _______ _______ _______ _____ _____    ______ ____
ROOT
ATOM      1  C   UNL     1       6.603  -4.096  24.248  0.00  0.00    -0.034 C 
ATOM      2  C   UNL     1       7.931  -3.586  23.987  0.00  0.00    +0.085 A 
ATOM      3  C   UNL     1       8.338  -2.612  22.956  0.00  0.00    +0.288 A 
ATOM      4  N   UNL     1       9.665  -2.341  23.156  0.00  0.00    -0.184 N 
ATOM      5  H   UNL     1      10.258  -1.914  22.459  0.00  0.00    +0.211 HD
ATOM      6  O   UNL     1      10.212  -3.243  24.093  0.00  0.00    -0.381 OA
ATOM      7  O   UNL     1       7.645  -2.159  22.063  0.00  0.00    -0.264 OA
ATOM      8  C   UNL     1       9.090  -3.914  24.566  0.00  0.00    +0.146 A 
ATOM      9  C   UNL     1       9.352  -4.889  25.673  0.00  0.00    +0.078 C 
ATOM     10  C   UNL     1       8.267  -5.139  26.734  0.00  0.00    +0.012 C 
ATOM     11  C   UNL     1       7.066  -4.197  26.733  0.00  0.00    +0.028 C 
ATOM     12  C   UNL     1       6.210  -4.364  25.510  0.00  0.00    -0.022 C 
ENDROOT
BRANCH   1  13
ATOM     13  C   UNL     1       5.638  -4.295  23.093  0.00  0.00    +0.065 C 
BRANCH  13  14
ATOM     14  CA  UNL     1       5.407  -5.772  22.721  0.00  0.00    +0.165 C 
BRANCH  14  15
ATOM     15  N   UNL     1       5.599  -6.064  21.262  0.00  0.00    -0.318 NA
ATOM     16  H1  UNL     1       6.611  -6.078  21.080  0.00  0.00    +0.119 HD
ATOM     17  H2  UNL     1       5.306  -7.034  21.110  0.00  0.00    +0.119 HD
ENDBRANCH  14  15
BRANCH  14  18
ATOM     18  C   UNL     1       3.974  -6.174  23.107  0.00  0.00    +0.322 C 
ATOM     19  OXT UNL     1       2.970  -5.523  22.874  0.00  0.00    -0.249 OA
BRANCH  18  20
ATOM     20  O   UNL     1       3.960  -7.358  23.778  0.00  0.00    -0.480 OA
ATOM     21  H   UNL     1       4.658  -7.913  23.348  0.00  0.00    +0.295 HD
ENDBRANCH  18  20
ENDBRANCH  14  18
ENDBRANCH  13  14
ENDBRANCH   1  13
TORSDOF 5
ENDMDL
MODEL 7
REMARK VINA RESULT:      -5.7      2.759      3.538
REMARK  Name = 
REMARK  5 active torsions:
REMARK  status: ('A' for Active; 'I' for Inactive)
REMARK    1  A    between atoms: N_1  and  CA_2
REMARK    2  A    between atoms: CA_2  and  C_4
REMARK    3  A    between atoms: CA_2  and  C_16
REMARK    4  A    between atoms: C_4  and  C_5
REMARK    5  A    between atoms: C_16  and  O_17
REMARK                            x       y       z     vdW  Elec       q    Type
REMARK                         _______ _______ _______ _____ _____    ______ ____
ROOT
ATOM      1  C   UNL     1       7.701  -3.396  24.399  0.00  0.00    -0.034 C 
ATOM      2  C   UNL     1       7.474  -4.447  25.366  0.00  0.00    +0.085 A 
ATOM      3  C   UNL     1       8.354  -4.860  26.476  0.00  0.00    +0.288 A 
ATOM      4  N   UNL     1       7.681  -5.811  27.195  0.00  0.00    -0.184 N 
ATOM      5  H   UNL     1       8.131  -6.441  27.843  0.00  0.00    +0.211 HD
ATOM      6  O   UNL     1       6.523  -6.221  26.500  0.00  0.00    -0.381 OA
ATOM      7  O   UNL     1       9.485  -4.467  26.698  0.00  0.00    -0.264 OA
ATOM      8  C   UNL     1       6.462  -5.317  25.445  0.00  0.00    +0.146 A 
ATOM      9  C   UNL     1       5.252  -5.443  24.570  0.00  0.00    +0.078 C 
ATOM     10  C   UNL     1       4.676  -4.190  23.889  0.00  0.00    +0.012 C 
ATOM     11  C   UNL     1       5.233  -2.841  24.335  0.00  0.00    +0.028 C 
ATOM     12  C   UNL     1       6.671  -2.657  23.938  0.00  0.00    -0.022 C 
ENDROOT
BRANCH   1  13
ATOM     13  C   UNL     1       9.115  -3.105  23.930  0.00  0.00    +0.065 C 
BRANCH  13  14
ATOM     14  CA  UNL     1       9.271  -1.741  23.232  0.00  0.00    +0.165 C 
BRANCH  14  15
ATOM     15  N   UNL     1      10.146  -1.784  22.014  0.00  0.00    -0.318 NA
ATOM     16  H1  UNL     1       9.722  -1.170  21.307  0.00  0.00    +0.119 HD
ATOM     17  H2  UNL     1      11.023  -1.311  22.259  0.00  0.00    +0.119 HD
ENDBRANCH  14  15
BRANCH  14  18
ATOM     18  C   UNL     1       9.875  -0.730  24.221  0.00  0.00    +0.322 C 
ATOM     19  OXT UNL     1       9.556  -0.612  25.393  0.00  0.00    -0.249 OA
BRANCH  18  20
ATOM     20  O   UNL     1      10.808   0.053  23.617  0.00  0.00    -0.480 OA
ATOM     21  H   UNL     1      10.353   0.443  22.828  0.00  0.00    +0.295 HD
ENDBRANCH  18  20
ENDBRANCH  14  18
ENDBRANCH  13  14
ENDBRANCH   1  13
TORSDOF 5
ENDMDL
MODEL 8
REMARK VINA RESULT:      -5.7      3.257      6.297
REMARK  Name = 
REMARK  5 active torsions:
REMARK  status: ('A' for Active; 'I' for Inactive)
REMARK    1  A    between atoms: N_1  and  CA_2
REMARK    2  A    between atoms: CA_2  and  C_4
REMARK    3  A    between atoms: CA_2  and  C_16
REMARK    4  A    between atoms: C_4  and  C_5
REMARK    5  A    between atoms: C_16  and  O_17
REMARK                            x       y       z     vdW  Elec       q    Type
REMARK                         _______ _______ _______ _____ _____    ______ ____
ROOT
ATOM      1  C   UNL     1       7.700  -0.308  23.559  0.00  0.00    -0.034 C 
ATOM      2  C   UNL     1       8.528   0.760  23.044  0.00  0.00    +0.085 A 
ATOM      3  C   UNL     1       9.261   0.798  21.764  0.00  0.00    +0.288 A 
ATOM      4  N   UNL     1       9.811   2.047  21.649  0.00  0.00    -0.184 N 
ATOM      5  H   UNL     1      10.561   2.269  21.011  0.00  0.00    +0.211 HD
ATOM      6  O   UNL     1       9.689   2.749  22.867  0.00  0.00    -0.381 OA
ATOM      7  O   UNL     1       9.396  -0.115  20.969  0.00  0.00    -0.264 OA
ATOM      8  C   UNL     1       8.869   1.917  23.621  0.00  0.00    +0.146 A 
ATOM      9  C   UNL     1       8.472   2.459  24.960  0.00  0.00    +0.078 C 
ATOM     10  C   UNL     1       7.107   2.077  25.557  0.00  0.00    +0.012 C 
ATOM     11  C   UNL     1       6.126   1.352  24.639  0.00  0.00    +0.028 C 
ATOM     12  C   UNL     1       6.595  -0.029  24.280  0.00  0.00    -0.022 C 
ENDROOT
BRANCH   1  13
ATOM     13  C   UNL     1       8.063  -1.750  23.251  0.00  0.00    +0.065 C 
BRANCH  13  14
ATOM     14  CA  UNL     1       9.389  -2.208  23.886  0.00  0.00    +0.165 C 
BRANCH  14  15
ATOM     15  N   UNL     1      10.519  -2.324  22.906  0.00  0.00    -0.318 NA
ATOM     16  H1  UNL     1      11.231  -1.631  23.170  0.00  0.00    +0.119 HD
ATOM     17  H2  UNL     1      10.974  -3.226  23.080  0.00  0.00    +0.119 HD
ENDBRANCH  14  15
BRANCH  14  18
ATOM     18  C   UNL     1       9.187  -3.579  24.551  0.00  0.00    +0.322 C 
ATOM     19  OXT UNL     1      10.039  -4.447  24.657  0.00  0.00    -0.249 OA
BRANCH  18  20
ATOM     20  O   UNL     1       7.910  -3.728  24.994  0.00  0.00    -0.480 OA
ATOM     21  H   UNL     1       7.737  -2.939  25.569  0.00  0.00    +0.295 HD
ENDBRANCH  18  20
ENDBRANCH  14  18
ENDBRANCH  13  14
ENDBRANCH   1  13
TORSDOF 5
ENDMDL
MODEL 9
REMARK VINA RESULT:      -5.6      3.142      5.894
REMARK  Name = 
REMARK  5 active torsions:
REMARK  status: ('A' for Active; 'I' for Inactive)
REMARK    1  A    between atoms: N_1  and  CA_2
REMARK    2  A    between atoms: CA_2  and  C_4
REMARK    3  A    between atoms: CA_2  and  C_16
REMARK    4  A    between atoms: C_4  and  C_5
REMARK    5  A    between atoms: C_16  and  O_17
REMARK                            x       y       z     vdW  Elec       q    Type
REMARK                         _______ _______ _______ _____ _____    ______ ____
ROOT
ATOM      1  C   UNL     1       9.358  -0.116  24.326  0.00  0.00    -0.034 C 
ATOM      2  C   UNL     1       8.114   0.381  23.779  0.00  0.00    +0.085 A 
ATOM      3  C   UNL     1       6.746   0.121  24.264  0.00  0.00    +0.288 A 
ATOM      4  N   UNL     1       5.897   0.889  23.513  0.00  0.00    -0.184 N 
ATOM      5  H   UNL     1       4.902   0.725  23.453  0.00  0.00    +0.211 HD
ATOM      6  O   UNL     1       6.586   1.453  22.418  0.00  0.00    -0.381 OA
ATOM      7  O   UNL     1       6.415  -0.660  25.138  0.00  0.00    -0.264 OA
ATOM      8  C   UNL     1       7.911   1.131  22.691  0.00  0.00    +0.146 A 
ATOM      9  C   UNL     1       8.913   1.697  21.732  0.00  0.00    +0.078 C 
ATOM     10  C   UNL     1      10.322   2.058  22.233  0.00  0.00    +0.012 C 
ATOM     11  C   UNL     1      10.546   2.040  23.743  0.00  0.00    +0.028 C 
ATOM     12  C   UNL     1      10.466   0.653  24.315  0.00  0.00    -0.022 C 
ENDROOT
BRANCH   1  13
ATOM     13  C   UNL     1       9.400  -1.501  24.946  0.00  0.00    +0.065 C 
BRANCH  13  14
ATOM     14  CA  UNL     1       9.601  -2.636  23.925  0.00  0.00    +0.165 C 
BRANCH  14  15
ATOM     15  N   UNL     1      10.383  -2.225  22.713  0.00  0.00    -0.318 NA
ATOM     16  H1  UNL     1      11.354  -2.533  22.852  0.00  0.00    +0.119 HD
ATOM     17  H2  UNL     1      10.049  -2.801  21.933  0.00  0.00    +0.119 HD
ENDBRANCH  14  15
BRANCH  14  18
ATOM     18  C   UNL     1       8.228  -3.150  23.460  0.00  0.00    +0.322 C 
ATOM     19  OXT UNL     1       7.875  -3.271  22.299  0.00  0.00    -0.249 OA
BRANCH  18  20
ATOM     20  O   UNL     1       7.425  -3.436  24.520  0.00  0.00    -0.480 OA
ATOM     21  H   UNL     1       6.501  -3.417  24.163  0.00  0.00    +0.295 HD
ENDBRANCH  18  20
ENDBRANCH  14  18
ENDBRANCH  13  14
ENDBRANCH   1  13
TORSDOF 5
ENDMDL
