MODEL 1
REMARK VINA RESULT:      -4.6      0.000      0.000
REMARK  Name = 
REMARK  3 active torsions:
REMARK  status: ('A' for Active; 'I' for Inactive)
REMARK    1  A    between atoms: N_1  and  C_2
REMARK    2  A    between atoms: C_7  and  C_8
REMARK    3  A    between atoms: C_8  and  O_9
REMARK                            x       y       z     vdW  Elec       q    Type
REMARK                         _______ _______ _______ _____ _____    ______ ____
ROOT
ATOM      1  C   UNL     1       9.880  -0.022  22.167  0.00  0.00    +0.039 A 
ATOM      2  C   UNL     1       9.977  -0.421  23.516  0.00  0.00    +0.079 A 
ATOM      3  C   UNL     1      10.253   0.526  24.519  0.00  0.00    +0.017 A 
ATOM      4  C   UNL     1      10.368   1.877  24.195  0.00  0.00    +0.001 A 
ATOM      5  C   UNL     1      10.217   2.287  22.873  0.00  0.00    +0.002 A 
ATOM      6  C   UNL     1       9.959   1.347  21.872  0.00  0.00    +0.023 A 
ENDROOT
BRANCH   1   7
ATOM      7  N   UNL     1       9.479  -0.904  21.145  0.00  0.00    -0.357 N 
ATOM      8  H   UNL     1       8.457  -0.986  21.089  0.00  0.00    +0.142 HD
ATOM      9  H   UNL     1       9.918  -1.819  21.198  0.00  0.00    +0.142 HD
ENDBRANCH   1   7
BRANCH   2  10
ATOM     10  C   UNL     1       9.886  -1.865  23.863  0.00  0.00    +0.339 C 
ATOM     11  O   UNL     1      10.471  -2.737  23.243  0.00  0.00    -0.245 OA
BRANCH  10  12
ATOM     12  O   UNL     1       9.078  -2.133  24.915  0.00  0.00    -0.477 OA
ATOM     13  H   UNL     1       9.401  -2.840  25.503  0.00  0.00    +0.295 HD
ENDBRANCH  10  12
ENDBRANCH   2  10
TORSDOF 3
ENDMDL
MODEL 2
REMARK VINA RESULT:      -4.5      2.862      4.098
REMARK  Name = 
REMARK  3 active torsions:
REMARK  status: ('A' for Active; 'I' for Inactive)
REMARK    1  A    between atoms: N_1  and  C_2
REMARK    2  A    between atoms: C_7  and  C_8
REMARK    3  A    between atoms: C_8  and  O_9
REMARK                            x       y       z     vdW  Elec       q    Type
REMARK                         _______ _______ _______ _____ _____    ______ ____
ROOT
ATOM      1  C   UNL     1      10.139  -0.142  24.067  0.00  0.00    +0.039 A 
ATOM      2  C   UNL     1       9.839   0.575  22.889  0.00  0.00    +0.079 A 
ATOM      3  C   UNL     1       9.379  -0.101  21.745  0.00  0.00    +0.017 A 
ATOM      4  C   UNL     1       9.153  -1.476  21.786  0.00  0.00    +0.001 A 
ATOM      5  C   UNL     1       9.392  -2.183  22.961  0.00  0.00    +0.002 A 
ATOM      6  C   UNL     1       9.865  -1.516  24.095  0.00  0.00    +0.023 A 
ENDROOT
BRANCH   1   7
ATOM      7  N   UNL     1      10.478   0.498  25.275  0.00  0.00    -0.357 N 
ATOM      8  H   UNL     1       9.653   0.670  25.862  0.00  0.00    +0.142 HD
ATOM      9  H   UNL     1      11.022   1.347  25.150  0.00  0.00    +0.142 HD
ENDBRANCH   1   7
BRANCH   2  10
ATOM     10  C   UNL     1      10.109   2.037  22.830  0.00  0.00    +0.339 C 
ATOM     11  O   UNL     1       9.939   2.784  23.780  0.00  0.00    -0.245 OA
BRANCH  10  12
ATOM     12  O   UNL     1      10.539   2.474  21.625  0.00  0.00    -0.477 OA
ATOM     13  H   UNL     1       9.833   2.795  21.035  0.00  0.00    +0.295 HD
ENDBRANCH  10  12
ENDBRANCH   2  10
TORSDOF 3
ENDMDL
MODEL 3
REMARK VINA RESULT:      -4.5      1.590      2.236
REMARK  Name = 
REMARK  3 active torsions:
REMARK  status: ('A' for Active; 'I' for Inactive)
REMARK    1  A    between atoms: N_1  and  C_2
REMARK    2  A    between atoms: C_7  and  C_8
REMARK    3  A    between atoms: C_8  and  O_9
REMARK                            x       y       z     vdW  Elec       q    Type
REMARK                         _______ _______ _______ _____ _____    ______ ____
ROOT
ATOM      1  C   UNL     1      10.033   0.377  24.052  0.00  0.00    +0.039 A 
ATOM      2  C   UNL     1       9.685  -0.831  23.412  0.00  0.00    +0.079 A 
ATOM      3  C   UNL     1       9.323  -0.836  22.053  0.00  0.00    +0.017 A 
ATOM      4  C   UNL     1       9.369   0.344  21.311  0.00  0.00    +0.001 A 
ATOM      5  C   UNL     1       9.766   1.531  21.921  0.00  0.00    +0.002 A 
ATOM      6  C   UNL     1      10.111   1.541  23.275  0.00  0.00    +0.023 A 
ENDROOT
BRANCH   1   7
ATOM      7  N   UNL     1      10.527   0.418  25.370  0.00  0.00    -0.357 N 
ATOM      8  H   UNL     1      10.114  -0.317  25.957  0.00  0.00    +0.142 HD
ATOM      9  H   UNL     1      10.441   1.330  25.811  0.00  0.00    +0.142 HD
ENDBRANCH   1   7
BRANCH   2  10
ATOM     10  C   UNL     1       9.604  -2.087  24.207  0.00  0.00    +0.339 C 
ATOM     11  O   UNL     1      10.202  -3.107  23.903  0.00  0.00    -0.245 OA
BRANCH  10  12
ATOM     12  O   UNL     1       8.793  -2.009  25.286  0.00  0.00    -0.477 OA
ATOM     13  H   UNL     1       7.845  -1.929  25.075  0.00  0.00    +0.295 HD
ENDBRANCH  10  12
ENDBRANCH   2  10
TORSDOF 3
ENDMDL
MODEL 4
REMARK VINA RESULT:      -4.4      2.583      3.398
REMARK  Name = 
REMARK  3 active torsions:
REMARK  status: ('A' for Active; 'I' for Inactive)
REMARK    1  A    between atoms: N_1  and  C_2
REMARK    2  A    between atoms: C_7  and  C_8
REMARK    3  A    between atoms: C_8  and  O_9
REMARK                            x       y       z     vdW  Elec       q    Type
REMARK                         _______ _______ _______ _____ _____    ______ ____
ROOT
ATOM      1  C   UNL     1       9.566   0.884  22.223  0.00  0.00    +0.039 A 
ATOM      2  C   UNL     1       9.675   0.962  23.627  0.00  0.00    +0.079 A 
ATOM      3  C   UNL     1       9.862  -0.204  24.391  0.00  0.00    +0.017 A 
ATOM      4  C   UNL     1      10.008  -1.439  23.760  0.00  0.00    +0.001 A 
ATOM      5  C   UNL     1       9.958  -1.518  22.371  0.00  0.00    +0.002 A 
ATOM      6  C   UNL     1       9.756  -0.363  21.611  0.00  0.00    +0.023 A 
ENDROOT
BRANCH   1   7
ATOM      7  N   UNL     1       9.508   2.029  21.405  0.00  0.00    -0.357 N 
ATOM      8  H   UNL     1      10.072   1.921  20.553  0.00  0.00    +0.142 HD
ATOM      9  H   UNL     1       9.740   2.891  21.890  0.00  0.00    +0.142 HD
ENDBRANCH   1   7
BRANCH   2  10
ATOM     10  C   UNL     1       9.489   2.273  24.307  0.00  0.00    +0.339 C 
ATOM     11  O   UNL     1      10.037   3.298  23.937  0.00  0.00    -0.245 OA
BRANCH  10  12
ATOM     12  O   UNL     1       8.675   2.228  25.386  0.00  0.00    -0.477 OA
ATOM     13  H   UNL     1       9.136   2.290  26.243  0.00  0.00    +0.295 HD
ENDBRANCH  10  12
ENDBRANCH   2  10
TORSDOF 3
ENDMDL
MODEL 5
REMARK VINA RESULT:      -4.4      1.829      2.576
REMARK  Name = 
REMARK  3 active torsions:
REMARK  status: ('A' for Active; 'I' for Inactive)
REMARK    1  A    between atoms: N_1  and  C_2
REMARK    2  A    between atoms: C_7  and  C_8
REMARK    3  A    between atoms: C_8  and  O_9
REMARK                            x       y       z     vdW  Elec       q    Type
REMARK                         _______ _______ _______ _____ _____    ______ ____
ROOT
ATOM      1  C   UNL     1       9.875   0.956  24.121  0.00  0.00    +0.039 A 
ATOM      2  C   UNL     1       9.676   0.230  22.928  0.00  0.00    +0.079 A 
ATOM      3  C   UNL     1       9.028   0.830  21.833  0.00  0.00    +0.017 A 
ATOM      4  C   UNL     1       8.637   2.167  21.895  0.00  0.00    +0.001 A 
ATOM      5  C   UNL     1       8.881   2.907  23.049  0.00  0.00    +0.002 A 
ATOM      6  C   UNL     1       9.509   2.309  24.145  0.00  0.00    +0.023 A 
ENDROOT
BRANCH   1   7
ATOM      7  N   UNL     1      10.629   0.448  25.197  0.00  0.00    -0.357 N 
ATOM      8  H   UNL     1      10.200  -0.392  25.603  0.00  0.00    +0.142 HD
ATOM      9  H   UNL     1      10.835   1.137  25.915  0.00  0.00    +0.142 HD
ENDBRANCH   1   7
BRANCH   2  10
ATOM     10  C   UNL     1      10.063  -1.205  22.867  0.00  0.00    +0.339 C 
ATOM     11  O   UNL     1      10.056  -1.939  23.842  0.00  0.00    -0.245 OA
BRANCH  10  12
ATOM     12  O   UNL     1      10.446  -1.625  21.639  0.00  0.00    -0.477 OA
ATOM     13  H   UNL     1      11.260  -2.160  21.630  0.00  0.00    +0.295 HD
ENDBRANCH  10  12
ENDBRANCH   2  10
TORSDOF 3
ENDMDL
MODEL 6
REMARK VINA RESULT:      -4.3      3.461      4.390
REMARK  Name = 
REMARK  3 active torsions:
REMARK  status: ('A' for Active; 'I' for Inactive)
REMARK    1  A    between atoms: N_1  and  C_2
REMARK    2  A    between atoms: C_7  and  C_8
REMARK    3  A    between atoms: C_8  and  O_9
REMARK                            x       y       z     vdW  Elec       q    Type
REMARK                         _______ _______ _______ _____ _____    ______ ____
ROOT
ATOM      1  C   UNL     1       7.915  -4.202  23.573  0.00  0.00    +0.039 A 
ATOM      2  C   UNL     1       9.015  -3.892  24.400  0.00  0.00    +0.079 A 
ATOM      3  C   UNL     1       9.826  -2.779  24.115  0.00  0.00    +0.017 A 
ATOM      4  C   UNL     1       9.510  -1.936  23.050  0.00  0.00    +0.001 A 
ATOM      5  C   UNL     1       8.393  -2.203  22.263  0.00  0.00    +0.002 A 
ATOM      6  C   UNL     1       7.595  -3.317  22.534  0.00  0.00    +0.023 A 
ENDROOT
BRANCH   1   7
ATOM      7  N   UNL     1       6.998  -5.224  23.887  0.00  0.00    -0.357 N 
ATOM      8  H   UNL     1       6.025  -4.905  23.807  0.00  0.00    +0.142 HD
ATOM      9  H   UNL     1       7.166  -5.663  24.788  0.00  0.00    +0.142 HD
ENDBRANCH   1   7
BRANCH   2  10
ATOM     10  C   UNL     1       9.374  -4.806  25.519  0.00  0.00    +0.339 C 
ATOM     11  O   UNL     1       9.221  -4.513  26.693  0.00  0.00    -0.245 OA
BRANCH  10  12
ATOM     12  O   UNL     1       9.906  -5.985  25.123  0.00  0.00    -0.477 OA
ATOM     13  H   UNL     1       9.500  -6.770  25.533  0.00  0.00    +0.295 HD
ENDBRANCH  10  12
ENDBRANCH   2  10
TORSDOF 3
ENDMDL
MODEL 7
REMARK VINA RESULT:      -4.1      3.117      4.073
REMARK  Name = 
REMARK  3 active torsions:
REMARK  status: ('A' for Active; 'I' for Inactive)
REMARK    1  A    between atoms: N_1  and  C_2
REMARK    2  A    between atoms: C_7  and  C_8
REMARK    3  A    between atoms: C_8  and  O_9
REMARK                            x       y       z     vdW  Elec       q    Type
REMARK                         _______ _______ _______ _____ _____    ______ ____
ROOT
ATOM      1  C   UNL     1       7.821  -0.344  23.042  0.00  0.00    +0.039 A 
ATOM      2  C   UNL     1       8.870   0.182  22.260  0.00  0.00    +0.079 A 
ATOM      3  C   UNL     1      10.076  -0.528  22.120  0.00  0.00    +0.017 A 
ATOM      4  C   UNL     1      10.219  -1.788  22.701  0.00  0.00    +0.001 A 
ATOM      5  C   UNL     1       9.167  -2.339  23.428  0.00  0.00    +0.002 A 
ATOM      6  C   UNL     1       7.974  -1.629  23.581  0.00  0.00    +0.023 A 
ENDROOT
BRANCH   1   7
ATOM      7  N   UNL     1       6.551   0.262  23.108  0.00  0.00    -0.357 N 
ATOM      8  H   UNL     1       6.150   0.211  24.052  0.00  0.00    +0.142 HD
ATOM      9  H   UNL     1       5.895  -0.084  22.413  0.00  0.00    +0.142 HD
ENDBRANCH   1   7
BRANCH   2  10
ATOM     10  C   UNL     1       8.734   1.539  21.664  0.00  0.00    +0.339 C 
ATOM     11  O   UNL     1       7.668   1.994  21.282  0.00  0.00    -0.245 OA
BRANCH  10  12
ATOM     12  O   UNL     1       9.898   2.220  21.562  0.00  0.00    -0.477 OA
ATOM     13  H   UNL     1      10.548   2.015  22.258  0.00  0.00    +0.295 HD
ENDBRANCH  10  12
ENDBRANCH   2  10
TORSDOF 3
ENDMDL
MODEL 8
REMARK VINA RESULT:      -4.1      4.013      5.178
REMARK  Name = 
REMARK  3 active torsions:
REMARK  status: ('A' for Active; 'I' for Inactive)
REMARK    1  A    between atoms: N_1  and  C_2
REMARK    2  A    between atoms: C_7  and  C_8
REMARK    3  A    between atoms: C_8  and  O_9
REMARK                            x       y       z     vdW  Elec       q    Type
REMARK                         _______ _______ _______ _____ _____    ______ ____
ROOT
ATOM      1  C   UNL     1       8.555  -3.331  23.682  0.00  0.00    +0.039 A 
ATOM      2  C   UNL     1       8.124  -4.611  24.088  0.00  0.00    +0.079 A 
ATOM      3  C   UNL     1       6.972  -5.186  23.522  0.00  0.00    +0.017 A 
ATOM      4  C   UNL     1       6.285  -4.522  22.505  0.00  0.00    +0.001 A 
ATOM      5  C   UNL     1       6.737  -3.284  22.058  0.00  0.00    +0.002 A 
ATOM      6  C   UNL     1       7.871  -2.703  22.631  0.00  0.00    +0.023 A 
ENDROOT
BRANCH   1   7
ATOM      7  N   UNL     1       9.769  -2.768  24.121  0.00  0.00    -0.357 N 
ATOM      8  H   UNL     1       9.616  -1.966  24.744  0.00  0.00    +0.142 HD
ATOM      9  H   UNL     1      10.406  -2.528  23.367  0.00  0.00    +0.142 HD
ENDBRANCH   1   7
BRANCH   2  10
ATOM     10  C   UNL     1       8.836  -5.310  25.193  0.00  0.00    +0.339 C 
ATOM     11  O   UNL     1       8.277  -5.688  26.210  0.00  0.00    -0.245 OA
BRANCH  10  12
ATOM     12  O   UNL     1      10.162  -5.470  24.985  0.00  0.00    -0.477 OA
ATOM     13  H   UNL     1      10.732  -5.001  25.621  0.00  0.00    +0.295 HD
ENDBRANCH  10  12
ENDBRANCH   2  10
TORSDOF 3
ENDMDL
MODEL 9
REMARK VINA RESULT:      -4.1      2.016      2.401
REMARK  Name = 
REMARK  3 active torsions:
REMARK  status: ('A' for Active; 'I' for Inactive)
REMARK    1  A    between atoms: N_1  and  C_2
REMARK    2  A    between atoms: C_7  and  C_8
REMARK    3  A    between atoms: C_8  and  O_9
REMARK                            x       y       z     vdW  Elec       q    Type
REMARK                         _______ _______ _______ _____ _____    ______ ____
ROOT
ATOM      1  C   UNL     1       7.502   0.064  22.657  0.00  0.00    +0.039 A 
ATOM      2  C   UNL     1       8.763  -0.546  22.487  0.00  0.00    +0.079 A 
ATOM      3  C   UNL     1       9.857   0.204  22.018  0.00  0.00    +0.017 A 
ATOM      4  C   UNL     1       9.719   1.571  21.779  0.00  0.00    +0.001 A 
ATOM      5  C   UNL     1       8.493   2.192  21.999  0.00  0.00    +0.002 A 
ATOM      6  C   UNL     1       7.401   1.447  22.450  0.00  0.00    +0.023 A 
ENDROOT
BRANCH   1   7
ATOM      7  N   UNL     1       6.412  -0.606  23.245  0.00  0.00    -0.357 N 
ATOM      8  H   UNL     1       5.767  -0.981  22.539  0.00  0.00    +0.142 HD
ATOM      9  H   UNL     1       5.915  -0.051  23.937  0.00  0.00    +0.142 HD
ENDBRANCH   1   7
BRANCH   2  10
ATOM     10  C   UNL     1       8.907  -2.010  22.710  0.00  0.00    +0.339 C 
ATOM     11  O   UNL     1       8.115  -2.830  22.276  0.00  0.00    -0.245 OA
BRANCH  10  12
ATOM     12  O   UNL     1       9.981  -2.355  23.456  0.00  0.00    -0.477 OA
ATOM     13  H   UNL     1      10.840  -2.208  23.021  0.00  0.00    +0.295 HD
ENDBRANCH  10  12
ENDBRANCH   2  10
TORSDOF 3
ENDMDL
