MODEL 1
REMARK VINA RESULT:      -7.1      0.000      0.000
REMARK  Name = 
REMARK  5 active torsions:
REMARK  status: ('A' for Active; 'I' for Inactive)
REMARK    1  A    between atoms: C_1  and  S_2
REMARK    2  A    between atoms: S_2  and  C_4
REMARK    3  A    between atoms: C_7  and  C_10
REMARK    4  A    between atoms: C_12  and  C_22
REMARK    5  A    between atoms: C_13  and  C_15
REMARK                            x       y       z     vdW  Elec       q    Type
REMARK                         _______ _______ _______ _____ _____    ______ ____
ROOT
ATOM      1  C   UNL     1       8.480   1.362  23.477  0.00  0.00    +0.139 A 
ATOM      2  N   UNL     1       7.492   2.247  23.112  0.00  0.00    -0.337 N 
ATOM      3  H   UNL     1       6.545   1.994  22.880  0.00  0.00    +0.167 HD
ATOM      4  C   UNL     1       7.976   3.541  23.193  0.00  0.00    +0.074 A 
ATOM      5  C   UNL     1       9.306   3.361  23.555  0.00  0.00    +0.097 A 
ATOM      6  N   UNL     1       9.585   2.027  23.739  0.00  0.00    -0.227 NA
ENDROOT
BRANCH   4   7
ATOM      7  C   UNL     1       7.138   4.720  22.949  0.00  0.00    +0.001 A 
ATOM      8  C   UNL     1       7.524   5.693  22.014  0.00  0.00    +0.010 A 
ATOM      9  C   UNL     1       6.679   6.755  21.686  0.00  0.00    +0.002 A 
ATOM     10  C   UNL     1       5.450   6.890  22.325  0.00  0.00    +0.014 A 
ATOM     11  C   UNL     1       5.081   5.967  23.301  0.00  0.00    +0.014 A 
ATOM     12  I   UNL     1       3.262   6.186  24.285  0.00  0.00    -0.044 I 
ATOM     13  C   UNL     1       5.912   4.885  23.612  0.00  0.00    +0.024 A 
ENDBRANCH   4   7
BRANCH   1  17
ATOM     14  C   UNL     1       8.134  -2.885  24.028  0.00  0.00    +0.039 A 
ATOM     15  C   UNL     1       7.013  -2.141  23.648  0.00  0.00    +0.018 A 
ATOM     16  C   UNL     1       7.107  -0.758  23.436  0.00  0.00    +0.012 A 
ATOM     17  C   UNL     1       8.327  -0.093  23.604  0.00  0.00    +0.017 A 
ATOM     18  C   UNL     1       9.457  -0.860  23.937  0.00  0.00    +0.012 A 
ATOM     19  C   UNL     1       9.367  -2.239  24.142  0.00  0.00    +0.018 A 
BRANCH  14  21
ATOM     20  C   UNL     1       7.398  -5.157  22.703  0.00  0.00    +0.127 C 
ATOM     21  S   UNL     1       8.005  -4.663  24.338  0.00  0.00    +0.051 S 
ATOM     22  O   UNL     1       9.416  -5.160  24.458  0.00  0.00    -0.252 OA
ENDBRANCH  14  21
ENDBRANCH   1  17
BRANCH   5  23
ATOM     23  C   UNL     1      10.337   4.364  23.771  0.00  0.00    +0.005 A 
ATOM     24  C   UNL     1      11.618   4.135  23.262  0.00  0.00    +0.030 A 
ATOM     25  C   UNL     1      12.602   5.085  23.473  0.00  0.00    +0.111 A 
ATOM     26  N   UNL     1      12.398   6.232  24.153  0.00  0.00    -0.263 NA
ATOM     27  C   UNL     1      11.149   6.446  24.617  0.00  0.00    +0.111 A 
ATOM     28  C   UNL     1      10.096   5.563  24.438  0.00  0.00    +0.030 A 
ENDBRANCH   5  23
TORSDOF 4
ENDMDL
MODEL 2
REMARK VINA RESULT:      -6.8      4.611      9.109
REMARK  Name = 
REMARK  5 active torsions:
REMARK  status: ('A' for Active; 'I' for Inactive)
REMARK    1  A    between atoms: C_1  and  S_2
REMARK    2  A    between atoms: S_2  and  C_4
REMARK    3  A    between atoms: C_7  and  C_10
REMARK    4  A    between atoms: C_12  and  C_22
REMARK    5  A    between atoms: C_13  and  C_15
REMARK                            x       y       z     vdW  Elec       q    Type
REMARK                         _______ _______ _______ _____ _____    ______ ____
ROOT
ATOM      1  C   UNL     1       8.231  -0.627  24.392  0.00  0.00    +0.139 A 
ATOM      2  N   UNL     1       7.884  -1.285  25.548  0.00  0.00    -0.337 N 
ATOM      3  H   UNL     1       7.931  -0.892  26.475  0.00  0.00    +0.167 HD
ATOM      4  C   UNL     1       7.382  -2.537  25.238  0.00  0.00    +0.074 A 
ATOM      5  C   UNL     1       7.519  -2.600  23.855  0.00  0.00    +0.097 A 
ATOM      6  N   UNL     1       8.021  -1.419  23.361  0.00  0.00    -0.227 NA
ENDROOT
BRANCH   4   7
ATOM      7  C   UNL     1       6.844  -3.452  26.250  0.00  0.00    +0.001 A 
ATOM      8  C   UNL     1       7.531  -4.627  26.592  0.00  0.00    +0.010 A 
ATOM      9  C   UNL     1       7.091  -5.443  27.636  0.00  0.00    +0.002 A 
ATOM     10  C   UNL     1       5.926  -5.123  28.327  0.00  0.00    +0.014 A 
ATOM     11  C   UNL     1       5.200  -3.993  27.957  0.00  0.00    +0.014 A 
ATOM     12  I   UNL     1       3.438  -3.532  28.961  0.00  0.00    -0.044 I 
ATOM     13  C   UNL     1       5.652  -3.158  26.929  0.00  0.00    +0.024 A 
ENDBRANCH   4   7
BRANCH   1  17
ATOM     14  C   UNL     1       9.631   3.407  23.921  0.00  0.00    +0.039 A 
ATOM     15  C   UNL     1       8.664   3.116  24.888  0.00  0.00    +0.018 A 
ATOM     16  C   UNL     1       8.210   1.803  25.078  0.00  0.00    +0.012 A 
ATOM     17  C   UNL     1       8.717   0.755  24.301  0.00  0.00    +0.017 A 
ATOM     18  C   UNL     1       9.724   1.053  23.367  0.00  0.00    +0.012 A 
ATOM     19  C   UNL     1      10.182   2.360  23.181  0.00  0.00    +0.018 A 
BRANCH  14  21
ATOM     20  C   UNL     1       9.478   5.844  25.146  0.00  0.00    +0.127 C 
ATOM     21  S   UNL     1      10.188   5.107  23.649  0.00  0.00    +0.051 S 
ATOM     22  O   UNL     1      11.678   5.082  23.828  0.00  0.00    -0.252 OA
ENDBRANCH  14  21
ENDBRANCH   1  17
BRANCH   5  23
ATOM     23  C   UNL     1       7.180  -3.689  22.952  0.00  0.00    +0.005 A 
ATOM     24  C   UNL     1       6.286  -3.446  21.907  0.00  0.00    +0.030 A 
ATOM     25  C   UNL     1       5.959  -4.484  21.052  0.00  0.00    +0.111 A 
ATOM     26  N   UNL     1       6.453  -5.733  21.171  0.00  0.00    -0.263 NA
ATOM     27  C   UNL     1       7.333  -5.943  22.172  0.00  0.00    +0.111 A 
ATOM     28  C   UNL     1       7.736  -4.963  23.065  0.00  0.00    +0.030 A 
ENDBRANCH   5  23
TORSDOF 4
ENDMDL
MODEL 3
REMARK VINA RESULT:      -6.6      4.509      8.788
REMARK  Name = 
REMARK  5 active torsions:
REMARK  status: ('A' for Active; 'I' for Inactive)
REMARK    1  A    between atoms: C_1  and  S_2
REMARK    2  A    between atoms: S_2  and  C_4
REMARK    3  A    between atoms: C_7  and  C_10
REMARK    4  A    between atoms: C_12  and  C_22
REMARK    5  A    between atoms: C_13  and  C_15
REMARK                            x       y       z     vdW  Elec       q    Type
REMARK                         _______ _______ _______ _____ _____    ______ ____
ROOT
ATOM      1  C   UNL     1       8.164  -0.149  24.334  0.00  0.00    +0.139 A 
ATOM      2  N   UNL     1       7.579  -0.640  25.478  0.00  0.00    -0.337 N 
ATOM      3  H   UNL     1       7.502  -0.141  26.349  0.00  0.00    +0.167 HD
ATOM      4  C   UNL     1       7.042  -1.891  25.224  0.00  0.00    +0.074 A 
ATOM      5  C   UNL     1       7.400  -2.128  23.902  0.00  0.00    +0.097 A 
ATOM      6  N   UNL     1       8.067  -1.047  23.376  0.00  0.00    -0.227 NA
ENDROOT
BRANCH   4   7
ATOM      7  C   UNL     1       6.275  -2.644  26.222  0.00  0.00    +0.001 A 
ATOM      8  C   UNL     1       6.777  -3.838  26.761  0.00  0.00    +0.010 A 
ATOM      9  C   UNL     1       6.114  -4.499  27.797  0.00  0.00    +0.002 A 
ATOM     10  C   UNL     1       4.906  -4.002  28.279  0.00  0.00    +0.014 A 
ATOM     11  C   UNL     1       4.363  -2.852  27.710  0.00  0.00    +0.014 A 
ATOM     12  I   UNL     1       2.541  -2.127  28.402  0.00  0.00    -0.044 I 
ATOM     13  C   UNL     1       5.039  -2.171  26.691  0.00  0.00    +0.024 A 
ENDBRANCH   4   7
BRANCH   1  17
ATOM     14  C   UNL     1       9.891   3.776  24.080  0.00  0.00    +0.039 A 
ATOM     15  C   UNL     1      10.526   2.697  23.457  0.00  0.00    +0.018 A 
ATOM     16  C   UNL     1       9.968   1.411  23.504  0.00  0.00    +0.012 A 
ATOM     17  C   UNL     1       8.762   1.182  24.178  0.00  0.00    +0.017 A 
ATOM     18  C   UNL     1       8.110   2.284  24.756  0.00  0.00    +0.012 A 
ATOM     19  C   UNL     1       8.660   3.567  24.705  0.00  0.00    +0.018 A 
BRANCH  14  21
ATOM     20  C   UNL     1      12.152   5.004  23.163  0.00  0.00    +0.127 C 
ATOM     21  S   UNL     1      10.630   5.427  24.052  0.00  0.00    +0.051 S 
ATOM     22  O   UNL     1       9.780   6.240  23.119  0.00  0.00    -0.252 OA
ENDBRANCH  14  21
ENDBRANCH   1  17
BRANCH   5  23
ATOM     23  C   UNL     1       7.134  -3.298  23.080  0.00  0.00    +0.005 A 
ATOM     24  C   UNL     1       7.799  -4.492  23.368  0.00  0.00    +0.030 A 
ATOM     25  C   UNL     1       7.551  -5.604  22.582  0.00  0.00    +0.111 A 
ATOM     26  N   UNL     1       6.699  -5.603  21.536  0.00  0.00    -0.263 NA
ATOM     27  C   UNL     1       6.049  -4.447  21.287  0.00  0.00    +0.111 A 
ATOM     28  C   UNL     1       6.217  -3.290  22.030  0.00  0.00    +0.030 A 
ENDBRANCH   5  23
TORSDOF 4
ENDMDL
MODEL 4
REMARK VINA RESULT:      -6.6      4.800      8.753
REMARK  Name = 
REMARK  5 active torsions:
REMARK  status: ('A' for Active; 'I' for Inactive)
REMARK    1  A    between atoms: C_1  and  S_2
REMARK    2  A    between atoms: S_2  and  C_4
REMARK    3  A    between atoms: C_7  and  C_10
REMARK    4  A    between atoms: C_12  and  C_22
REMARK    5  A    between atoms: C_13  and  C_15
REMARK                            x       y       z     vdW  Elec       q    Type
REMARK                         _______ _______ _______ _____ _____    ______ ____
ROOT
ATOM      1  C   UNL     1       8.208   0.263  24.558  0.00  0.00    +0.139 A 
ATOM      2  N   UNL     1       7.504  -0.145  25.667  0.00  0.00    -0.337 N 
ATOM      3  H   UNL     1       7.376   0.400  26.504  0.00  0.00    +0.167 HD
ATOM      4  C   UNL     1       6.931  -1.381  25.425  0.00  0.00    +0.074 A 
ATOM      5  C   UNL     1       7.391  -1.701  24.152  0.00  0.00    +0.097 A 
ATOM      6  N   UNL     1       8.152  -0.677  23.638  0.00  0.00    -0.227 NA
ENDROOT
BRANCH   4   7
ATOM      7  C   UNL     1       6.046  -2.049  26.384  0.00  0.00    +0.001 A 
ATOM      8  C   UNL     1       4.848  -1.445  26.796  0.00  0.00    +0.010 A 
ATOM      9  C   UNL     1       3.941  -2.121  27.614  0.00  0.00    +0.002 A 
ATOM     10  C   UNL     1       4.240  -3.400  28.076  0.00  0.00    +0.014 A 
ATOM     11  C   UNL     1       5.454  -3.988  27.727  0.00  0.00    +0.014 A 
ATOM     12  I   UNL     1       5.920  -5.882  28.446  0.00  0.00    -0.044 I 
ATOM     13  C   UNL     1       6.353  -3.324  26.884  0.00  0.00    +0.024 A 
ENDBRANCH   4   7
BRANCH   1  17
ATOM     14  C   UNL     1      10.210   4.003  23.879  0.00  0.00    +0.039 A 
ATOM     15  C   UNL     1       8.989   3.983  24.561  0.00  0.00    +0.018 A 
ATOM     16  C   UNL     1       8.329   2.772  24.818  0.00  0.00    +0.012 A 
ATOM     17  C   UNL     1       8.881   1.557  24.394  0.00  0.00    +0.017 A 
ATOM     18  C   UNL     1      10.132   1.587  23.754  0.00  0.00    +0.012 A 
ATOM     19  C   UNL     1      10.794   2.792  23.503  0.00  0.00    +0.018 A 
BRANCH  14  21
ATOM     20  C   UNL     1      10.390   6.527  24.908  0.00  0.00    +0.127 C 
ATOM     21  S   UNL     1      11.042   5.567  23.515  0.00  0.00    +0.051 S 
ATOM     22  O   UNL     1      12.499   5.328  23.781  0.00  0.00    -0.252 OA
ENDBRANCH  14  21
ENDBRANCH   1  17
BRANCH   5  23
ATOM     23  C   UNL     1       7.141  -2.897  23.364  0.00  0.00    +0.005 A 
ATOM     24  C   UNL     1       7.842  -4.066  23.671  0.00  0.00    +0.030 A 
ATOM     25  C   UNL     1       7.609  -5.204  22.917  0.00  0.00    +0.111 A 
ATOM     26  N   UNL     1       6.740  -5.251  21.887  0.00  0.00    -0.263 NA
ATOM     27  C   UNL     1       6.056  -4.119  21.620  0.00  0.00    +0.111 A 
ATOM     28  C   UNL     1       6.206  -2.940  22.331  0.00  0.00    +0.030 A 
ENDBRANCH   5  23
TORSDOF 4
ENDMDL
MODEL 5
REMARK VINA RESULT:      -6.5      2.669      4.563
REMARK  Name = 
REMARK  5 active torsions:
REMARK  status: ('A' for Active; 'I' for Inactive)
REMARK    1  A    between atoms: C_1  and  S_2
REMARK    2  A    between atoms: S_2  and  C_4
REMARK    3  A    between atoms: C_7  and  C_10
REMARK    4  A    between atoms: C_12  and  C_22
REMARK    5  A    between atoms: C_13  and  C_15
REMARK                            x       y       z     vdW  Elec       q    Type
REMARK                         _______ _______ _______ _____ _____    ______ ____
ROOT
ATOM      1  C   UNL     1       8.111   0.958  24.911  0.00  0.00    +0.139 A 
ATOM      2  N   UNL     1       9.103   1.909  24.966  0.00  0.00    -0.337 N 
ATOM      3  H   UNL     1      10.080   1.719  25.123  0.00  0.00    +0.167 HD
ATOM      4  C   UNL     1       8.567   3.155  24.690  0.00  0.00    +0.074 A 
ATOM      5  C   UNL     1       7.210   2.892  24.541  0.00  0.00    +0.097 A 
ATOM      6  N   UNL     1       6.959   1.545  24.662  0.00  0.00    -0.227 NA
ENDROOT
BRANCH   4   7
ATOM      7  C   UNL     1       9.385   4.368  24.589  0.00  0.00    +0.001 A 
ATOM      8  C   UNL     1       9.068   5.512  25.337  0.00  0.00    +0.010 A 
ATOM      9  C   UNL     1       9.906   6.629  25.340  0.00  0.00    +0.002 A 
ATOM     10  C   UNL     1      11.054   6.640  24.554  0.00  0.00    +0.014 A 
ATOM     11  C   UNL     1      11.349   5.536  23.757  0.00  0.00    +0.014 A 
ATOM     12  I   UNL     1      13.043   5.563  22.551  0.00  0.00    -0.044 I 
ATOM     13  C   UNL     1      10.526   4.404  23.772  0.00  0.00    +0.024 A 
ENDBRANCH   4   7
BRANCH   1  17
ATOM     14  C   UNL     1       8.866  -3.250  25.327  0.00  0.00    +0.039 A 
ATOM     15  C   UNL     1       7.985  -2.613  26.206  0.00  0.00    +0.018 A 
ATOM     16  C   UNL     1       7.702  -1.246  26.074  0.00  0.00    +0.012 A 
ATOM     17  C   UNL     1       8.299  -0.490  25.058  0.00  0.00    +0.017 A 
ATOM     18  C   UNL     1       9.144  -1.154  24.151  0.00  0.00    +0.012 A 
ATOM     19  C   UNL     1       9.422  -2.517  24.277  0.00  0.00    +0.018 A 
BRANCH  14  21
ATOM     20  C   UNL     1       7.919  -5.438  26.661  0.00  0.00    +0.127 C 
ATOM     21  S   UNL     1       9.260  -5.006  25.520  0.00  0.00    +0.051 S 
ATOM     22  O   UNL     1       8.944  -5.644  24.199  0.00  0.00    -0.252 OA
ENDBRANCH  14  21
ENDBRANCH   1  17
BRANCH   5  23
ATOM     23  C   UNL     1       6.125   3.818  24.261  0.00  0.00    +0.005 A 
ATOM     24  C   UNL     1       6.096   4.470  23.025  0.00  0.00    +0.030 A 
ATOM     25  C   UNL     1       5.067   5.357  22.760  0.00  0.00    +0.111 A 
ATOM     26  N   UNL     1       4.080   5.638  23.637  0.00  0.00    -0.263 NA
ATOM     27  C   UNL     1       4.112   4.982  24.815  0.00  0.00    +0.111 A 
ATOM     28  C   UNL     1       5.090   4.063  25.161  0.00  0.00    +0.030 A 
ENDBRANCH   5  23
TORSDOF 4
ENDMDL
MODEL 6
REMARK VINA RESULT:      -6.3      1.720      2.098
REMARK  Name = 
REMARK  5 active torsions:
REMARK  status: ('A' for Active; 'I' for Inactive)
REMARK    1  A    between atoms: C_1  and  S_2
REMARK    2  A    between atoms: S_2  and  C_4
REMARK    3  A    between atoms: C_7  and  C_10
REMARK    4  A    between atoms: C_12  and  C_22
REMARK    5  A    between atoms: C_13  and  C_15
REMARK                            x       y       z     vdW  Elec       q    Type
REMARK                         _______ _______ _______ _____ _____    ______ ____
ROOT
ATOM      1  C   UNL     1       8.570   0.846  24.839  0.00  0.00    +0.139 A 
ATOM      2  N   UNL     1       7.487   1.666  25.061  0.00  0.00    -0.337 N 
ATOM      3  H   UNL     1       6.583   1.357  25.380  0.00  0.00    +0.167 HD
ATOM      4  C   UNL     1       7.855   2.985  24.859  0.00  0.00    +0.074 A 
ATOM      5  C   UNL     1       9.178   2.886  24.445  0.00  0.00    +0.097 A 
ATOM      6  N   UNL     1       9.597   1.577  24.457  0.00  0.00    -0.227 NA
ENDROOT
BRANCH   4   7
ATOM      7  C   UNL     1       6.945   4.109  25.099  0.00  0.00    +0.001 A 
ATOM      8  C   UNL     1       6.875   4.719  26.361  0.00  0.00    +0.010 A 
ATOM      9  C   UNL     1       6.103   5.864  26.569  0.00  0.00    +0.002 A 
ATOM     10  C   UNL     1       5.346   6.392  25.528  0.00  0.00    +0.014 A 
ATOM     11  C   UNL     1       5.356   5.760  24.285  0.00  0.00    +0.014 A 
ATOM     12  I   UNL     1       4.197   6.524  22.737  0.00  0.00    -0.044 I 
ATOM     13  C   UNL     1       6.150   4.629  24.065  0.00  0.00    +0.024 A 
ENDBRANCH   4   7
BRANCH   1  17
ATOM     14  C   UNL     1       8.870  -3.404  25.386  0.00  0.00    +0.039 A 
ATOM     15  C   UNL     1       8.147  -2.635  26.304  0.00  0.00    +0.018 A 
ATOM     16  C   UNL     1       8.013  -1.250  26.133  0.00  0.00    +0.012 A 
ATOM     17  C   UNL     1       8.602  -0.607  25.037  0.00  0.00    +0.017 A 
ATOM     18  C   UNL     1       9.284  -1.399  24.096  0.00  0.00    +0.012 A 
ATOM     19  C   UNL     1       9.413  -2.780  24.262  0.00  0.00    +0.018 A 
BRANCH  14  21
ATOM     20  C   UNL     1       7.410  -5.547  26.246  0.00  0.00    +0.127 C 
ATOM     21  S   UNL     1       9.075  -5.185  25.628  0.00  0.00    +0.051 S 
ATOM     22  O   UNL     1       9.178  -5.775  24.252  0.00  0.00    -0.252 OA
ENDBRANCH  14  21
ENDBRANCH   1  17
BRANCH   5  23
ATOM     23  C   UNL     1      10.097   3.947  24.062  0.00  0.00    +0.005 A 
ATOM     24  C   UNL     1      11.313   3.604  23.465  0.00  0.00    +0.030 A 
ATOM     25  C   UNL     1      12.190   4.613  23.106  0.00  0.00    +0.111 A 
ATOM     26  N   UNL     1      11.942   5.924  23.306  0.00  0.00    -0.263 NA
ATOM     27  C   UNL     1      10.754   6.236  23.862  0.00  0.00    +0.111 A 
ATOM     28  C   UNL     1       9.804   5.299  24.236  0.00  0.00    +0.030 A 
ENDBRANCH   5  23
TORSDOF 4
ENDMDL
MODEL 7
REMARK VINA RESULT:      -6.2      1.809      2.329
REMARK  Name = 
REMARK  5 active torsions:
REMARK  status: ('A' for Active; 'I' for Inactive)
REMARK    1  A    between atoms: C_1  and  S_2
REMARK    2  A    between atoms: S_2  and  C_4
REMARK    3  A    between atoms: C_7  and  C_10
REMARK    4  A    between atoms: C_12  and  C_22
REMARK    5  A    between atoms: C_13  and  C_15
REMARK                            x       y       z     vdW  Elec       q    Type
REMARK                         _______ _______ _______ _____ _____    ______ ____
ROOT
ATOM      1  C   UNL     1       7.733   0.854  23.433  0.00  0.00    +0.139 A 
ATOM      2  N   UNL     1       6.755   1.691  23.917  0.00  0.00    -0.337 N 
ATOM      3  H   UNL     1       5.810   1.416  24.129  0.00  0.00    +0.167 HD
ATOM      4  C   UNL     1       7.290   2.947  24.144  0.00  0.00    +0.074 A 
ATOM      5  C   UNL     1       8.604   2.817  23.707  0.00  0.00    +0.097 A 
ATOM      6  N   UNL     1       8.855   1.530  23.295  0.00  0.00    -0.227 NA
ENDROOT
BRANCH   4   7
ATOM      7  C   UNL     1       6.520   4.043  24.741  0.00  0.00    +0.001 A 
ATOM      8  C   UNL     1       6.650   4.352  26.104  0.00  0.00    +0.010 A 
ATOM      9  C   UNL     1       6.015   5.466  26.657  0.00  0.00    +0.002 A 
ATOM     10  C   UNL     1       5.196   6.265  25.864  0.00  0.00    +0.014 A 
ATOM     11  C   UNL     1       5.008   5.935  24.523  0.00  0.00    +0.014 A 
ATOM     12  I   UNL     1       3.756   7.104  23.345  0.00  0.00    -0.044 I 
ATOM     13  C   UNL     1       5.665   4.835  23.959  0.00  0.00    +0.024 A 
ENDBRANCH   4   7
BRANCH   1  17
ATOM     14  C   UNL     1       7.091  -3.299  22.542  0.00  0.00    +0.039 A 
ATOM     15  C   UNL     1       8.292  -2.687  22.169  0.00  0.00    +0.018 A 
ATOM     16  C   UNL     1       8.535  -1.339  22.472  0.00  0.00    +0.012 A 
ATOM     17  C   UNL     1       7.578  -0.578  23.154  0.00  0.00    +0.017 A 
ATOM     18  C   UNL     1       6.398  -1.220  23.567  0.00  0.00    +0.012 A 
ATOM     19  C   UNL     1       6.156  -2.563  23.272  0.00  0.00    +0.018 A 
BRANCH  14  21
ATOM     20  C   UNL     1       5.690  -5.429  23.524  0.00  0.00    +0.127 C 
ATOM     21  S   UNL     1       6.761  -5.027  22.118  0.00  0.00    +0.051 S 
ATOM     22  O   UNL     1       5.894  -4.989  20.893  0.00  0.00    -0.252 OA
ENDBRANCH  14  21
ENDBRANCH   1  17
BRANCH   5  23
ATOM     23  C   UNL     1       9.659   3.818  23.675  0.00  0.00    +0.005 A 
ATOM     24  C   UNL     1      10.961   3.416  23.368  0.00  0.00    +0.030 A 
ATOM     25  C   UNL     1      11.967   4.366  23.344  0.00  0.00    +0.111 A 
ATOM     26  N   UNL     1      11.765   5.673  23.608  0.00  0.00    -0.263 NA
ATOM     27  C   UNL     1      10.497   6.046  23.880  0.00  0.00    +0.111 A 
ATOM     28  C   UNL     1       9.423   5.172  23.908  0.00  0.00    +0.030 A 
ENDBRANCH   5  23
TORSDOF 4
ENDMDL
MODEL 8
REMARK VINA RESULT:      -6.1      4.572      8.353
REMARK  Name = 
REMARK  5 active torsions:
REMARK  status: ('A' for Active; 'I' for Inactive)
REMARK    1  A    between atoms: C_1  and  S_2
REMARK    2  A    between atoms: S_2  and  C_4
REMARK    3  A    between atoms: C_7  and  C_10
REMARK    4  A    between atoms: C_12  and  C_22
REMARK    5  A    between atoms: C_13  and  C_15
REMARK                            x       y       z     vdW  Elec       q    Type
REMARK                         _______ _______ _______ _____ _____    ______ ____
ROOT
ATOM      1  C   UNL     1       7.917   0.608  25.082  0.00  0.00    +0.139 A 
ATOM      2  N   UNL     1       6.601   0.326  25.361  0.00  0.00    -0.337 N 
ATOM      3  H   UNL     1       5.864   1.009  25.431  0.00  0.00    +0.167 HD
ATOM      4  C   UNL     1       6.429  -1.045  25.450  0.00  0.00    +0.074 A 
ATOM      5  C   UNL     1       7.717  -1.539  25.277  0.00  0.00    +0.097 A 
ATOM      6  N   UNL     1       8.603  -0.515  25.036  0.00  0.00    -0.227 NA
ENDROOT
BRANCH   4   7
ATOM      7  C   UNL     1       5.119  -1.671  25.656  0.00  0.00    +0.001 A 
ATOM      8  C   UNL     1       4.694  -2.730  24.840  0.00  0.00    +0.010 A 
ATOM      9  C   UNL     1       3.503  -3.412  25.101  0.00  0.00    +0.002 A 
ATOM     10  C   UNL     1       2.690  -3.011  26.157  0.00  0.00    +0.014 A 
ATOM     11  C   UNL     1       3.067  -1.920  26.937  0.00  0.00    +0.014 A 
ATOM     12  I   UNL     1       1.836  -1.296  28.492  0.00  0.00    -0.044 I 
ATOM     13  C   UNL     1       4.274  -1.253  26.695  0.00  0.00    +0.024 A 
ENDBRANCH   4   7
BRANCH   1  17
ATOM     14  C   UNL     1       9.560   4.462  24.131  0.00  0.00    +0.039 A 
ATOM     15  C   UNL     1       8.434   4.372  24.955  0.00  0.00    +0.018 A 
ATOM     16  C   UNL     1       7.895   3.124  25.301  0.00  0.00    +0.012 A 
ATOM     17  C   UNL     1       8.474   1.942  24.825  0.00  0.00    +0.017 A 
ATOM     18  C   UNL     1       9.635   2.045  24.039  0.00  0.00    +0.012 A 
ATOM     19  C   UNL     1      10.177   3.287  23.699  0.00  0.00    +0.018 A 
BRANCH  14  21
ATOM     20  C   UNL     1       8.887   7.105  24.296  0.00  0.00    +0.127 C 
ATOM     21  S   UNL     1      10.233   6.073  23.654  0.00  0.00    +0.051 S 
ATOM     22  O   UNL     1      11.426   6.295  24.537  0.00  0.00    -0.252 OA
ENDBRANCH  14  21
ENDBRANCH   1  17
BRANCH   5  23
ATOM     23  C   UNL     1       8.176  -2.918  25.291  0.00  0.00    +0.005 A 
ATOM     24  C   UNL     1       8.630  -3.467  26.493  0.00  0.00    +0.030 A 
ATOM     25  C   UNL     1       9.073  -4.778  26.507  0.00  0.00    +0.111 A 
ATOM     26  N   UNL     1       9.099  -5.567  25.413  0.00  0.00    -0.263 NA
ATOM     27  C   UNL     1       8.636  -5.028  24.266  0.00  0.00    +0.111 A 
ATOM     28  C   UNL     1       8.155  -3.733  24.160  0.00  0.00    +0.030 A 
ENDBRANCH   5  23
TORSDOF 4
ENDMDL
MODEL 9
REMARK VINA RESULT:      -6.0      3.293      4.537
REMARK  Name = 
REMARK  5 active torsions:
REMARK  status: ('A' for Active; 'I' for Inactive)
REMARK    1  A    between atoms: C_1  and  S_2
REMARK    2  A    between atoms: S_2  and  C_4
REMARK    3  A    between atoms: C_7  and  C_10
REMARK    4  A    between atoms: C_12  and  C_22
REMARK    5  A    between atoms: C_13  and  C_15
REMARK                            x       y       z     vdW  Elec       q    Type
REMARK                         _______ _______ _______ _____ _____    ______ ____
ROOT
ATOM      1  C   UNL     1       7.076   0.478  24.233  0.00  0.00    +0.139 A 
ATOM      2  N   UNL     1       7.894   1.465  23.736  0.00  0.00    -0.337 N 
ATOM      3  H   UNL     1       8.489   1.373  22.929  0.00  0.00    +0.167 HD
ATOM      4  C   UNL     1       7.711   2.629  24.463  0.00  0.00    +0.074 A 
ATOM      5  C   UNL     1       6.802   2.251  25.444  0.00  0.00    +0.097 A 
ATOM      6  N   UNL     1       6.416   0.942  25.274  0.00  0.00    -0.227 NA
ENDROOT
BRANCH   4   7
ATOM      7  C   UNL     1       8.379   3.890  24.125  0.00  0.00    +0.001 A 
ATOM      8  C   UNL     1       7.657   5.093  24.078  0.00  0.00    +0.010 A 
ATOM      9  C   UNL     1       8.302   6.315  23.876  0.00  0.00    +0.002 A 
ATOM     10  C   UNL     1       9.678   6.351  23.668  0.00  0.00    +0.014 A 
ATOM     11  C   UNL     1      10.398   5.158  23.650  0.00  0.00    +0.014 A 
ATOM     12  I   UNL     1      12.448   5.203  23.303  0.00  0.00    -0.044 I 
ATOM     13  C   UNL     1       9.760   3.934  23.880  0.00  0.00    +0.024 A 
ENDBRANCH   4   7
BRANCH   1  17
ATOM     14  C   UNL     1       6.813  -3.504  22.642  0.00  0.00    +0.039 A 
ATOM     15  C   UNL     1       5.828  -3.041  23.520  0.00  0.00    +0.018 A 
ATOM     16  C   UNL     1       5.878  -1.736  24.032  0.00  0.00    +0.012 A 
ATOM     17  C   UNL     1       6.918  -0.870  23.674  0.00  0.00    +0.017 A 
ATOM     18  C   UNL     1       7.874  -1.332  22.752  0.00  0.00    +0.012 A 
ATOM     19  C   UNL     1       7.822  -2.629  22.236  0.00  0.00    +0.018 A 
BRANCH  14  21
ATOM     20  C   UNL     1       5.655  -5.900  23.257  0.00  0.00    +0.127 C 
ATOM     21  S   UNL     1       6.769  -5.199  22.011  0.00  0.00    +0.051 S 
ATOM     22  O   UNL     1       6.009  -5.135  20.719  0.00  0.00    -0.252 OA
ENDBRANCH  14  21
ENDBRANCH   1  17
BRANCH   5  23
ATOM     23  C   UNL     1       6.241   3.046  26.525  0.00  0.00    +0.005 A 
ATOM     24  C   UNL     1       7.104   3.600  27.474  0.00  0.00    +0.030 A 
ATOM     25  C   UNL     1       6.570   4.352  28.506  0.00  0.00    +0.111 A 
ATOM     26  N   UNL     1       5.249   4.581  28.657  0.00  0.00    -0.263 NA
ATOM     27  C   UNL     1       4.434   4.057  27.718  0.00  0.00    +0.111 A 
ATOM     28  C   UNL     1       4.877   3.309  26.640  0.00  0.00    +0.030 A 
ENDBRANCH   5  23
TORSDOF 4
ENDMDL
