MODEL 1
REMARK VINA RESULT:      -6.6      0.000      0.000
REMARK  Name = 
REMARK  3 active torsions:
REMARK  status: ('A' for Active; 'I' for Inactive)
REMARK    1  A    between atoms: O_1  and  C_2
REMARK    2  A    between atoms: C_11  and  O_12
REMARK    3  A    between atoms: C_15  and  N_19
REMARK                            x       y       z     vdW  Elec       q    Type
REMARK                         _______ _______ _______ _____ _____    ______ ____
ROOT
ATOM      1  C   UNL     1       7.334   0.823  22.664  0.00  0.00    +0.128 A 
ATOM      2  C   UNL     1       7.527  -0.399  23.331  0.00  0.00    +0.075 A 
ATOM      3  C   UNL     1       6.525  -0.950  24.271  0.00  0.00    +0.202 C 
ATOM      4  C   UNL     1       6.764  -2.246  24.941  0.00  0.00    +0.081 A 
ATOM      5  C   UNL     1       7.943  -2.963  24.715  0.00  0.00    +0.113 A 
ATOM      6  C   UNL     1       8.968  -2.383  23.820  0.00  0.00    +0.201 C 
ATOM      7  O   UNL     1      10.057  -2.925  23.690  0.00  0.00    -0.286 OA
ATOM      8  C   UNL     1       8.110  -4.186  25.387  0.00  0.00    +0.285 A 
ATOM      9  C   UNL     1       7.142  -4.689  26.270  0.00  0.00    +0.088 A 
ATOM     10  C   UNL     1       5.978  -3.965  26.488  0.00  0.00    +0.053 A 
ATOM     11  C   UNL     1       5.792  -2.755  25.827  0.00  0.00    +0.129 A 
ATOM     12  O   UNL     1       5.477  -0.366  24.530  0.00  0.00    -0.286 OA
ATOM     13  C   UNL     1       8.702  -1.115  23.108  0.00  0.00    +0.037 A 
ATOM     14  C   UNL     1       9.669  -0.618  22.218  0.00  0.00    +0.012 A 
ATOM     15  C   UNL     1       9.467   0.594  21.559  0.00  0.00    +0.004 A 
ATOM     16  C   UNL     1       8.299   1.318  21.785  0.00  0.00    +0.046 A 
ENDROOT
BRANCH   8  17
ATOM     17  N   UNL     1       9.283  -5.018  25.200  0.00  0.00    +0.080 N 
ATOM     18  O   UNL     1       9.258  -5.808  24.244  0.00  0.00    +0.041 OA
ATOM     19  O   UNL     1      10.144  -4.968  26.088  0.00  0.00    -0.576 OA
ENDBRANCH   8  17
BRANCH   1  20
ATOM     20  O   UNL     1       6.201   1.559  22.863  0.00  0.00    -0.506 OA
ATOM     21  H   UNL     1       5.523   1.033  23.316  0.00  0.00    +0.292 HD
ENDBRANCH   1  20
BRANCH  11  22
ATOM     22  O   UNL     1       4.617  -2.110  26.108  0.00  0.00    -0.506 OA
ATOM     23  H   UNL     1       3.881  -2.602  25.670  0.00  0.00    +0.292 HD
ENDBRANCH  11  22
TORSDOF 3
ENDMDL
MODEL 2
REMARK VINA RESULT:      -6.6      2.606      3.079
REMARK  Name = 
REMARK  3 active torsions:
REMARK  status: ('A' for Active; 'I' for Inactive)
REMARK    1  A    between atoms: O_1  and  C_2
REMARK    2  A    between atoms: C_11  and  O_12
REMARK    3  A    between atoms: C_15  and  N_19
REMARK                            x       y       z     vdW  Elec       q    Type
REMARK                         _______ _______ _______ _____ _____    ______ ____
ROOT
ATOM      1  C   UNL     1       9.699  -0.402  24.460  0.00  0.00    +0.128 A 
ATOM      2  C   UNL     1       8.887  -1.533  24.266  0.00  0.00    +0.075 A 
ATOM      3  C   UNL     1       8.373  -2.337  25.397  0.00  0.00    +0.202 C 
ATOM      4  C   UNL     1       7.511  -3.512  25.147  0.00  0.00    +0.081 A 
ATOM      5  C   UNL     1       7.183  -3.895  23.842  0.00  0.00    +0.113 A 
ATOM      6  C   UNL     1       7.744  -3.124  22.711  0.00  0.00    +0.201 C 
ATOM      7  O   UNL     1       7.572  -3.497  21.559  0.00  0.00    -0.286 OA
ATOM      8  C   UNL     1       6.363  -5.024  23.673  0.00  0.00    +0.285 A 
ATOM      9  C   UNL     1       5.884  -5.767  24.763  0.00  0.00    +0.088 A 
ATOM     10  C   UNL     1       6.222  -5.378  26.052  0.00  0.00    +0.053 A 
ATOM     11  C   UNL     1       7.027  -4.260  26.240  0.00  0.00    +0.129 A 
ATOM     12  O   UNL     1       8.636  -2.070  26.566  0.00  0.00    -0.286 OA
ATOM     13  C   UNL     1       8.559  -1.917  22.967  0.00  0.00    +0.037 A 
ATOM     14  C   UNL     1       9.029  -1.169  21.873  0.00  0.00    +0.012 A 
ATOM     15  C   UNL     1       9.832  -0.047  22.077  0.00  0.00    +0.004 A 
ATOM     16  C   UNL     1      10.170   0.335  23.373  0.00  0.00    +0.046 A 
ENDROOT
BRANCH   8  17
ATOM     17  N   UNL     1       5.942  -5.485  22.364  0.00  0.00    +0.080 N 
ATOM     18  O   UNL     1       4.879  -5.021  21.925  0.00  0.00    +0.041 OA
ATOM     19  O   UNL     1       6.603  -6.403  21.863  0.00  0.00    -0.576 OA
ENDBRANCH   8  17
BRANCH   1  20
ATOM     20  O   UNL     1      10.051   0.000  25.717  0.00  0.00    -0.506 OA
ATOM     21  H   UNL     1       9.356   0.550  26.110  0.00  0.00    +0.292 HD
ENDBRANCH   1  20
BRANCH  11  22
ATOM     22  O   UNL     1       7.310  -3.955  27.545  0.00  0.00    -0.506 OA
ATOM     23  H   UNL     1       6.671  -3.268  27.849  0.00  0.00    +0.292 HD
ENDBRANCH  11  22
TORSDOF 3
ENDMDL
MODEL 3
REMARK VINA RESULT:      -6.6      3.314      6.083
REMARK  Name = 
REMARK  3 active torsions:
REMARK  status: ('A' for Active; 'I' for Inactive)
REMARK    1  A    between atoms: O_1  and  C_2
REMARK    2  A    between atoms: C_11  and  O_12
REMARK    3  A    between atoms: C_15  and  N_19
REMARK                            x       y       z     vdW  Elec       q    Type
REMARK                         _______ _______ _______ _____ _____    ______ ____
ROOT
ATOM      1  C   UNL     1       3.388  -6.967  25.103  0.00  0.00    +0.128 A 
ATOM      2  C   UNL     1       4.444  -6.055  24.924  0.00  0.00    +0.075 A 
ATOM      3  C   UNL     1       5.613  -6.017  25.830  0.00  0.00    +0.202 C 
ATOM      4  C   UNL     1       6.707  -5.050  25.597  0.00  0.00    +0.081 A 
ATOM      5  C   UNL     1       6.647  -4.145  24.532  0.00  0.00    +0.113 A 
ATOM      6  C   UNL     1       5.451  -4.146  23.662  0.00  0.00    +0.201 C 
ATOM      7  O   UNL     1       5.313  -3.295  22.795  0.00  0.00    -0.286 OA
ATOM      8  C   UNL     1       7.717  -3.248  24.368  0.00  0.00    +0.285 A 
ATOM      9  C   UNL     1       8.819  -3.235  25.239  0.00  0.00    +0.088 A 
ATOM     10  C   UNL     1       8.862  -4.136  26.294  0.00  0.00    +0.053 A 
ATOM     11  C   UNL     1       7.815  -5.035  26.469  0.00  0.00    +0.129 A 
ATOM     12  O   UNL     1       5.722  -6.769  26.794  0.00  0.00    -0.286 OA
ATOM     13  C   UNL     1       4.386  -5.152  23.864  0.00  0.00    +0.037 A 
ATOM     14  C   UNL     1       3.290  -5.168  22.985  0.00  0.00    +0.012 A 
ATOM     15  C   UNL     1       2.249  -6.079  23.170  0.00  0.00    +0.004 A 
ATOM     16  C   UNL     1       2.297  -6.977  24.233  0.00  0.00    +0.046 A 
ENDROOT
BRANCH   8  17
ATOM     17  N   UNL     1       7.765  -2.291  23.280  0.00  0.00    +0.080 N 
ATOM     18  O   UNL     1       8.318  -2.663  22.235  0.00  0.00    +0.041 OA
ATOM     19  O   UNL     1       7.377  -1.143  23.536  0.00  0.00    -0.576 OA
ENDBRANCH   8  17
BRANCH   1  20
ATOM     20  O   UNL     1       3.402  -7.861  26.135  0.00  0.00    -0.506 OA
ATOM     21  H   UNL     1       3.219  -8.759  25.817  0.00  0.00    +0.292 HD
ENDBRANCH   1  20
BRANCH  11  22
ATOM     22  O   UNL     1       7.943  -5.882  27.538  0.00  0.00    -0.506 OA
ATOM     23  H   UNL     1       8.802  -5.691  27.983  0.00  0.00    +0.292 HD
ENDBRANCH  11  22
TORSDOF 3
ENDMDL
MODEL 4
REMARK VINA RESULT:      -6.6      2.390      3.170
REMARK  Name = 
REMARK  3 active torsions:
REMARK  status: ('A' for Active; 'I' for Inactive)
REMARK    1  A    between atoms: O_1  and  C_2
REMARK    2  A    between atoms: C_11  and  O_12
REMARK    3  A    between atoms: C_15  and  N_19
REMARK                            x       y       z     vdW  Elec       q    Type
REMARK                         _______ _______ _______ _____ _____    ______ ____
ROOT
ATOM      1  C   UNL     1       9.563  -0.521  22.489  0.00  0.00    +0.128 A 
ATOM      2  C   UNL     1       8.881  -1.478  23.260  0.00  0.00    +0.075 A 
ATOM      3  C   UNL     1       8.073  -2.553  22.644  0.00  0.00    +0.202 C 
ATOM      4  C   UNL     1       7.381  -3.547  23.493  0.00  0.00    +0.081 A 
ATOM      5  C   UNL     1       7.461  -3.477  24.887  0.00  0.00    +0.113 A 
ATOM      6  C   UNL     1       8.223  -2.367  25.502  0.00  0.00    +0.201 C 
ATOM      7  O   UNL     1       8.219  -2.208  26.715  0.00  0.00    -0.286 OA
ATOM      8  C   UNL     1       6.777  -4.449  25.637  0.00  0.00    +0.285 A 
ATOM      9  C   UNL     1       6.021  -5.464  25.028  0.00  0.00    +0.088 A 
ATOM     10  C   UNL     1       5.946  -5.518  23.643  0.00  0.00    +0.053 A 
ATOM     11  C   UNL     1       6.622  -4.568  22.885  0.00  0.00    +0.129 A 
ATOM     12  O   UNL     1       7.943  -2.664  21.428  0.00  0.00    -0.286 OA
ATOM     13  C   UNL     1       8.959  -1.409  24.649  0.00  0.00    +0.037 A 
ATOM     14  C   UNL     1       9.722  -0.401  25.262  0.00  0.00    +0.012 A 
ATOM     15  C   UNL     1      10.398   0.542  24.487  0.00  0.00    +0.004 A 
ATOM     16  C   UNL     1      10.316   0.484  23.099  0.00  0.00    +0.046 A 
ENDROOT
BRANCH   8  17
ATOM     17  N   UNL     1       6.821  -4.481  27.086  0.00  0.00    +0.080 N 
ATOM     18  O   UNL     1       7.702  -5.186  27.601  0.00  0.00    +0.041 OA
ATOM     19  O   UNL     1       5.892  -3.917  27.680  0.00  0.00    -0.576 OA
ENDBRANCH   8  17
BRANCH   1  20
ATOM     20  O   UNL     1       9.503  -0.547  21.124  0.00  0.00    -0.506 OA
ATOM     21  H   UNL     1       9.994   0.198  20.743  0.00  0.00    +0.292 HD
ENDBRANCH   1  20
BRANCH  11  22
ATOM     22  O   UNL     1       6.487  -4.699  21.528  0.00  0.00    -0.506 OA
ATOM     23  H   UNL     1       5.659  -5.205  21.346  0.00  0.00    +0.292 HD
ENDBRANCH  11  22
TORSDOF 3
ENDMDL
MODEL 5
REMARK VINA RESULT:      -6.5      3.696      6.572
REMARK  Name = 
REMARK  3 active torsions:
REMARK  status: ('A' for Active; 'I' for Inactive)
REMARK    1  A    between atoms: O_1  and  C_2
REMARK    2  A    between atoms: C_11  and  O_12
REMARK    3  A    between atoms: C_15  and  N_19
REMARK                            x       y       z     vdW  Elec       q    Type
REMARK                         _______ _______ _______ _____ _____    ______ ____
ROOT
ATOM      1  C   UNL     1       3.771  -6.895  27.760  0.00  0.00    +0.128 A 
ATOM      2  C   UNL     1       4.768  -6.373  26.917  0.00  0.00    +0.075 A 
ATOM      3  C   UNL     1       4.636  -6.382  25.443  0.00  0.00    +0.202 C 
ATOM      4  C   UNL     1       5.704  -5.811  24.595  0.00  0.00    +0.081 A 
ATOM      5  C   UNL     1       6.861  -5.272  25.166  0.00  0.00    +0.113 A 
ATOM      6  C   UNL     1       7.016  -5.316  26.636  0.00  0.00    +0.201 C 
ATOM      7  O   UNL     1       8.062  -4.960  27.161  0.00  0.00    -0.286 OA
ATOM      8  C   UNL     1       7.840  -4.749  24.303  0.00  0.00    +0.285 A 
ATOM      9  C   UNL     1       7.688  -4.764  22.908  0.00  0.00    +0.088 A 
ATOM     10  C   UNL     1       6.537  -5.307  22.355  0.00  0.00    +0.053 A 
ATOM     11  C   UNL     1       5.554  -5.824  23.193  0.00  0.00    +0.129 A 
ATOM     12  O   UNL     1       3.656  -6.856  24.874  0.00  0.00    -0.286 OA
ATOM     13  C   UNL     1       5.922  -5.837  27.484  0.00  0.00    +0.037 A 
ATOM     14  C   UNL     1       6.073  -5.811  28.881  0.00  0.00    +0.012 A 
ATOM     15  C   UNL     1       5.077  -6.329  29.709  0.00  0.00    +0.004 A 
ATOM     16  C   UNL     1       3.925  -6.875  29.147  0.00  0.00    +0.046 A 
ENDROOT
BRANCH   8  17
ATOM     17  N   UNL     1       9.061  -4.143  24.797  0.00  0.00    +0.080 N 
ATOM     18  O   UNL     1       9.027  -2.923  25.019  0.00  0.00    +0.041 OA
ATOM     19  O   UNL     1      10.067  -4.864  24.819  0.00  0.00    -0.576 OA
ENDBRANCH   8  17
BRANCH   1  20
ATOM     20  O   UNL     1       2.630  -7.440  27.243  0.00  0.00    -0.506 OA
ATOM     21  H   UNL     1       1.928  -7.469  27.912  0.00  0.00    +0.292 HD
ENDBRANCH   1  20
BRANCH  11  22
ATOM     22  O   UNL     1       4.456  -6.341  22.557  0.00  0.00    -0.506 OA
ATOM     23  H   UNL     1       3.769  -6.539  23.237  0.00  0.00    +0.292 HD
ENDBRANCH  11  22
TORSDOF 3
ENDMDL
MODEL 6
REMARK VINA RESULT:      -6.3      1.763      1.786
REMARK  Name = 
REMARK  3 active torsions:
REMARK  status: ('A' for Active; 'I' for Inactive)
REMARK    1  A    between atoms: O_1  and  C_2
REMARK    2  A    between atoms: C_11  and  O_12
REMARK    3  A    between atoms: C_15  and  N_19
REMARK                            x       y       z     vdW  Elec       q    Type
REMARK                         _______ _______ _______ _____ _____    ______ ____
ROOT
ATOM      1  C   UNL     1       8.744   1.425  25.147  0.00  0.00    +0.128 A 
ATOM      2  C   UNL     1       8.532   0.035  25.160  0.00  0.00    +0.075 A 
ATOM      3  C   UNL     1       7.461  -0.591  25.966  0.00  0.00    +0.202 C 
ATOM      4  C   UNL     1       7.266  -2.056  25.939  0.00  0.00    +0.081 A 
ATOM      5  C   UNL     1       8.099  -2.875  25.170  0.00  0.00    +0.113 A 
ATOM      6  C   UNL     1       9.205  -2.253  24.410  0.00  0.00    +0.201 C 
ATOM      7  O   UNL     1      10.022  -2.948  23.821  0.00  0.00    -0.286 OA
ATOM      8  C   UNL     1       7.864  -4.261  25.192  0.00  0.00    +0.285 A 
ATOM      9  C   UNL     1       6.836  -4.830  25.961  0.00  0.00    +0.088 A 
ATOM     10  C   UNL     1       6.020  -4.005  26.723  0.00  0.00    +0.053 A 
ATOM     11  C   UNL     1       6.234  -2.631  26.709  0.00  0.00    +0.129 A 
ATOM     12  O   UNL     1       6.705   0.065  26.677  0.00  0.00    -0.286 OA
ATOM     13  C   UNL     1       9.362  -0.783  24.395  0.00  0.00    +0.037 A 
ATOM     14  C   UNL     1      10.385  -0.216  23.616  0.00  0.00    +0.012 A 
ATOM     15  C   UNL     1      10.584   1.165  23.609  0.00  0.00    +0.004 A 
ATOM     16  C   UNL     1       9.765   1.987  24.379  0.00  0.00    +0.046 A 
ENDROOT
BRANCH   8  17
ATOM     17  N   UNL     1       8.652  -5.192  24.408  0.00  0.00    +0.080 N 
ATOM     18  O   UNL     1       8.196  -5.513  23.301  0.00  0.00    +0.041 OA
ATOM     19  O   UNL     1       9.636  -5.691  24.969  0.00  0.00    -0.576 OA
ENDBRANCH   8  17
BRANCH   1  20
ATOM     20  O   UNL     1       7.959   2.260  25.891  0.00  0.00    -0.506 OA
ATOM     21  H   UNL     1       8.049   3.178  25.590  0.00  0.00    +0.292 HD
ENDBRANCH   1  20
BRANCH  11  22
ATOM     22  O   UNL     1       5.383  -1.899  27.494  0.00  0.00    -0.506 OA
ATOM     23  H   UNL     1       5.496  -0.945  27.268  0.00  0.00    +0.292 HD
ENDBRANCH  11  22
TORSDOF 3
ENDMDL
MODEL 7
REMARK VINA RESULT:      -6.3      1.938      3.909
REMARK  Name = 
REMARK  3 active torsions:
REMARK  status: ('A' for Active; 'I' for Inactive)
REMARK    1  A    between atoms: O_1  and  C_2
REMARK    2  A    between atoms: C_11  and  O_12
REMARK    3  A    between atoms: C_15  and  N_19
REMARK                            x       y       z     vdW  Elec       q    Type
REMARK                         _______ _______ _______ _____ _____    ______ ____
ROOT
ATOM      1  C   UNL     1       8.373   2.169  22.097  0.00  0.00    +0.128 A 
ATOM      2  C   UNL     1       8.066   1.012  22.835  0.00  0.00    +0.075 A 
ATOM      3  C   UNL     1       8.975  -0.154  22.884  0.00  0.00    +0.202 C 
ATOM      4  C   UNL     1       8.618  -1.346  23.683  0.00  0.00    +0.081 A 
ATOM      5  C   UNL     1       7.411  -1.400  24.388  0.00  0.00    +0.113 A 
ATOM      6  C   UNL     1       6.478  -0.256  24.291  0.00  0.00    +0.201 C 
ATOM      7  O   UNL     1       5.366  -0.316  24.799  0.00  0.00    -0.286 OA
ATOM      8  C   UNL     1       7.129  -2.563  25.125  0.00  0.00    +0.285 A 
ATOM      9  C   UNL     1       8.011  -3.655  25.160  0.00  0.00    +0.088 A 
ATOM     10  C   UNL     1       9.203  -3.589  24.452  0.00  0.00    +0.053 A 
ATOM     11  C   UNL     1       9.502  -2.443  23.722  0.00  0.00    +0.129 A 
ATOM     12  O   UNL     1      10.041  -0.183  22.275  0.00  0.00    -0.286 OA
ATOM     13  C   UNL     1       6.863   0.956  23.537  0.00  0.00    +0.037 A 
ATOM     14  C   UNL     1       5.982   2.051  23.512  0.00  0.00    +0.012 A 
ATOM     15  C   UNL     1       6.298   3.195  22.779  0.00  0.00    +0.004 A 
ATOM     16  C   UNL     1       7.494   3.253  22.067  0.00  0.00    +0.046 A 
ENDROOT
BRANCH   8  17
ATOM     17  N   UNL     1       5.920  -2.707  25.911  0.00  0.00    +0.080 N 
ATOM     18  O   UNL     1       5.978  -2.339  27.094  0.00  0.00    +0.041 OA
ATOM     19  O   UNL     1       4.981  -3.311  25.377  0.00  0.00    -0.576 OA
ENDBRANCH   8  17
BRANCH   1  20
ATOM     20  O   UNL     1       9.536   2.259  21.387  0.00  0.00    -0.506 OA
ATOM     21  H   UNL     1      10.048   1.438  21.457  0.00  0.00    +0.292 HD
ENDBRANCH   1  20
BRANCH  11  22
ATOM     22  O   UNL     1      10.697  -2.471  23.053  0.00  0.00    -0.506 OA
ATOM     23  H   UNL     1      11.331  -3.020  23.573  0.00  0.00    +0.292 HD
ENDBRANCH  11  22
TORSDOF 3
ENDMDL
MODEL 8
REMARK VINA RESULT:      -6.2      2.814      4.813
REMARK  Name = 
REMARK  3 active torsions:
REMARK  status: ('A' for Active; 'I' for Inactive)
REMARK    1  A    between atoms: O_1  and  C_2
REMARK    2  A    between atoms: C_11  and  O_12
REMARK    3  A    between atoms: C_15  and  N_19
REMARK                            x       y       z     vdW  Elec       q    Type
REMARK                         _______ _______ _______ _____ _____    ______ ____
ROOT
ATOM      1  C   UNL     1       7.360   2.922  26.396  0.00  0.00    +0.128 A 
ATOM      2  C   UNL     1       7.755   1.829  25.605  0.00  0.00    +0.075 A 
ATOM      3  C   UNL     1       8.226   1.995  24.212  0.00  0.00    +0.202 C 
ATOM      4  C   UNL     1       8.644   0.819  23.420  0.00  0.00    +0.081 A 
ATOM      5  C   UNL     1       8.582  -0.468  23.963  0.00  0.00    +0.113 A 
ATOM      6  C   UNL     1       8.057  -0.638  25.335  0.00  0.00    +0.201 C 
ATOM      7  O   UNL     1       7.882  -1.756  25.799  0.00  0.00    -0.286 OA
ATOM      8  C   UNL     1       8.989  -1.545  23.156  0.00  0.00    +0.285 A 
ATOM      9  C   UNL     1       9.438  -1.360  21.838  0.00  0.00    +0.088 A 
ATOM     10  C   UNL     1       9.489  -0.077  21.311  0.00  0.00    +0.053 A 
ATOM     11  C   UNL     1       9.096   1.001  22.097  0.00  0.00    +0.129 A 
ATOM     12  O   UNL     1       8.288   3.093  23.666  0.00  0.00    -0.286 OA
ATOM     13  C   UNL     1       7.694   0.546  26.144  0.00  0.00    +0.037 A 
ATOM     14  C   UNL     1       7.255   0.358  27.465  0.00  0.00    +0.012 A 
ATOM     15  C   UNL     1       6.868   1.449  28.243  0.00  0.00    +0.004 A 
ATOM     16  C   UNL     1       6.918   2.734  27.706  0.00  0.00    +0.046 A 
ENDROOT
BRANCH   8  17
ATOM     17  N   UNL     1       8.991  -2.913  23.634  0.00  0.00    +0.080 N 
ATOM     18  O   UNL     1      10.046  -3.325  24.139  0.00  0.00    +0.041 OA
ATOM     19  O   UNL     1       7.990  -3.593  23.371  0.00  0.00    -0.576 OA
ENDBRANCH   8  17
BRANCH   1  20
ATOM     20  O   UNL     1       7.395   4.195  25.901  0.00  0.00    -0.506 OA
ATOM     21  H   UNL     1       7.099   4.214  24.978  0.00  0.00    +0.292 HD
ENDBRANCH   1  20
BRANCH  11  22
ATOM     22  O   UNL     1       9.177   2.227  21.491  0.00  0.00    -0.506 OA
ATOM     23  H   UNL     1       8.647   2.870  22.019  0.00  0.00    +0.292 HD
ENDBRANCH  11  22
TORSDOF 3
ENDMDL
MODEL 9
REMARK VINA RESULT:      -6.2      3.336      6.413
REMARK  Name = 
REMARK  3 active torsions:
REMARK  status: ('A' for Active; 'I' for Inactive)
REMARK    1  A    between atoms: O_1  and  C_2
REMARK    2  A    between atoms: C_11  and  O_12
REMARK    3  A    between atoms: C_15  and  N_19
REMARK                            x       y       z     vdW  Elec       q    Type
REMARK                         _______ _______ _______ _____ _____    ______ ____
ROOT
ATOM      1  C   UNL     1       9.661  -2.324  24.039  0.00  0.00    +0.128 A 
ATOM      2  C   UNL     1       9.216  -1.029  24.356  0.00  0.00    +0.075 A 
ATOM      3  C   UNL     1       9.575   0.150  23.537  0.00  0.00    +0.202 C 
ATOM      4  C   UNL     1       9.075   1.493  23.901  0.00  0.00    +0.081 A 
ATOM      5  C   UNL     1       8.273   1.675  25.032  0.00  0.00    +0.113 A 
ATOM      6  C   UNL     1       7.963   0.505  25.882  0.00  0.00    +0.201 C 
ATOM      7  O   UNL     1       7.363   0.646  26.939  0.00  0.00    -0.286 OA
ATOM      8  C   UNL     1       7.834   2.978  25.326  0.00  0.00    +0.285 A 
ATOM      9  C   UNL     1       8.184   4.080  24.529  0.00  0.00    +0.088 A 
ATOM     10  C   UNL     1       8.985   3.884  23.412  0.00  0.00    +0.053 A 
ATOM     11  C   UNL     1       9.424   2.601  23.102  0.00  0.00    +0.129 A 
ATOM     12  O   UNL     1      10.290   0.066  22.542  0.00  0.00    -0.286 OA
ATOM     13  C   UNL     1       8.418  -0.844  25.484  0.00  0.00    +0.037 A 
ATOM     14  C   UNL     1       8.057  -1.946  26.278  0.00  0.00    +0.012 A 
ATOM     15  C   UNL     1       8.502  -3.227  25.952  0.00  0.00    +0.004 A 
ATOM     16  C   UNL     1       9.308  -3.416  24.832  0.00  0.00    +0.046 A 
ENDROOT
BRANCH   8  17
ATOM     17  N   UNL     1       6.976   3.269  26.458  0.00  0.00    +0.080 N 
ATOM     18  O   UNL     1       5.755   3.170  26.271  0.00  0.00    +0.041 OA
ATOM     19  O   UNL     1       7.529   3.724  27.468  0.00  0.00    -0.576 OA
ENDBRANCH   8  17
BRANCH   1  20
ATOM     20  O   UNL     1      10.454  -2.545  22.948  0.00  0.00    -0.506 OA
ATOM     21  H   UNL     1      11.264  -3.014  23.200  0.00  0.00    +0.292 HD
ENDBRANCH   1  20
BRANCH  11  22
ATOM     22  O   UNL     1      10.211   2.506  21.985  0.00  0.00    -0.506 OA
ATOM     23  H   UNL     1      10.833   1.750  22.108  0.00  0.00    +0.292 HD
ENDBRANCH  11  22
TORSDOF 3
ENDMDL
