MODEL 1
REMARK VINA RESULT:      -8.0      0.000      0.000
REMARK  Name = 
REMARK  10 active torsions:
REMARK  status: ('A' for Active; 'I' for Inactive)
REMARK    1  A    between atoms: C_2  and  O_3
REMARK    2  A    between atoms: C_2  and  C_4
REMARK    3  A    between atoms: C_2  and  C_17
REMARK    4  A    between atoms: N_6  and  C_7
REMARK    5  A    between atoms: C_10  and  C_14
REMARK    6  A    between atoms: C_14  and  O_15
REMARK    7  A    between atoms: C_23  and  C_24
REMARK    8  A    between atoms: C_23  and  C_25
REMARK    9  A    between atoms: C_28  and  C_29
REMARK   10  A    between atoms: C_28  and  C_30
REMARK                            x       y       z     vdW  Elec       q    Type
REMARK                         _______ _______ _______ _____ _____    ______ ____
ROOT
ATOM      1  C   UNL     1       9.026  -4.847  26.014  0.00  0.00    +0.230 C 
ENDROOT
BRANCH   1   2
ATOM      2  C   UNL     1       7.549  -5.150  25.880  0.00  0.00    -0.010 A 
ATOM      3  C   UNL     1       6.830  -5.615  26.977  0.00  0.00    +0.007 A 
ATOM      4  C   UNL     1       5.480  -5.933  26.846  0.00  0.00    +0.005 A 
ATOM      5  C   UNL     1       4.800  -5.815  25.613  0.00  0.00    -0.038 A 
ATOM      6  C   UNL     1       3.319  -6.208  25.539  0.00  0.00    -0.010 C 
ATOM      7  C   UNL     1       2.666  -5.718  24.227  0.00  0.00    +0.012 C 
ATOM      8  C   UNL     1       3.537  -6.009  23.017  0.00  0.00    +0.012 C 
ATOM      9  C   UNL     1       4.892  -5.271  23.086  0.00  0.00    -0.010 C 
ATOM     10  C   UNL     1       4.692  -3.777  22.748  0.00  0.00    +0.016 C 
ATOM     11  C   UNL     1       5.787  -5.898  21.990  0.00  0.00    +0.016 C 
ATOM     12  C   UNL     1       3.210  -7.746  25.638  0.00  0.00    +0.016 C 
ATOM     13  C   UNL     1       2.503  -5.585  26.697  0.00  0.00    +0.016 C 
ATOM     14  C   UNL     1       5.527  -5.387  24.479  0.00  0.00    -0.038 A 
ATOM     15  C   UNL     1       6.887  -5.039  24.646  0.00  0.00    +0.011 A 
ENDBRANCH   1   2
BRANCH   1  16
ATOM     16  C   UNL     1       9.455  -3.651  25.133  0.00  0.00    +0.250 C 
ATOM     17  N   UNL     1       8.809  -2.463  25.445  0.00  0.00    -0.281 N 
ATOM     18  H   UNL     1       8.032  -2.504  26.100  0.00  0.00    +0.155 HD
ATOM     19  O   UNL     1      10.286  -3.802  24.236  0.00  0.00    -0.272 OA
BRANCH  17  20
ATOM     20  C   UNL     1       9.021  -1.205  24.836  0.00  0.00    +0.069 A 
ATOM     21  C   UNL     1       8.326  -0.921  23.653  0.00  0.00    +0.145 A 
ATOM     22  F   UNL     1       7.489  -1.839  23.143  0.00  0.00    -0.204 F 
ATOM     23  C   UNL     1       8.495   0.285  22.976  0.00  0.00    +0.055 A 
ATOM     24  C   UNL     1       9.362   1.249  23.498  0.00  0.00    +0.062 A 
ATOM     25  C   UNL     1      10.066   0.981  24.677  0.00  0.00    +0.017 A 
ATOM     26  C   UNL     1       9.884  -0.235  25.346  0.00  0.00    +0.027 A 
BRANCH  24  27
ATOM     27  C   UNL     1       9.547   2.512  22.747  0.00  0.00    +0.337 C 
ATOM     28  O   UNL     1       9.136   3.586  23.151  0.00  0.00    -0.245 OA
BRANCH  27  29
ATOM     29  O   UNL     1      10.244   2.380  21.599  0.00  0.00    -0.477 OA
ATOM     30  H   UNL     1       9.789   1.911  20.876  0.00  0.00    +0.295 HD
ENDBRANCH  27  29
ENDBRANCH  24  27
ENDBRANCH  17  20
ENDBRANCH   1  16
BRANCH   1  31
ATOM     31  O   UNL     1       9.749  -6.032  25.689  0.00  0.00    -0.378 OA
ATOM     32  H   UNL     1       9.435  -6.305  24.807  0.00  0.00    +0.211 HD
ENDBRANCH   1  31
TORSDOF 6
ENDMDL
MODEL 2
REMARK VINA RESULT:      -7.6      2.839      8.332
REMARK  Name = 
REMARK  10 active torsions:
REMARK  status: ('A' for Active; 'I' for Inactive)
REMARK    1  A    between atoms: C_2  and  O_3
REMARK    2  A    between atoms: C_2  and  C_4
REMARK    3  A    between atoms: C_2  and  C_17
REMARK    4  A    between atoms: N_6  and  C_7
REMARK    5  A    between atoms: C_10  and  C_14
REMARK    6  A    between atoms: C_14  and  O_15
REMARK    7  A    between atoms: C_23  and  C_24
REMARK    8  A    between atoms: C_23  and  C_25
REMARK    9  A    between atoms: C_28  and  C_29
REMARK   10  A    between atoms: C_28  and  C_30
REMARK                            x       y       z     vdW  Elec       q    Type
REMARK                         _______ _______ _______ _____ _____    ______ ____
ROOT
ATOM      1  C   UNL     1       9.144  -1.567  21.848  0.00  0.00    +0.230 C 
ENDROOT
BRANCH   1   2
ATOM      2  C   UNL     1       8.768  -0.166  22.277  0.00  0.00    -0.010 A 
ATOM      3  C   UNL     1       9.193   0.930  21.533  0.00  0.00    +0.007 A 
ATOM      4  C   UNL     1       8.882   2.223  21.949  0.00  0.00    +0.005 A 
ATOM      5  C   UNL     1       8.150   2.473  23.130  0.00  0.00    -0.038 A 
ATOM      6  C   UNL     1       7.867   3.925  23.538  0.00  0.00    -0.010 C 
ATOM      7  C   UNL     1       6.801   4.004  24.654  0.00  0.00    +0.012 C 
ATOM      8  C   UNL     1       7.061   2.996  25.760  0.00  0.00    +0.012 C 
ATOM      9  C   UNL     1       6.992   1.540  25.247  0.00  0.00    -0.010 C 
ATOM     10  C   UNL     1       5.517   1.128  25.038  0.00  0.00    +0.016 C 
ATOM     11  C   UNL     1       7.586   0.654  26.368  0.00  0.00    +0.016 C 
ATOM     12  C   UNL     1       9.185   4.567  24.025  0.00  0.00    +0.016 C 
ATOM     13  C   UNL     1       7.326   4.757  22.352  0.00  0.00    +0.016 C 
ATOM     14  C   UNL     1       7.750   1.372  23.923  0.00  0.00    -0.038 A 
ATOM     15  C   UNL     1       8.048   0.070  23.462  0.00  0.00    +0.011 A 
ENDBRANCH   1   2
BRANCH   1  16
ATOM     16  C   UNL     1       8.518  -2.643  22.766  0.00  0.00    +0.250 C 
ATOM     17  N   UNL     1       7.228  -3.006  22.407  0.00  0.00    -0.281 N 
ATOM     18  H   UNL     1       6.762  -2.454  21.691  0.00  0.00    +0.155 HD
ATOM     19  O   UNL     1       9.148  -3.088  23.727  0.00  0.00    -0.272 OA
BRANCH  17  20
ATOM     20  C   UNL     1       6.423  -3.983  23.036  0.00  0.00    +0.069 A 
ATOM     21  C   UNL     1       6.433  -5.281  22.509  0.00  0.00    +0.145 A 
ATOM     22  F   UNL     1       7.200  -5.555  21.441  0.00  0.00    -0.204 F 
ATOM     23  C   UNL     1       5.650  -6.298  23.054  0.00  0.00    +0.055 A 
ATOM     24  C   UNL     1       4.850  -6.027  24.166  0.00  0.00    +0.062 A 
ATOM     25  C   UNL     1       4.825  -4.735  24.703  0.00  0.00    +0.017 A 
ATOM     26  C   UNL     1       5.618  -3.725  24.146  0.00  0.00    +0.027 A 
BRANCH  24  27
ATOM     27  C   UNL     1       4.006  -7.116  24.711  0.00  0.00    +0.337 C 
ATOM     28  O   UNL     1       3.871  -7.310  25.907  0.00  0.00    -0.245 OA
BRANCH  27  29
ATOM     29  O   UNL     1       3.369  -7.847  23.773  0.00  0.00    -0.477 OA
ATOM     30  H   UNL     1       3.797  -7.882  22.898  0.00  0.00    +0.295 HD
ENDBRANCH  27  29
ENDBRANCH  24  27
ENDBRANCH  17  20
ENDBRANCH   1  16
BRANCH   1  31
ATOM     31  O   UNL     1      10.567  -1.653  21.824  0.00  0.00    -0.378 OA
ATOM     32  H   UNL     1      10.784  -2.361  21.191  0.00  0.00    +0.211 HD
ENDBRANCH   1  31
TORSDOF 6
ENDMDL
MODEL 3
REMARK VINA RESULT:      -7.6      2.454      4.053
REMARK  Name = 
REMARK  10 active torsions:
REMARK  status: ('A' for Active; 'I' for Inactive)
REMARK    1  A    between atoms: C_2  and  O_3
REMARK    2  A    between atoms: C_2  and  C_4
REMARK    3  A    between atoms: C_2  and  C_17
REMARK    4  A    between atoms: N_6  and  C_7
REMARK    5  A    between atoms: C_10  and  C_14
REMARK    6  A    between atoms: C_14  and  O_15
REMARK    7  A    between atoms: C_23  and  C_24
REMARK    8  A    between atoms: C_23  and  C_25
REMARK    9  A    between atoms: C_28  and  C_29
REMARK   10  A    between atoms: C_28  and  C_30
REMARK                            x       y       z     vdW  Elec       q    Type
REMARK                         _______ _______ _______ _____ _____    ______ ____
ROOT
ATOM      1  C   UNL     1      10.151  -1.048  22.915  0.00  0.00    +0.230 C 
ENDROOT
BRANCH   1   2
ATOM      2  C   UNL     1       9.153  -1.849  23.723  0.00  0.00    -0.010 A 
ATOM      3  C   UNL     1       9.164  -1.781  25.113  0.00  0.00    +0.007 A 
ATOM      4  C   UNL     1       8.273  -2.549  25.859  0.00  0.00    +0.005 A 
ATOM      5  C   UNL     1       7.349  -3.426  25.249  0.00  0.00    -0.038 A 
ATOM      6  C   UNL     1       6.415  -4.259  26.137  0.00  0.00    -0.010 C 
ATOM      7  C   UNL     1       5.276  -4.904  25.317  0.00  0.00    +0.012 C 
ATOM      8  C   UNL     1       5.788  -5.540  24.036  0.00  0.00    +0.012 C 
ATOM      9  C   UNL     1       6.423  -4.500  23.086  0.00  0.00    -0.010 C 
ATOM     10  C   UNL     1       5.314  -3.680  22.391  0.00  0.00    +0.016 C 
ATOM     11  C   UNL     1       7.179  -5.306  22.002  0.00  0.00    +0.016 C 
ATOM     12  C   UNL     1       7.248  -5.359  26.834  0.00  0.00    +0.016 C 
ATOM     13  C   UNL     1       5.740  -3.394  27.227  0.00  0.00    +0.016 C 
ATOM     14  C   UNL     1       7.355  -3.541  23.840  0.00  0.00    -0.038 A 
ATOM     15  C   UNL     1       8.245  -2.727  23.104  0.00  0.00    +0.011 A 
ENDBRANCH   1   2
BRANCH   1  16
ATOM     16  C   UNL     1       9.538   0.266  22.375  0.00  0.00    +0.250 C 
ATOM     17  N   UNL     1       9.158   1.158  23.367  0.00  0.00    -0.281 N 
ATOM     18  H   UNL     1       9.174   0.832  24.330  0.00  0.00    +0.155 HD
ATOM     19  O   UNL     1       9.407   0.441  21.162  0.00  0.00    -0.272 OA
BRANCH  17  20
ATOM     20  C   UNL     1       8.605   2.444  23.174  0.00  0.00    +0.069 A 
ATOM     21  C   UNL     1       7.356   2.536  22.547  0.00  0.00    +0.145 A 
ATOM     22  F   UNL     1       6.728   1.414  22.157  0.00  0.00    -0.204 F 
ATOM     23  C   UNL     1       6.751   3.767  22.297  0.00  0.00    +0.055 A 
ATOM     24  C   UNL     1       7.392   4.941  22.699  0.00  0.00    +0.062 A 
ATOM     25  C   UNL     1       8.641   4.868  23.325  0.00  0.00    +0.017 A 
ATOM     26  C   UNL     1       9.235   3.625  23.570  0.00  0.00    +0.027 A 
BRANCH  24  27
ATOM     27  C   UNL     1       6.743   6.238  22.399  0.00  0.00    +0.337 C 
ATOM     28  O   UNL     1       6.063   6.840  23.212  0.00  0.00    -0.245 OA
BRANCH  27  29
ATOM     29  O   UNL     1       7.002   6.717  21.164  0.00  0.00    -0.477 OA
ATOM     30  H   UNL     1       6.670   7.614  20.977  0.00  0.00    +0.295 HD
ENDBRANCH  27  29
ENDBRANCH  24  27
ENDBRANCH  17  20
ENDBRANCH   1  16
BRANCH   1  31
ATOM     31  O   UNL     1      10.634  -1.880  21.864  0.00  0.00    -0.378 OA
ATOM     32  H   UNL     1      11.607  -1.837  21.913  0.00  0.00    +0.211 HD
ENDBRANCH   1  31
TORSDOF 6
ENDMDL
MODEL 4
REMARK VINA RESULT:      -7.5      2.586      4.533
REMARK  Name = 
REMARK  10 active torsions:
REMARK  status: ('A' for Active; 'I' for Inactive)
REMARK    1  A    between atoms: C_2  and  O_3
REMARK    2  A    between atoms: C_2  and  C_4
REMARK    3  A    between atoms: C_2  and  C_17
REMARK    4  A    between atoms: N_6  and  C_7
REMARK    5  A    between atoms: C_10  and  C_14
REMARK    6  A    between atoms: C_14  and  O_15
REMARK    7  A    between atoms: C_23  and  C_24
REMARK    8  A    between atoms: C_23  and  C_25
REMARK    9  A    between atoms: C_28  and  C_29
REMARK   10  A    between atoms: C_28  and  C_30
REMARK                            x       y       z     vdW  Elec       q    Type
REMARK                         _______ _______ _______ _____ _____    ______ ____
ROOT
ATOM      1  C   UNL     1       9.825  -1.289  23.001  0.00  0.00    +0.230 C 
ENDROOT
BRANCH   1   2
ATOM      2  C   UNL     1       8.728  -2.323  23.139  0.00  0.00    -0.010 A 
ATOM      3  C   UNL     1       7.992  -2.713  22.025  0.00  0.00    +0.007 A 
ATOM      4  C   UNL     1       6.955  -3.635  22.158  0.00  0.00    +0.005 A 
ATOM      5  C   UNL     1       6.604  -4.190  23.408  0.00  0.00    -0.038 A 
ATOM      6  C   UNL     1       5.435  -5.181  23.481  0.00  0.00    -0.010 C 
ATOM      7  C   UNL     1       5.399  -5.920  24.837  0.00  0.00    +0.012 C 
ATOM      8  C   UNL     1       5.596  -4.970  26.006  0.00  0.00    +0.012 C 
ATOM      9  C   UNL     1       6.977  -4.279  25.966  0.00  0.00    -0.010 C 
ATOM     10  C   UNL     1       8.073  -5.271  26.416  0.00  0.00    +0.016 C 
ATOM     11  C   UNL     1       6.918  -3.125  26.997  0.00  0.00    +0.016 C 
ATOM     12  C   UNL     1       4.116  -4.404  23.272  0.00  0.00    +0.016 C 
ATOM     13  C   UNL     1       5.539  -6.270  22.388  0.00  0.00    +0.016 C 
ATOM     14  C   UNL     1       7.313  -3.770  24.557  0.00  0.00    -0.038 A 
ATOM     15  C   UNL     1       8.382  -2.860  24.391  0.00  0.00    +0.011 A 
ENDBRANCH   1   2
BRANCH   1  16
ATOM     16  C   UNL     1       9.306   0.027  22.375  0.00  0.00    +0.250 C 
ATOM     17  N   UNL     1       8.675   0.868  23.281  0.00  0.00    -0.281 N 
ATOM     18  H   UNL     1       8.481   0.505  24.210  0.00  0.00    +0.155 HD
ATOM     19  O   UNL     1       9.451   0.246  21.172  0.00  0.00    -0.272 OA
BRANCH  17  20
ATOM     20  C   UNL     1       8.135   2.145  23.006  0.00  0.00    +0.069 A 
ATOM     21  C   UNL     1       8.848   3.269  23.444  0.00  0.00    +0.145 A 
ATOM     22  F   UNL     1      10.009   3.100  24.099  0.00  0.00    -0.204 F 
ATOM     23  C   UNL     1       8.374   4.563  23.237  0.00  0.00    +0.055 A 
ATOM     24  C   UNL     1       7.169   4.752  22.556  0.00  0.00    +0.062 A 
ATOM     25  C   UNL     1       6.442   3.641  22.114  0.00  0.00    +0.017 A 
ATOM     26  C   UNL     1       6.932   2.347  22.329  0.00  0.00    +0.027 A 
BRANCH  24  27
ATOM     27  C   UNL     1       6.672   6.135  22.371  0.00  0.00    +0.337 C 
ATOM     28  O   UNL     1       6.003   6.713  23.209  0.00  0.00    -0.245 OA
BRANCH  27  29
ATOM     29  O   UNL     1       7.060   6.715  21.216  0.00  0.00    -0.477 OA
ATOM     30  H   UNL     1       7.778   6.264  20.734  0.00  0.00    +0.295 HD
ENDBRANCH  27  29
ENDBRANCH  24  27
ENDBRANCH  17  20
ENDBRANCH   1  16
BRANCH   1  31
ATOM     31  O   UNL     1      10.876  -1.865  22.230  0.00  0.00    -0.378 OA
ATOM     32  H   UNL     1      10.513  -2.685  21.849  0.00  0.00    +0.211 HD
ENDBRANCH   1  31
TORSDOF 6
ENDMDL
MODEL 5
REMARK VINA RESULT:      -7.5      3.322      8.815
REMARK  Name = 
REMARK  10 active torsions:
REMARK  status: ('A' for Active; 'I' for Inactive)
REMARK    1  A    between atoms: C_2  and  O_3
REMARK    2  A    between atoms: C_2  and  C_4
REMARK    3  A    between atoms: C_2  and  C_17
REMARK    4  A    between atoms: N_6  and  C_7
REMARK    5  A    between atoms: C_10  and  C_14
REMARK    6  A    between atoms: C_14  and  O_15
REMARK    7  A    between atoms: C_23  and  C_24
REMARK    8  A    between atoms: C_23  and  C_25
REMARK    9  A    between atoms: C_28  and  C_29
REMARK   10  A    between atoms: C_28  and  C_30
REMARK                            x       y       z     vdW  Elec       q    Type
REMARK                         _______ _______ _______ _____ _____    ______ ____
ROOT
ATOM      1  C   UNL     1      10.368   0.406  24.638  0.00  0.00    +0.230 C 
ENDROOT
BRANCH   1   2
ATOM      2  C   UNL     1       9.790   1.795  24.473  0.00  0.00    -0.010 A 
ATOM      3  C   UNL     1      10.476   2.754  23.733  0.00  0.00    +0.007 A 
ATOM      4  C   UNL     1       9.965   4.044  23.614  0.00  0.00    +0.005 A 
ATOM      5  C   UNL     1       8.760   4.433  24.240  0.00  0.00    -0.038 A 
ATOM      6  C   UNL     1       8.273   5.879  24.085  0.00  0.00    -0.010 C 
ATOM      7  C   UNL     1       6.809   6.039  24.552  0.00  0.00    +0.012 C 
ATOM      8  C   UNL     1       6.558   5.347  25.881  0.00  0.00    +0.012 C 
ATOM      9  C   UNL     1       6.783   3.821  25.792  0.00  0.00    -0.010 C 
ATOM     10  C   UNL     1       5.589   3.157  25.070  0.00  0.00    +0.016 C 
ATOM     11  C   UNL     1       6.818   3.299  27.249  0.00  0.00    +0.016 C 
ATOM     12  C   UNL     1       9.193   6.803  24.915  0.00  0.00    +0.016 C 
ATOM     13  C   UNL     1       8.318   6.343  22.610  0.00  0.00    +0.016 C 
ATOM     14  C   UNL     1       8.075   3.484  25.033  0.00  0.00    -0.038 A 
ATOM     15  C   UNL     1       8.596   2.172  25.111  0.00  0.00    +0.011 A 
ENDBRANCH   1   2
BRANCH   1  16
ATOM     16  C   UNL     1       9.767  -0.597  23.626  0.00  0.00    +0.250 C 
ATOM     17  N   UNL     1       8.841  -1.468  24.181  0.00  0.00    -0.281 N 
ATOM     18  H   UNL     1       8.744  -1.475  25.193  0.00  0.00    +0.155 HD
ATOM     19  O   UNL     1      10.130  -0.589  22.449  0.00  0.00    -0.272 OA
BRANCH  17  20
ATOM     20  C   UNL     1       8.106  -2.463  23.497  0.00  0.00    +0.069 A 
ATOM     21  C   UNL     1       8.435  -3.804  23.735  0.00  0.00    +0.145 A 
ATOM     22  F   UNL     1       9.422  -4.098  24.598  0.00  0.00    -0.204 F 
ATOM     23  C   UNL     1       7.777  -4.846  23.084  0.00  0.00    +0.055 A 
ATOM     24  C   UNL     1       6.748  -4.552  22.186  0.00  0.00    +0.062 A 
ATOM     25  C   UNL     1       6.408  -3.219  21.934  0.00  0.00    +0.017 A 
ATOM     26  C   UNL     1       7.077  -2.184  22.597  0.00  0.00    +0.027 A 
BRANCH  24  27
ATOM     27  C   UNL     1       6.081  -5.675  21.486  0.00  0.00    +0.337 C 
ATOM     28  O   UNL     1       5.931  -5.702  20.277  0.00  0.00    -0.245 OA
BRANCH  27  29
ATOM     29  O   UNL     1       5.694  -6.683  22.295  0.00  0.00    -0.477 OA
ATOM     30  H   UNL     1       6.413  -7.210  22.691  0.00  0.00    +0.295 HD
ENDBRANCH  27  29
ENDBRANCH  24  27
ENDBRANCH  17  20
ENDBRANCH   1  16
BRANCH   1  31
ATOM     31  O   UNL     1      10.149  -0.003  25.985  0.00  0.00    -0.378 OA
ATOM     32  H   UNL     1      10.972  -0.442  26.271  0.00  0.00    +0.211 HD
ENDBRANCH   1  31
TORSDOF 6
ENDMDL
MODEL 6
REMARK VINA RESULT:      -7.5      3.111      8.056
REMARK  Name = 
REMARK  10 active torsions:
REMARK  status: ('A' for Active; 'I' for Inactive)
REMARK    1  A    between atoms: C_2  and  O_3
REMARK    2  A    between atoms: C_2  and  C_4
REMARK    3  A    between atoms: C_2  and  C_17
REMARK    4  A    between atoms: N_6  and  C_7
REMARK    5  A    between atoms: C_10  and  C_14
REMARK    6  A    between atoms: C_14  and  O_15
REMARK    7  A    between atoms: C_23  and  C_24
REMARK    8  A    between atoms: C_23  and  C_25
REMARK    9  A    between atoms: C_28  and  C_29
REMARK   10  A    between atoms: C_28  and  C_30
REMARK                            x       y       z     vdW  Elec       q    Type
REMARK                         _______ _______ _______ _____ _____    ______ ____
ROOT
ATOM      1  C   UNL     1       9.052  -1.576  21.875  0.00  0.00    +0.230 C 
ENDROOT
BRANCH   1   2
ATOM      2  C   UNL     1       8.701  -0.159  22.273  0.00  0.00    -0.010 A 
ATOM      3  C   UNL     1       9.146   0.913  21.505  0.00  0.00    +0.007 A 
ATOM      4  C   UNL     1       8.858   2.220  21.892  0.00  0.00    +0.005 A 
ATOM      5  C   UNL     1       8.131   2.508  23.068  0.00  0.00    -0.038 A 
ATOM      6  C   UNL     1       7.874   3.974  23.444  0.00  0.00    -0.010 C 
ATOM      7  C   UNL     1       6.810   4.096  24.557  0.00  0.00    +0.012 C 
ATOM      8  C   UNL     1       7.052   3.108  25.686  0.00  0.00    +0.012 C 
ATOM      9  C   UNL     1       6.957   1.644  25.204  0.00  0.00    -0.010 C 
ATOM     10  C   UNL     1       5.476   1.254  25.004  0.00  0.00    +0.016 C 
ATOM     11  C   UNL     1       7.536   0.771  26.345  0.00  0.00    +0.016 C 
ATOM     12  C   UNL     1       9.203   4.603  23.916  0.00  0.00    +0.016 C 
ATOM     13  C   UNL     1       7.348   4.789  22.240  0.00  0.00    +0.016 C 
ATOM     14  C   UNL     1       7.711   1.433  23.884  0.00  0.00    -0.038 A 
ATOM     15  C   UNL     1       7.986   0.116  23.452  0.00  0.00    +0.011 A 
ENDBRANCH   1   2
BRANCH   1  16
ATOM     16  C   UNL     1       8.280  -2.622  22.713  0.00  0.00    +0.250 C 
ATOM     17  N   UNL     1       8.689  -2.693  24.037  0.00  0.00    -0.281 N 
ATOM     18  H   UNL     1       9.525  -2.181  24.303  0.00  0.00    +0.155 HD
ATOM     19  O   UNL     1       7.405  -3.316  22.192  0.00  0.00    -0.272 OA
BRANCH  17  20
ATOM     20  C   UNL     1       8.145  -3.527  25.041  0.00  0.00    +0.069 A 
ATOM     21  C   UNL     1       6.918  -3.158  25.608  0.00  0.00    +0.145 A 
ATOM     22  F   UNL     1       6.302  -2.043  25.182  0.00  0.00    -0.204 F 
ATOM     23  C   UNL     1       6.324  -3.911  26.620  0.00  0.00    +0.055 A 
ATOM     24  C   UNL     1       6.953  -5.074  27.069  0.00  0.00    +0.062 A 
ATOM     25  C   UNL     1       8.181  -5.455  26.516  0.00  0.00    +0.017 A 
ATOM     26  C   UNL     1       8.764  -4.690  25.499  0.00  0.00    +0.027 A 
BRANCH  24  27
ATOM     27  C   UNL     1       6.317  -5.842  28.165  0.00  0.00    +0.337 C 
ATOM     28  O   UNL     1       6.291  -5.449  29.318  0.00  0.00    -0.245 OA
BRANCH  27  29
ATOM     29  O   UNL     1       5.732  -6.992  27.770  0.00  0.00    -0.477 OA
ATOM     30  H   UNL     1       5.084  -7.375  28.390  0.00  0.00    +0.295 HD
ENDBRANCH  27  29
ENDBRANCH  24  27
ENDBRANCH  17  20
ENDBRANCH   1  16
BRANCH   1  31
ATOM     31  O   UNL     1      10.463  -1.731  22.001  0.00  0.00    -0.378 OA
ATOM     32  H   UNL     1      10.859  -1.163  21.314  0.00  0.00    +0.211 HD
ENDBRANCH   1  31
TORSDOF 6
ENDMDL
MODEL 7
REMARK VINA RESULT:      -7.5      1.159      2.642
REMARK  Name = 
REMARK  10 active torsions:
REMARK  status: ('A' for Active; 'I' for Inactive)
REMARK    1  A    between atoms: C_2  and  O_3
REMARK    2  A    between atoms: C_2  and  C_4
REMARK    3  A    between atoms: C_2  and  C_17
REMARK    4  A    between atoms: N_6  and  C_7
REMARK    5  A    between atoms: C_10  and  C_14
REMARK    6  A    between atoms: C_14  and  O_15
REMARK    7  A    between atoms: C_23  and  C_24
REMARK    8  A    between atoms: C_23  and  C_25
REMARK    9  A    between atoms: C_28  and  C_29
REMARK   10  A    between atoms: C_28  and  C_30
REMARK                            x       y       z     vdW  Elec       q    Type
REMARK                         _______ _______ _______ _____ _____    ______ ____
ROOT
ATOM      1  C   UNL     1       9.220  -4.439  25.391  0.00  0.00    +0.230 C 
ENDROOT
BRANCH   1   2
ATOM      2  C   UNL     1       7.765  -4.844  25.301  0.00  0.00    -0.010 A 
ATOM      3  C   UNL     1       7.139  -4.926  24.061  0.00  0.00    +0.007 A 
ATOM      4  C   UNL     1       5.788  -5.260  23.979  0.00  0.00    +0.005 A 
ATOM      5  C   UNL     1       5.008  -5.507  25.130  0.00  0.00    -0.038 A 
ATOM      6  C   UNL     1       3.520  -5.844  24.962  0.00  0.00    -0.010 C 
ATOM      7  C   UNL     1       2.911  -6.392  26.272  0.00  0.00    +0.012 C 
ATOM      8  C   UNL     1       3.317  -5.562  27.478  0.00  0.00    +0.012 C 
ATOM      9  C   UNL     1       4.844  -5.585  27.710  0.00  0.00    -0.010 C 
ATOM     10  C   UNL     1       5.259  -6.936  28.334  0.00  0.00    +0.016 C 
ATOM     11  C   UNL     1       5.146  -4.466  28.736  0.00  0.00    +0.016 C 
ATOM     12  C   UNL     1       2.770  -4.566  24.528  0.00  0.00    +0.016 C 
ATOM     13  C   UNL     1       3.298  -6.931  23.884  0.00  0.00    +0.016 C 
ATOM     14  C   UNL     1       5.617  -5.383  26.399  0.00  0.00    -0.038 A 
ATOM     15  C   UNL     1       6.996  -5.076  26.454  0.00  0.00    +0.011 A 
ENDBRANCH   1   2
BRANCH   1  16
ATOM     16  C   UNL     1       9.498  -3.105  24.658  0.00  0.00    +0.250 C 
ATOM     17  N   UNL     1       8.906  -2.002  25.256  0.00  0.00    -0.281 N 
ATOM     18  H   UNL     1       8.244  -2.169  26.010  0.00  0.00    +0.155 HD
ATOM     19  O   UNL     1      10.175  -3.087  23.629  0.00  0.00    -0.272 OA
BRANCH  17  20
ATOM     20  C   UNL     1       9.013  -0.657  24.834  0.00  0.00    +0.069 A 
ATOM     21  C   UNL     1       7.897  -0.069  24.223  0.00  0.00    +0.145 A 
ATOM     22  F   UNL     1       6.775  -0.789  24.065  0.00  0.00    -0.204 F 
ATOM     23  C   UNL     1       7.926   1.244  23.756  0.00  0.00    +0.055 A 
ATOM     24  C   UNL     1       9.087   2.004  23.917  0.00  0.00    +0.062 A 
ATOM     25  C   UNL     1      10.212   1.432  24.522  0.00  0.00    +0.017 A 
ATOM     26  C   UNL     1      10.167   0.113  24.987  0.00  0.00    +0.027 A 
BRANCH  24  27
ATOM     27  C   UNL     1       9.103   3.388  23.388  0.00  0.00    +0.337 C 
ATOM     28  O   UNL     1       9.745   4.285  23.907  0.00  0.00    -0.245 OA
BRANCH  27  29
ATOM     29  O   UNL     1       8.382   3.561  22.261  0.00  0.00    -0.477 OA
ATOM     30  H   UNL     1       8.877   3.490  21.424  0.00  0.00    +0.295 HD
ENDBRANCH  27  29
ENDBRANCH  24  27
ENDBRANCH  17  20
ENDBRANCH   1  16
BRANCH   1  31
ATOM     31  O   UNL     1      10.006  -5.506  24.866  0.00  0.00    -0.378 OA
ATOM     32  H   UNL     1      10.044  -6.182  25.568  0.00  0.00    +0.211 HD
ENDBRANCH   1  31
TORSDOF 6
ENDMDL
MODEL 8
REMARK VINA RESULT:      -7.4      1.800      3.183
REMARK  Name = 
REMARK  10 active torsions:
REMARK  status: ('A' for Active; 'I' for Inactive)
REMARK    1  A    between atoms: C_2  and  O_3
REMARK    2  A    between atoms: C_2  and  C_4
REMARK    3  A    between atoms: C_2  and  C_17
REMARK    4  A    between atoms: N_6  and  C_7
REMARK    5  A    between atoms: C_10  and  C_14
REMARK    6  A    between atoms: C_14  and  O_15
REMARK    7  A    between atoms: C_23  and  C_24
REMARK    8  A    between atoms: C_23  and  C_25
REMARK    9  A    between atoms: C_28  and  C_29
REMARK   10  A    between atoms: C_28  and  C_30
REMARK                            x       y       z     vdW  Elec       q    Type
REMARK                         _______ _______ _______ _____ _____    ______ ____
ROOT
ATOM      1  C   UNL     1       7.260  -5.613  22.911  0.00  0.00    +0.230 C 
ENDROOT
BRANCH   1   2
ATOM      2  C   UNL     1       5.890  -5.607  23.553  0.00  0.00    -0.010 A 
ATOM      3  C   UNL     1       4.747  -5.603  22.760  0.00  0.00    +0.007 A 
ATOM      4  C   UNL     1       3.485  -5.557  23.350  0.00  0.00    +0.005 A 
ATOM      5  C   UNL     1       3.316  -5.497  24.750  0.00  0.00    -0.038 A 
ATOM      6  C   UNL     1       1.896  -5.423  25.326  0.00  0.00    -0.010 C 
ATOM      7  C   UNL     1       1.885  -5.686  26.848  0.00  0.00    +0.012 C 
ATOM      8  C   UNL     1       2.981  -4.916  27.565  0.00  0.00    +0.012 C 
ATOM      9  C   UNL     1       4.390  -5.341  27.098  0.00  0.00    -0.010 C 
ATOM     10  C   UNL     1       4.760  -6.705  27.722  0.00  0.00    +0.016 C 
ATOM     11  C   UNL     1       5.372  -4.277  27.648  0.00  0.00    +0.016 C 
ATOM     12  C   UNL     1       1.316  -4.021  25.031  0.00  0.00    +0.016 C 
ATOM     13  C   UNL     1       0.965  -6.480  24.689  0.00  0.00    +0.016 C 
ATOM     14  C   UNL     1       4.468  -5.454  25.569  0.00  0.00    -0.038 A 
ATOM     15  C   UNL     1       5.735  -5.536  24.949  0.00  0.00    +0.011 A 
ENDBRANCH   1   2
BRANCH   1  16
ATOM     16  C   UNL     1       8.016  -4.284  23.144  0.00  0.00    +0.250 C 
ATOM     17  N   UNL     1       7.610  -3.253  22.309  0.00  0.00    -0.281 N 
ATOM     18  H   UNL     1       6.980  -3.482  21.544  0.00  0.00    +0.155 HD
ATOM     19  O   UNL     1       8.904  -4.211  23.995  0.00  0.00    -0.272 OA
BRANCH  17  20
ATOM     20  C   UNL     1       8.094  -1.924  22.315  0.00  0.00    +0.069 A 
ATOM     21  C   UNL     1       7.315  -0.944  22.943  0.00  0.00    +0.145 A 
ATOM     22  F   UNL     1       6.150  -1.292  23.514  0.00  0.00    -0.204 F 
ATOM     23  C   UNL     1       7.707   0.394  22.974  0.00  0.00    +0.055 A 
ATOM     24  C   UNL     1       8.917   0.768  22.384  0.00  0.00    +0.062 A 
ATOM     25  C   UNL     1       9.707  -0.198  21.751  0.00  0.00    +0.017 A 
ATOM     26  C   UNL     1       9.300  -1.537  21.730  0.00  0.00    +0.027 A 
BRANCH  24  27
ATOM     27  C   UNL     1       9.299   2.199  22.406  0.00  0.00    +0.337 C 
ATOM     28  O   UNL     1       8.689   3.035  23.050  0.00  0.00    -0.245 OA
BRANCH  27  29
ATOM     29  O   UNL     1      10.404   2.490  21.689  0.00  0.00    -0.477 OA
ATOM     30  H   UNL     1      11.018   3.130  22.093  0.00  0.00    +0.295 HD
ENDBRANCH  27  29
ENDBRANCH  24  27
ENDBRANCH  17  20
ENDBRANCH   1  16
BRANCH   1  31
ATOM     31  O   UNL     1       7.094  -5.892  21.523  0.00  0.00    -0.378 OA
ATOM     32  H   UNL     1       7.864  -5.499  21.074  0.00  0.00    +0.211 HD
ENDBRANCH   1  31
TORSDOF 6
ENDMDL
MODEL 9
REMARK VINA RESULT:      -7.4      2.179      3.210
REMARK  Name = 
REMARK  10 active torsions:
REMARK  status: ('A' for Active; 'I' for Inactive)
REMARK    1  A    between atoms: C_2  and  O_3
REMARK    2  A    between atoms: C_2  and  C_4
REMARK    3  A    between atoms: C_2  and  C_17
REMARK    4  A    between atoms: N_6  and  C_7
REMARK    5  A    between atoms: C_10  and  C_14
REMARK    6  A    between atoms: C_14  and  O_15
REMARK    7  A    between atoms: C_23  and  C_24
REMARK    8  A    between atoms: C_23  and  C_25
REMARK    9  A    between atoms: C_28  and  C_29
REMARK   10  A    between atoms: C_28  and  C_30
REMARK                            x       y       z     vdW  Elec       q    Type
REMARK                         _______ _______ _______ _____ _____    ______ ____
ROOT
ATOM      1  C   UNL     1       9.919  -1.878  24.088  0.00  0.00    +0.230 C 
ENDROOT
BRANCH   1   2
ATOM      2  C   UNL     1       8.686  -2.627  24.544  0.00  0.00    -0.010 A 
ATOM      3  C   UNL     1       8.284  -2.565  25.875  0.00  0.00    +0.007 A 
ATOM      4  C   UNL     1       7.171  -3.287  26.304  0.00  0.00    +0.005 A 
ATOM      5  C   UNL     1       6.429  -4.109  25.429  0.00  0.00    -0.038 A 
ATOM      6  C   UNL     1       5.232  -4.894  25.980  0.00  0.00    -0.010 C 
ATOM      7  C   UNL     1       4.359  -5.472  24.843  0.00  0.00    +0.012 C 
ATOM      8  C   UNL     1       5.199  -6.129  23.761  0.00  0.00    +0.012 C 
ATOM      9  C   UNL     1       6.141  -5.122  23.066  0.00  0.00    -0.010 C 
ATOM     10  C   UNL     1       5.335  -4.239  22.088  0.00  0.00    +0.016 C 
ATOM     11  C   UNL     1       7.146  -5.963  22.241  0.00  0.00    +0.016 C 
ATOM     12  C   UNL     1       5.760  -6.040  26.871  0.00  0.00    +0.016 C 
ATOM     13  C   UNL     1       4.305  -3.998  26.835  0.00  0.00    +0.016 C 
ATOM     14  C   UNL     1       6.852  -4.219  24.084  0.00  0.00    -0.038 A 
ATOM     15  C   UNL     1       7.962  -3.451  23.665  0.00  0.00    +0.011 A 
ENDBRANCH   1   2
BRANCH   1  16
ATOM     16  C   UNL     1       9.585  -0.445  23.612  0.00  0.00    +0.250 C 
ATOM     17  N   UNL     1      10.033   0.551  24.469  0.00  0.00    -0.281 N 
ATOM     18  H   UNL     1      10.399   0.268  25.374  0.00  0.00    +0.155 HD
ATOM     19  O   UNL     1       8.957  -0.264  22.568  0.00  0.00    -0.272 OA
BRANCH  17  20
ATOM     20  C   UNL     1       9.904   1.945  24.278  0.00  0.00    +0.069 A 
ATOM     21  C   UNL     1       8.789   2.585  24.834  0.00  0.00    +0.145 A 
ATOM     22  F   UNL     1       7.891   1.864  25.526  0.00  0.00    -0.204 F 
ATOM     23  C   UNL     1       8.573   3.953  24.673  0.00  0.00    +0.055 A 
ATOM     24  C   UNL     1       9.501   4.714  23.958  0.00  0.00    +0.062 A 
ATOM     25  C   UNL     1      10.619   4.091  23.393  0.00  0.00    +0.017 A 
ATOM     26  C   UNL     1      10.822   2.717  23.565  0.00  0.00    +0.027 A 
BRANCH  24  27
ATOM     27  C   UNL     1       9.236   6.160  23.776  0.00  0.00    +0.337 C 
ATOM     28  O   UNL     1       9.536   6.995  24.612  0.00  0.00    -0.245 OA
BRANCH  27  29
ATOM     29  O   UNL     1       8.676   6.478  22.591  0.00  0.00    -0.477 OA
ATOM     30  H   UNL     1       8.217   7.338  22.555  0.00  0.00    +0.295 HD
ENDBRANCH  27  29
ENDBRANCH  24  27
ENDBRANCH  17  20
ENDBRANCH   1  16
BRANCH   1  31
ATOM     31  O   UNL     1      10.546  -2.645  23.064  0.00  0.00    -0.378 OA
ATOM     32  H   UNL     1      10.601  -2.060  22.285  0.00  0.00    +0.211 HD
ENDBRANCH   1  31
TORSDOF 6
ENDMDL
