MODEL 1
REMARK VINA RESULT:      -7.9      0.000      0.000
REMARK  Name = 
REMARK  8 active torsions:
REMARK  status: ('A' for Active; 'I' for Inactive)
REMARK    1  A    between atoms: C_4  and  C_5
REMARK    2  A    between atoms: C_4  and  C_6
REMARK    3  A    between atoms: CA_7  and  C_31
REMARK    4  A    between atoms: CA_12  and  N_14
REMARK    5  A    between atoms: C_15  and  C_17
REMARK    6  A    between atoms: C_18  and  C_19
REMARK    7  A    between atoms: C_22  and  C_23
REMARK    8  A    between atoms: C_31  and  O_32
REMARK                            x       y       z     vdW  Elec       q    Type
REMARK                         _______ _______ _______ _____ _____    ______ ____
ROOT
ATOM      1  N   UNL     1       8.043  -3.058  23.931  0.00  0.00    -0.298 N 
ATOM      2  H   UNL     1       8.356  -2.558  24.758  0.00  0.00    +0.150 HD
ATOM      3  C   UNL     1       7.445  -4.280  24.097  0.00  0.00    +0.250 C 
ATOM      4  O   UNL     1       7.235  -5.037  23.157  0.00  0.00    -0.270 OA
ENDROOT
BRANCH   1   6
ATOM      5  C   UNL     1       7.785  -1.061  22.371  0.00  0.00    +0.165 C 
ATOM      6  CA  UNL     1       8.362  -2.485  22.597  0.00  0.00    +0.190 C 
ATOM      7  C   UNL     1       9.742  -1.787  22.419  0.00  0.00    +0.240 C 
ATOM      8  O   UNL     1      10.905  -2.020  22.611  0.00  0.00    -0.273 OA
ATOM      9  N   UNL     1       9.158  -0.581  22.127  0.00  0.00    -0.271 N 
ATOM     10  CA  UNL     1       9.568   0.624  22.870  0.00  0.00    +0.201 C 
ATOM     11  C   UNL     1       8.854   0.579  24.242  0.00  0.00    +0.042 C 
ATOM     12  C   UNL     1       9.616  -0.313  25.249  0.00  0.00    +0.025 C 
ATOM     13  C   UNL     1       8.648   1.930  24.931  0.00  0.00    +0.025 C 
ATOM     14  S   UNL     1       7.206  -0.199  23.898  0.00  0.00    -0.127 S 
BRANCH  10  15
ATOM     15  C   UNL     1       9.253   1.815  21.949  0.00  0.00    +0.327 C 
ATOM     16  OXT UNL     1       8.140   2.181  21.605  0.00  0.00    -0.249 OA
BRANCH  15  17
ATOM     17  O   UNL     1      10.360   2.548  21.643  0.00  0.00    -0.479 OA
ATOM     18  H   UNL     1      10.545   2.503  20.681  0.00  0.00    +0.295 HD
ENDBRANCH  15  17
ENDBRANCH  10  15
ENDBRANCH   1   6
BRANCH   3  19
ATOM     19  C   UNL     1       7.070  -4.596  25.461  0.00  0.00    +0.106 A 
ATOM     20  C   UNL     1       5.780  -4.751  26.097  0.00  0.00    +0.128 A 
ATOM     21  N   UNL     1       5.955  -5.100  27.381  0.00  0.00    -0.077 NA
ATOM     22  O   UNL     1       7.307  -5.139  27.611  0.00  0.00    -0.359 OA
ATOM     23  C   UNL     1       7.977  -4.863  26.468  0.00  0.00    +0.147 A 
ATOM     24  C   UNL     1       9.450  -4.884  26.571  0.00  0.00    +0.090 C 
BRANCH  20  25
ATOM     25  C   UNL     1       4.420  -4.558  25.546  0.00  0.00    +0.041 A 
ATOM     26  C   UNL     1       3.713  -3.350  25.727  0.00  0.00    +0.052 A 
ATOM     27 CL   UNL     1       4.480  -1.854  26.154  0.00  0.00    -0.083 Cl
ATOM     28  C   UNL     1       2.331  -3.271  25.499  0.00  0.00    +0.021 A 
ATOM     29  C   UNL     1       1.649  -4.345  24.944  0.00  0.00    +0.003 A 
ATOM     30  C   UNL     1       2.360  -5.483  24.583  0.00  0.00    +0.021 A 
ATOM     31  C   UNL     1       3.724  -5.603  24.894  0.00  0.00    +0.052 A 
ATOM     32 CL   UNL     1       4.441  -7.112  24.431  0.00  0.00    -0.083 Cl
ENDBRANCH  20  25
ENDBRANCH   3  19
TORSDOF 5
ENDMDL
MODEL 2
REMARK VINA RESULT:      -7.8      0.547      1.723
REMARK  Name = 
REMARK  8 active torsions:
REMARK  status: ('A' for Active; 'I' for Inactive)
REMARK    1  A    between atoms: C_4  and  C_5
REMARK    2  A    between atoms: C_4  and  C_6
REMARK    3  A    between atoms: CA_7  and  C_31
REMARK    4  A    between atoms: CA_12  and  N_14
REMARK    5  A    between atoms: C_15  and  C_17
REMARK    6  A    between atoms: C_18  and  C_19
REMARK    7  A    between atoms: C_22  and  C_23
REMARK    8  A    between atoms: C_31  and  O_32
REMARK                            x       y       z     vdW  Elec       q    Type
REMARK                         _______ _______ _______ _____ _____    ______ ____
ROOT
ATOM      1  N   UNL     1       8.012  -3.245  23.858  0.00  0.00    -0.298 N 
ATOM      2  H   UNL     1       8.468  -2.824  24.662  0.00  0.00    +0.150 HD
ATOM      3  C   UNL     1       7.388  -4.454  24.023  0.00  0.00    +0.250 C 
ATOM      4  O   UNL     1       7.005  -5.126  23.073  0.00  0.00    -0.270 OA
ENDROOT
BRANCH   1   6
ATOM      5  C   UNL     1       7.463  -1.193  22.453  0.00  0.00    +0.165 C 
ATOM      6  CA  UNL     1       8.156  -2.579  22.537  0.00  0.00    +0.190 C 
ATOM      7  C   UNL     1       9.460  -1.772  22.269  0.00  0.00    +0.240 C 
ATOM      8  O   UNL     1      10.650  -1.927  22.335  0.00  0.00    -0.273 OA
ATOM      9  N   UNL     1       8.768  -0.599  22.108  0.00  0.00    -0.271 N 
ATOM     10  CA  UNL     1       9.165   0.592  22.880  0.00  0.00    +0.201 C 
ATOM     11  C   UNL     1       8.597   0.421  24.309  0.00  0.00    +0.042 C 
ATOM     12  C   UNL     1       9.515  -0.464  25.182  0.00  0.00    +0.025 C 
ATOM     13  C   UNL     1       8.368   1.714  25.095  0.00  0.00    +0.025 C 
ATOM     14  S   UNL     1       6.980  -0.459  24.077  0.00  0.00    -0.127 S 
BRANCH  10  15
ATOM     15  C   UNL     1       8.678   1.804  22.067  0.00  0.00    +0.327 C 
ATOM     16  OXT UNL     1       7.515   2.134  21.900  0.00  0.00    -0.249 OA
BRANCH  15  17
ATOM     17  O   UNL     1       9.703   2.595  21.641  0.00  0.00    -0.479 OA
ATOM     18  H   UNL     1      10.041   2.280  20.775  0.00  0.00    +0.295 HD
ENDBRANCH  15  17
ENDBRANCH  10  15
ENDBRANCH   1   6
BRANCH   3  19
ATOM     19  C   UNL     1       7.205  -4.864  25.402  0.00  0.00    +0.106 A 
ATOM     20  C   UNL     1       6.017  -5.046  26.206  0.00  0.00    +0.128 A 
ATOM     21  N   UNL     1       6.367  -5.491  27.423  0.00  0.00    -0.077 NA
ATOM     22  O   UNL     1       7.736  -5.567  27.451  0.00  0.00    -0.359 OA
ATOM     23  C   UNL     1       8.241  -5.218  26.245  0.00  0.00    +0.147 A 
ATOM     24  C   UNL     1       9.713  -5.268  26.130  0.00  0.00    +0.090 C 
BRANCH  20  25
ATOM     25  C   UNL     1       4.597  -4.793  25.874  0.00  0.00    +0.041 A 
ATOM     26  C   UNL     1       3.908  -5.580  24.927  0.00  0.00    +0.052 A 
ATOM     27 CL   UNL     1       4.441  -7.154  24.429  0.00  0.00    -0.083 Cl
ATOM     28  C   UNL     1       2.689  -5.158  24.375  0.00  0.00    +0.021 A 
ATOM     29  C   UNL     1       2.055  -4.023  24.860  0.00  0.00    +0.003 A 
ATOM     30  C   UNL     1       2.625  -3.333  25.922  0.00  0.00    +0.021 A 
ATOM     31  C   UNL     1       3.889  -3.696  26.416  0.00  0.00    +0.052 A 
ATOM     32 CL   UNL     1       4.480  -2.690  27.699  0.00  0.00    -0.083 Cl
ENDBRANCH  20  25
ENDBRANCH   3  19
TORSDOF 5
ENDMDL
MODEL 3
REMARK VINA RESULT:      -7.4      2.434      3.761
REMARK  Name = 
REMARK  8 active torsions:
REMARK  status: ('A' for Active; 'I' for Inactive)
REMARK    1  A    between atoms: C_4  and  C_5
REMARK    2  A    between atoms: C_4  and  C_6
REMARK    3  A    between atoms: CA_7  and  C_31
REMARK    4  A    between atoms: CA_12  and  N_14
REMARK    5  A    between atoms: C_15  and  C_17
REMARK    6  A    between atoms: C_18  and  C_19
REMARK    7  A    between atoms: C_22  and  C_23
REMARK    8  A    between atoms: C_31  and  O_32
REMARK                            x       y       z     vdW  Elec       q    Type
REMARK                         _______ _______ _______ _____ _____    ______ ____
ROOT
ATOM      1  N   UNL     1       6.883  -2.145  26.267  0.00  0.00    -0.298 N 
ATOM      2  H   UNL     1       7.648  -2.778  26.053  0.00  0.00    +0.150 HD
ATOM      3  C   UNL     1       5.641  -2.681  26.496  0.00  0.00    +0.250 C 
ATOM      4  O   UNL     1       4.632  -1.989  26.547  0.00  0.00    -0.270 OA
ENDROOT
BRANCH   1   6
ATOM      5  C   UNL     1       8.466  -0.307  25.492  0.00  0.00    +0.165 C 
ATOM      6  CA  UNL     1       7.136  -0.682  26.199  0.00  0.00    +0.190 C 
ATOM      7  C   UNL     1       6.473   0.115  25.037  0.00  0.00    +0.240 C 
ATOM      8  O   UNL     1       5.385   0.267  24.549  0.00  0.00    -0.273 OA
ATOM      9  N   UNL     1       7.689   0.492  24.527  0.00  0.00    -0.271 N 
ATOM     10  CA  UNL     1       7.984   0.259  23.102  0.00  0.00    +0.201 C 
ATOM     11  C   UNL     1       8.353  -1.237  22.951  0.00  0.00    +0.042 C 
ATOM     12  C   UNL     1       7.092  -2.124  22.847  0.00  0.00    +0.025 C 
ATOM     13  C   UNL     1       9.231  -1.589  21.748  0.00  0.00    +0.025 C 
ATOM     14  S   UNL     1       9.247  -1.668  24.518  0.00  0.00    -0.127 S 
BRANCH  10  15
ATOM     15  C   UNL     1       9.056   1.293  22.718  0.00  0.00    +0.327 C 
ATOM     16  OXT UNL     1      10.082   1.525  23.336  0.00  0.00    -0.249 OA
BRANCH  15  17
ATOM     17  O   UNL     1       8.824   1.860  21.500  0.00  0.00    -0.479 OA
ATOM     18  H   UNL     1       7.890   2.152  21.431  0.00  0.00    +0.295 HD
ENDBRANCH  15  17
ENDBRANCH  10  15
ENDBRANCH   1   6
BRANCH   3  19
ATOM     19  C   UNL     1       5.622  -4.118  26.687  0.00  0.00    +0.106 A 
ATOM     20  C   UNL     1       5.887  -5.215  25.785  0.00  0.00    +0.128 A 
ATOM     21  N   UNL     1       5.790  -6.376  26.453  0.00  0.00    -0.077 NA
ATOM     22  O   UNL     1       5.433  -6.073  27.743  0.00  0.00    -0.359 OA
ATOM     23  C   UNL     1       5.354  -4.731  27.896  0.00  0.00    +0.147 A 
ATOM     24  C   UNL     1       4.989  -4.263  29.248  0.00  0.00    +0.090 C 
BRANCH  20  25
ATOM     25  C   UNL     1       6.198  -5.202  24.338  0.00  0.00    +0.041 A 
ATOM     26  C   UNL     1       5.181  -5.122  23.363  0.00  0.00    +0.052 A 
ATOM     27 CL   UNL     1       3.576  -4.560  23.708  0.00  0.00    -0.083 Cl
ATOM     28  C   UNL     1       5.431  -5.431  22.018  0.00  0.00    +0.021 A 
ATOM     29  C   UNL     1       6.726  -5.679  21.585  0.00  0.00    +0.003 A 
ATOM     30  C   UNL     1       7.773  -5.580  22.493  0.00  0.00    +0.021 A 
ATOM     31  C   UNL     1       7.519  -5.363  23.857  0.00  0.00    +0.052 A 
ATOM     32 CL   UNL     1       8.933  -5.332  24.860  0.00  0.00    -0.083 Cl
ENDBRANCH  20  25
ENDBRANCH   3  19
TORSDOF 5
ENDMDL
MODEL 4
REMARK VINA RESULT:      -7.0      2.799      7.811
REMARK  Name = 
REMARK  8 active torsions:
REMARK  status: ('A' for Active; 'I' for Inactive)
REMARK    1  A    between atoms: C_4  and  C_5
REMARK    2  A    between atoms: C_4  and  C_6
REMARK    3  A    between atoms: CA_7  and  C_31
REMARK    4  A    between atoms: CA_12  and  N_14
REMARK    5  A    between atoms: C_15  and  C_17
REMARK    6  A    between atoms: C_18  and  C_19
REMARK    7  A    between atoms: C_22  and  C_23
REMARK    8  A    between atoms: C_31  and  O_32
REMARK                            x       y       z     vdW  Elec       q    Type
REMARK                         _______ _______ _______ _____ _____    ______ ____
ROOT
ATOM      1  N   UNL     1       8.216  -1.387  24.904  0.00  0.00    -0.298 N 
ATOM      2  H   UNL     1       7.732  -1.760  24.093  0.00  0.00    +0.150 HD
ATOM      3  C   UNL     1       9.131  -0.384  24.711  0.00  0.00    +0.250 C 
ATOM      4  O   UNL     1       9.906  -0.030  25.591  0.00  0.00    -0.270 OA
ENDROOT
BRANCH   1   6
ATOM      5  C   UNL     1       6.533  -2.538  26.430  0.00  0.00    +0.165 C 
ATOM      6  CA  UNL     1       7.986  -2.033  26.222  0.00  0.00    +0.190 C 
ATOM      7  C   UNL     1       8.365  -3.536  26.369  0.00  0.00    +0.240 C 
ATOM      8  O   UNL     1       9.306  -4.256  26.166  0.00  0.00    -0.273 OA
ATOM      9  N   UNL     1       7.072  -3.894  26.647  0.00  0.00    -0.271 N 
ATOM     10  CA  UNL     1       6.436  -4.977  25.876  0.00  0.00    +0.201 C 
ATOM     11  C   UNL     1       6.008  -4.379  24.514  0.00  0.00    +0.042 C 
ATOM     12  C   UNL     1       7.186  -4.345  23.515  0.00  0.00    +0.025 C 
ATOM     13  C   UNL     1       4.857  -5.095  23.803  0.00  0.00    +0.025 C 
ATOM     14  S   UNL     1       5.510  -2.633  24.896  0.00  0.00    -0.127 S 
BRANCH  10  15
ATOM     15  C   UNL     1       5.326  -5.542  26.779  0.00  0.00    +0.327 C 
ATOM     16  OXT UNL     1       4.448  -4.895  27.327  0.00  0.00    -0.249 OA
BRANCH  15  17
ATOM     17  O   UNL     1       5.318  -6.905  26.810  0.00  0.00    -0.479 OA
ATOM     18  H   UNL     1       4.695  -7.228  27.495  0.00  0.00    +0.295 HD
ENDBRANCH  15  17
ENDBRANCH  10  15
ENDBRANCH   1   6
BRANCH   3  19
ATOM     19  C   UNL     1       9.098   0.228  23.397  0.00  0.00    +0.106 A 
ATOM     20  C   UNL     1       8.948   1.604  22.976  0.00  0.00    +0.128 A 
ATOM     21  N   UNL     1       9.034   1.672  21.638  0.00  0.00    -0.077 NA
ATOM     22  O   UNL     1       9.194   0.391  21.175  0.00  0.00    -0.359 OA
ATOM     23  C   UNL     1       9.257  -0.471  22.216  0.00  0.00    +0.147 A 
ATOM     24  C   UNL     1       9.443  -1.892  21.859  0.00  0.00    +0.090 C 
BRANCH  20  25
ATOM     25  C   UNL     1       8.705   2.822  23.780  0.00  0.00    +0.041 A 
ATOM     26  C   UNL     1       7.458   3.069  24.393  0.00  0.00    +0.052 A 
ATOM     27 CL   UNL     1       6.281   1.828  24.686  0.00  0.00    -0.083 Cl
ATOM     28  C   UNL     1       7.118   4.342  24.872  0.00  0.00    +0.021 A 
ATOM     29  C   UNL     1       8.062   5.359  24.891  0.00  0.00    +0.003 A 
ATOM     30  C   UNL     1       9.356   5.088  24.465  0.00  0.00    +0.021 A 
ATOM     31  C   UNL     1       9.677   3.843  23.898  0.00  0.00    +0.052 A 
ATOM     32 CL   UNL     1      11.319   3.695  23.360  0.00  0.00    -0.083 Cl
ENDBRANCH  20  25
ENDBRANCH   3  19
TORSDOF 5
ENDMDL
MODEL 5
REMARK VINA RESULT:      -7.0      2.769      7.565
REMARK  Name = 
REMARK  8 active torsions:
REMARK  status: ('A' for Active; 'I' for Inactive)
REMARK    1  A    between atoms: C_4  and  C_5
REMARK    2  A    between atoms: C_4  and  C_6
REMARK    3  A    between atoms: CA_7  and  C_31
REMARK    4  A    between atoms: CA_12  and  N_14
REMARK    5  A    between atoms: C_15  and  C_17
REMARK    6  A    between atoms: C_18  and  C_19
REMARK    7  A    between atoms: C_22  and  C_23
REMARK    8  A    between atoms: C_31  and  O_32
REMARK                            x       y       z     vdW  Elec       q    Type
REMARK                         _______ _______ _______ _____ _____    ______ ____
ROOT
ATOM      1  N   UNL     1       8.169  -1.290  25.035  0.00  0.00    -0.298 N 
ATOM      2  H   UNL     1       7.735  -1.613  24.175  0.00  0.00    +0.150 HD
ATOM      3  C   UNL     1       9.120  -0.306  24.955  0.00  0.00    +0.250 C 
ATOM      4  O   UNL     1       9.838  -0.014  25.903  0.00  0.00    -0.270 OA
ENDROOT
BRANCH   1   6
ATOM      5  C   UNL     1       6.380  -2.544  26.345  0.00  0.00    +0.165 C 
ATOM      6  CA  UNL     1       7.829  -1.990  26.302  0.00  0.00    +0.190 C 
ATOM      7  C   UNL     1       8.240  -3.485  26.438  0.00  0.00    +0.240 C 
ATOM      8  O   UNL     1       9.220  -4.169  26.308  0.00  0.00    -0.273 OA
ATOM      9  N   UNL     1       6.938  -3.890  26.571  0.00  0.00    -0.271 N 
ATOM     10  CA  UNL     1       6.418  -4.963  25.705  0.00  0.00    +0.201 C 
ATOM     11  C   UNL     1       6.109  -4.330  24.327  0.00  0.00    +0.042 C 
ATOM     12  C   UNL     1       7.380  -4.226  23.454  0.00  0.00    +0.025 C 
ATOM     13  C   UNL     1       5.060  -5.054  23.481  0.00  0.00    +0.025 C 
ATOM     14  S   UNL     1       5.520  -2.614  24.712  0.00  0.00    -0.127 S 
BRANCH  10  15
ATOM     15  C   UNL     1       5.242  -5.592  26.472  0.00  0.00    +0.327 C 
ATOM     16  OXT UNL     1       4.257  -5.001  26.885  0.00  0.00    -0.249 OA
BRANCH  15  17
ATOM     17  O   UNL     1       5.326  -6.951  26.538  0.00  0.00    -0.479 OA
ATOM     18  H   UNL     1       6.157  -7.263  26.120  0.00  0.00    +0.295 HD
ENDBRANCH  15  17
ENDBRANCH  10  15
ENDBRANCH   1   6
BRANCH   3  19
ATOM     19  C   UNL     1       9.196   0.367  23.673  0.00  0.00    +0.106 A 
ATOM     20  C   UNL     1       8.856   1.712  23.266  0.00  0.00    +0.128 A 
ATOM     21  N   UNL     1       9.158   1.875  21.968  0.00  0.00    -0.077 NA
ATOM     22  O   UNL     1       9.642   0.676  21.510  0.00  0.00    -0.359 OA
ATOM     23  C   UNL     1       9.690  -0.219  22.523  0.00  0.00    +0.147 A 
ATOM     24  C   UNL     1      10.208  -1.557  22.170  0.00  0.00    +0.090 C 
BRANCH  20  25
ATOM     25  C   UNL     1       8.246   2.814  24.043  0.00  0.00    +0.041 A 
ATOM     26  C   UNL     1       8.988   3.956  24.415  0.00  0.00    +0.052 A 
ATOM     27 CL   UNL     1      10.467   4.423  23.639  0.00  0.00    -0.083 Cl
ATOM     28  C   UNL     1       8.528   4.835  25.406  0.00  0.00    +0.021 A 
ATOM     29  C   UNL     1       7.256   4.686  25.941  0.00  0.00    +0.003 A 
ATOM     30  C   UNL     1       6.433   3.677  25.455  0.00  0.00    +0.021 A 
ATOM     31  C   UNL     1       6.921   2.738  24.531  0.00  0.00    +0.052 A 
ATOM     32 CL   UNL     1       5.784   1.510  24.080  0.00  0.00    -0.083 Cl
ENDBRANCH  20  25
ENDBRANCH   3  19
TORSDOF 5
ENDMDL
MODEL 6
REMARK VINA RESULT:      -6.9      2.483      3.849
REMARK  Name = 
REMARK  8 active torsions:
REMARK  status: ('A' for Active; 'I' for Inactive)
REMARK    1  A    between atoms: C_4  and  C_5
REMARK    2  A    between atoms: C_4  and  C_6
REMARK    3  A    between atoms: CA_7  and  C_31
REMARK    4  A    between atoms: CA_12  and  N_14
REMARK    5  A    between atoms: C_15  and  C_17
REMARK    6  A    between atoms: C_18  and  C_19
REMARK    7  A    between atoms: C_22  and  C_23
REMARK    8  A    between atoms: C_31  and  O_32
REMARK                            x       y       z     vdW  Elec       q    Type
REMARK                         _______ _______ _______ _____ _____    ______ ____
ROOT
ATOM      1  N   UNL     1       7.591  -0.397  24.068  0.00  0.00    -0.298 N 
ATOM      2  H   UNL     1       8.493  -0.277  24.518  0.00  0.00    +0.150 HD
ATOM      3  C   UNL     1       7.319  -1.599  23.468  0.00  0.00    +0.250 C 
ATOM      4  O   UNL     1       6.356  -1.756  22.726  0.00  0.00    -0.270 OA
ENDROOT
BRANCH   1   6
ATOM      5  C   UNL     1       7.266   2.070  24.611  0.00  0.00    +0.165 C 
ATOM      6  CA  UNL     1       6.680   0.775  23.988  0.00  0.00    +0.190 C 
ATOM      7  C   UNL     1       6.672   1.598  22.667  0.00  0.00    +0.240 C 
ATOM      8  O   UNL     1       6.556   1.412  21.485  0.00  0.00    -0.273 OA
ATOM      9  N   UNL     1       7.096   2.734  23.306  0.00  0.00    -0.271 N 
ATOM     10  CA  UNL     1       8.267   3.465  22.790  0.00  0.00    +0.201 C 
ATOM     11  C   UNL     1       9.527   2.698  23.258  0.00  0.00    +0.042 C 
ATOM     12  C   UNL     1       9.845   1.507  22.326  0.00  0.00    +0.025 C 
ATOM     13  C   UNL     1      10.811   3.524  23.360  0.00  0.00    +0.025 C 
ATOM     14  S   UNL     1       9.084   2.031  24.932  0.00  0.00    -0.127 S 
BRANCH  10  15
ATOM     15  C   UNL     1       8.105   4.917  23.272  0.00  0.00    +0.327 C 
ATOM     16  OXT UNL     1       7.930   5.274  24.426  0.00  0.00    -0.249 OA
BRANCH  15  17
ATOM     17  O   UNL     1       8.318   5.825  22.279  0.00  0.00    -0.479 OA
ATOM     18  H   UNL     1       8.728   5.392  21.500  0.00  0.00    +0.295 HD
ENDBRANCH  15  17
ENDBRANCH  10  15
ENDBRANCH   1   6
BRANCH   3  19
ATOM     19  C   UNL     1       8.245  -2.667  23.791  0.00  0.00    +0.106 A 
ATOM     20  C   UNL     1       8.036  -4.056  24.136  0.00  0.00    +0.128 A 
ATOM     21  N   UNL     1       9.224  -4.658  24.298  0.00  0.00    -0.077 NA
ATOM     22  O   UNL     1      10.193  -3.705  24.110  0.00  0.00    -0.359 OA
ATOM     23  C   UNL     1       9.619  -2.523  23.785  0.00  0.00    +0.147 A 
ATOM     24  C   UNL     1      10.553  -1.405  23.541  0.00  0.00    +0.090 C 
BRANCH  20  25
ATOM     25  C   UNL     1       6.776  -4.806  24.336  0.00  0.00    +0.041 A 
ATOM     26  C   UNL     1       6.165  -5.520  23.284  0.00  0.00    +0.052 A 
ATOM     27 CL   UNL     1       7.007  -6.000  21.845  0.00  0.00    -0.083 Cl
ATOM     28  C   UNL     1       4.834  -5.954  23.371  0.00  0.00    +0.021 A 
ATOM     29  C   UNL     1       4.130  -5.822  24.560  0.00  0.00    +0.003 A 
ATOM     30  C   UNL     1       4.773  -5.289  25.670  0.00  0.00    +0.021 A 
ATOM     31  C   UNL     1       6.073  -4.768  25.563  0.00  0.00    +0.052 A 
ATOM     32 CL   UNL     1       6.701  -4.083  27.027  0.00  0.00    -0.083 Cl
ENDBRANCH  20  25
ENDBRANCH   3  19
TORSDOF 5
ENDMDL
MODEL 7
REMARK VINA RESULT:      -6.9      2.666      3.920
REMARK  Name = 
REMARK  8 active torsions:
REMARK  status: ('A' for Active; 'I' for Inactive)
REMARK    1  A    between atoms: C_4  and  C_5
REMARK    2  A    between atoms: C_4  and  C_6
REMARK    3  A    between atoms: CA_7  and  C_31
REMARK    4  A    between atoms: CA_12  and  N_14
REMARK    5  A    between atoms: C_15  and  C_17
REMARK    6  A    between atoms: C_18  and  C_19
REMARK    7  A    between atoms: C_22  and  C_23
REMARK    8  A    between atoms: C_31  and  O_32
REMARK                            x       y       z     vdW  Elec       q    Type
REMARK                         _______ _______ _______ _____ _____    ______ ____
ROOT
ATOM      1  N   UNL     1       7.201  -0.071  23.759  0.00  0.00    -0.298 N 
ATOM      2  H   UNL     1       7.730  -0.231  22.907  0.00  0.00    +0.150 HD
ATOM      3  C   UNL     1       7.084  -1.102  24.655  0.00  0.00    +0.250 C 
ATOM      4  O   UNL     1       6.296  -1.066  25.592  0.00  0.00    -0.270 OA
ENDROOT
BRANCH   1   6
ATOM      5  C   UNL     1       7.327   2.310  24.654  0.00  0.00    +0.165 C 
ATOM      6  CA  UNL     1       6.494   1.226  23.918  0.00  0.00    +0.190 C 
ATOM      7  C   UNL     1       6.535   2.226  22.725  0.00  0.00    +0.240 C 
ATOM      8  O   UNL     1       6.312   2.234  21.544  0.00  0.00    -0.273 OA
ATOM      9  N   UNL     1       7.183   3.176  23.470  0.00  0.00    -0.271 N 
ATOM     10  CA  UNL     1       8.422   3.784  22.954  0.00  0.00    +0.201 C 
ATOM     11  C   UNL     1       9.566   2.771  23.202  0.00  0.00    +0.042 C 
ATOM     12  C   UNL     1       9.619   1.695  22.094  0.00  0.00    +0.025 C 
ATOM     13  C   UNL     1      10.973   3.364  23.298  0.00  0.00    +0.025 C 
ATOM     14  S   UNL     1       9.130   1.944  24.804  0.00  0.00    -0.127 S 
BRANCH  10  15
ATOM     15  C   UNL     1       8.536   5.158  23.638  0.00  0.00    +0.327 C 
ATOM     16  OXT UNL     1       8.454   5.370  24.837  0.00  0.00    -0.249 OA
BRANCH  15  17
ATOM     17  O   UNL     1       8.888   6.148  22.770  0.00  0.00    -0.479 OA
ATOM     18  H   UNL     1       9.613   5.845  22.183  0.00  0.00    +0.295 HD
ENDBRANCH  15  17
ENDBRANCH  10  15
ENDBRANCH   1   6
BRANCH   3  19
ATOM     19  C   UNL     1       7.972  -2.224  24.415  0.00  0.00    +0.106 A 
ATOM     20  C   UNL     1       7.717  -3.636  24.241  0.00  0.00    +0.128 A 
ATOM     21  N   UNL     1       8.874  -4.270  23.990  0.00  0.00    -0.077 NA
ATOM     22  O   UNL     1       9.871  -3.328  24.035  0.00  0.00    -0.359 OA
ATOM     23  C   UNL     1       9.340  -2.105  24.264  0.00  0.00    +0.147 A 
ATOM     24  C   UNL     1      10.306  -0.990  24.324  0.00  0.00    +0.090 C 
BRANCH  20  25
ATOM     25  C   UNL     1       6.447  -4.391  24.327  0.00  0.00    +0.041 A 
ATOM     26  C   UNL     1       6.208  -5.320  25.362  0.00  0.00    +0.052 A 
ATOM     27 CL   UNL     1       7.098  -5.336  26.851  0.00  0.00    -0.083 Cl
ATOM     28  C   UNL     1       5.170  -6.260  25.274  0.00  0.00    +0.021 A 
ATOM     29  C   UNL     1       4.255  -6.200  24.232  0.00  0.00    +0.003 A 
ATOM     30  C   UNL     1       4.361  -5.176  23.300  0.00  0.00    +0.021 A 
ATOM     31  C   UNL     1       5.450  -4.290  23.329  0.00  0.00    +0.052 A 
ATOM     32 CL   UNL     1       5.461  -3.114  22.055  0.00  0.00    -0.083 Cl
ENDBRANCH  20  25
ENDBRANCH   3  19
TORSDOF 5
ENDMDL
MODEL 8
REMARK VINA RESULT:      -6.9      2.562      3.315
REMARK  Name = 
REMARK  8 active torsions:
REMARK  status: ('A' for Active; 'I' for Inactive)
REMARK    1  A    between atoms: C_4  and  C_5
REMARK    2  A    between atoms: C_4  and  C_6
REMARK    3  A    between atoms: CA_7  and  C_31
REMARK    4  A    between atoms: CA_12  and  N_14
REMARK    5  A    between atoms: C_15  and  C_17
REMARK    6  A    between atoms: C_18  and  C_19
REMARK    7  A    between atoms: C_22  and  C_23
REMARK    8  A    between atoms: C_31  and  O_32
REMARK                            x       y       z     vdW  Elec       q    Type
REMARK                         _______ _______ _______ _____ _____    ______ ____
ROOT
ATOM      1  N   UNL     1       6.974   0.086  23.459  0.00  0.00    -0.298 N 
ATOM      2  H   UNL     1       6.828   0.474  24.386  0.00  0.00    +0.150 HD
ATOM      3  C   UNL     1       7.468  -1.189  23.357  0.00  0.00    +0.250 C 
ATOM      4  O   UNL     1       7.872  -1.649  22.296  0.00  0.00    -0.270 OA
ENDROOT
BRANCH   1   6
ATOM      5  C   UNL     1       6.122   2.341  22.636  0.00  0.00    +0.165 C 
ATOM      6  CA  UNL     1       6.754   0.968  22.283  0.00  0.00    +0.190 C 
ATOM      7  C   UNL     1       7.955   1.823  21.783  0.00  0.00    +0.240 C 
ATOM      8  O   UNL     1       9.106   1.671  21.470  0.00  0.00    -0.273 OA
ATOM      9  N   UNL     1       7.293   2.998  22.028  0.00  0.00    -0.271 N 
ATOM     10  CA  UNL     1       7.945   4.045  22.835  0.00  0.00    +0.201 C 
ATOM     11  C   UNL     1       7.810   3.628  24.319  0.00  0.00    +0.042 C 
ATOM     12  C   UNL     1       8.906   2.617  24.726  0.00  0.00    +0.025 C 
ATOM     13  C   UNL     1       7.871   4.766  25.340  0.00  0.00    +0.025 C 
ATOM     14  S   UNL     1       6.162   2.783  24.429  0.00  0.00    -0.127 S 
BRANCH  10  15
ATOM     15  C   UNL     1       7.291   5.372  22.413  0.00  0.00    +0.327 C 
ATOM     16  OXT UNL     1       6.115   5.668  22.551  0.00  0.00    -0.249 OA
BRANCH  15  17
ATOM     17  O   UNL     1       8.200   6.288  21.975  0.00  0.00    -0.479 OA
ATOM     18  H   UNL     1       8.257   6.273  20.996  0.00  0.00    +0.295 HD
ENDBRANCH  15  17
ENDBRANCH  10  15
ENDBRANCH   1   6
BRANCH   3  19
ATOM     19  C   UNL     1       7.461  -1.947  24.593  0.00  0.00    +0.106 A 
ATOM     20  C   UNL     1       6.703  -3.106  25.010  0.00  0.00    +0.128 A 
ATOM     21  N   UNL     1       7.095  -3.475  26.240  0.00  0.00    -0.077 NA
ATOM     22  O   UNL     1       8.048  -2.577  26.650  0.00  0.00    -0.359 OA
ATOM     23  C   UNL     1       8.288  -1.679  25.666  0.00  0.00    +0.147 A 
ATOM     24  C   UNL     1       9.309  -0.656  25.971  0.00  0.00    +0.090 C 
BRANCH  20  25
ATOM     25  C   UNL     1       5.628  -3.842  24.308  0.00  0.00    +0.041 A 
ATOM     26  C   UNL     1       4.280  -3.748  24.715  0.00  0.00    +0.052 A 
ATOM     27 CL   UNL     1       3.673  -2.459  25.705  0.00  0.00    -0.083 Cl
ATOM     28  C   UNL     1       3.319  -4.671  24.277  0.00  0.00    +0.021 A 
ATOM     29  C   UNL     1       3.640  -5.613  23.310  0.00  0.00    +0.003 A 
ATOM     30  C   UNL     1       4.914  -5.605  22.756  0.00  0.00    +0.021 A 
ATOM     31  C   UNL     1       5.907  -4.746  23.256  0.00  0.00    +0.052 A 
ATOM     32 CL   UNL     1       7.456  -4.910  22.496  0.00  0.00    -0.083 Cl
ENDBRANCH  20  25
ENDBRANCH   3  19
TORSDOF 5
ENDMDL
MODEL 9
REMARK VINA RESULT:      -6.9      2.255      3.093
REMARK  Name = 
REMARK  8 active torsions:
REMARK  status: ('A' for Active; 'I' for Inactive)
REMARK    1  A    between atoms: C_4  and  C_5
REMARK    2  A    between atoms: C_4  and  C_6
REMARK    3  A    between atoms: CA_7  and  C_31
REMARK    4  A    between atoms: CA_12  and  N_14
REMARK    5  A    between atoms: C_15  and  C_17
REMARK    6  A    between atoms: C_18  and  C_19
REMARK    7  A    between atoms: C_22  and  C_23
REMARK    8  A    between atoms: C_31  and  O_32
REMARK                            x       y       z     vdW  Elec       q    Type
REMARK                         _______ _______ _______ _____ _____    ______ ____
ROOT
ATOM      1  N   UNL     1       7.469  -3.286  24.586  0.00  0.00    -0.298 N 
ATOM      2  H   UNL     1       6.821  -2.653  24.127  0.00  0.00    +0.150 HD
ATOM      3  C   UNL     1       7.123  -4.609  24.691  0.00  0.00    +0.250 C 
ATOM      4  O   UNL     1       7.737  -5.389  25.408  0.00  0.00    -0.270 OA
ENDROOT
BRANCH   1   6
ATOM      5  C   UNL     1       9.541  -1.842  24.255  0.00  0.00    +0.165 C 
ATOM      6  CA  UNL     1       8.688  -2.714  25.216  0.00  0.00    +0.190 C 
ATOM      7  C   UNL     1       8.533  -1.394  26.027  0.00  0.00    +0.240 C 
ATOM      8  O   UNL     1       7.852  -0.952  26.913  0.00  0.00    -0.273 OA
ATOM      9  N   UNL     1       9.380  -0.714  25.190  0.00  0.00    -0.271 N 
ATOM     10  CA  UNL     1       8.945   0.564  24.599  0.00  0.00    +0.201 C 
ATOM     11  C   UNL     1       8.005   0.226  23.418  0.00  0.00    +0.042 C 
ATOM     12  C   UNL     1       6.563  -0.053  23.903  0.00  0.00    +0.025 C 
ATOM     13  C   UNL     1       7.896   1.291  22.325  0.00  0.00    +0.025 C 
ATOM     14  S   UNL     1       8.693  -1.337  22.694  0.00  0.00    -0.127 S 
BRANCH  10  15
ATOM     15  C   UNL     1      10.234   1.340  24.276  0.00  0.00    +0.327 C 
ATOM     16  OXT UNL     1      10.298   2.500  23.902  0.00  0.00    -0.249 OA
BRANCH  15  17
ATOM     17  O   UNL     1      11.360   0.637  24.585  0.00  0.00    -0.479 OA
ATOM     18  H   UNL     1      11.386   0.438  25.545  0.00  0.00    +0.295 HD
ENDBRANCH  15  17
ENDBRANCH  10  15
ENDBRANCH   1   6
BRANCH   3  19
ATOM     19  C   UNL     1       5.991  -5.010  23.878  0.00  0.00    +0.106 A 
ATOM     20  C   UNL     1       4.593  -5.198  24.196  0.00  0.00    +0.128 A 
ATOM     21  N   UNL     1       3.923  -5.528  23.080  0.00  0.00    -0.077 NA
ATOM     22  O   UNL     1       4.839  -5.598  22.062  0.00  0.00    -0.359 OA
ATOM     23  C   UNL     1       6.068  -5.269  22.524  0.00  0.00    +0.147 A 
ATOM     24  C   UNL     1       7.154  -5.291  21.522  0.00  0.00    +0.090 C 
BRANCH  20  25
ATOM     25  C   UNL     1       3.893  -5.103  25.496  0.00  0.00    +0.041 A 
ATOM     26  C   UNL     1       3.882  -3.907  26.245  0.00  0.00    +0.052 A 
ATOM     27 CL   UNL     1       4.233  -2.353  25.559  0.00  0.00    -0.083 Cl
ATOM     28  C   UNL     1       3.511  -3.895  27.597  0.00  0.00    +0.021 A 
ATOM     29  C   UNL     1       2.999  -5.038  28.195  0.00  0.00    +0.003 A 
ATOM     30  C   UNL     1       2.825  -6.182  27.426  0.00  0.00    +0.021 A 
ATOM     31  C   UNL     1       3.281  -6.228  26.098  0.00  0.00    +0.052 A 
ATOM     32 CL   UNL     1       3.044  -7.751  25.304  0.00  0.00    -0.083 Cl
ENDBRANCH  20  25
ENDBRANCH   3  19
TORSDOF 5
ENDMDL
