MODEL 1
REMARK VINA RESULT:      -7.6      0.000      0.000
REMARK  Name = 
REMARK  15 active torsions:
REMARK  status: ('A' for Active; 'I' for Inactive)
REMARK    1  A    between atoms: C_1  and  C_2
REMARK    2  A    between atoms: N_4  and  C_5
REMARK    3  A    between atoms: C_8  and  O_10
REMARK    4  A    between atoms: C_11  and  C_13
REMARK    5  A    between atoms: C_13  and  O_14
REMARK    6  A    between atoms: O_14  and  P_15
REMARK    7  A    between atoms: P_15  and  O_16
REMARK    8  A    between atoms: P_15  and  O_18
REMARK    9  A    between atoms: O_18  and  P_19
REMARK   10  A    between atoms: P_19  and  O_20
REMARK   11  A    between atoms: P_19  and  O_22
REMARK   12  A    between atoms: O_22  and  C_23
REMARK   13  A    between atoms: C_27  and  O_29
REMARK   14  A    between atoms: C_30  and  O_32
REMARK   15  A    between atoms: C_33  and  O_35
REMARK                            x       y       z     vdW  Elec       q    Type
REMARK                         _______ _______ _______ _____ _____    ______ ____
ROOT
ATOM      1  P   UNL     1       9.082  -4.476  25.511  0.00  0.00    +0.483 P 
ATOM      2  O   UNL     1       8.356  -5.602  24.753  0.00  0.00    -0.227 OA
ENDROOT
BRANCH   1   3
ATOM      3  O   UNL     1      10.568  -5.151  24.935  0.00  0.00    -0.302 OA
ATOM      4  H   UNL     1      10.321  -6.081  24.753  0.00  0.00    +0.222 HD
ENDBRANCH   1   3
BRANCH   1   5
ATOM      5  O   UNL     1       9.228  -3.260  24.403  0.00  0.00    -0.284 OA
BRANCH   5   6
ATOM      6  C   UNL     1       9.050  -1.941  24.906  0.00  0.00    +0.206 C 
BRANCH   6   9
ATOM      7  C   UNL     1       9.210   1.185  23.506  0.00  0.00    +0.226 C 
ATOM      8  O   UNL     1       9.702   0.409  24.617  0.00  0.00    -0.348 OA
ATOM      9  C   UNL     1       9.918  -0.940  24.137  0.00  0.00    +0.175 C 
ATOM     10  C   UNL     1       9.641  -0.935  22.630  0.00  0.00    +0.150 C 
ATOM     11  C   UNL     1       9.798   0.524  22.270  0.00  0.00    +0.088 C 
BRANCH   7  20
ATOM     12  C   UNL     1      12.565   4.873  23.291  0.00  0.00    +0.051 C 
ATOM     13  C   UNL     1      11.194   4.334  23.517  0.00  0.00    +0.030 A 
ATOM     14  C   UNL     1      10.132   5.308  23.863  0.00  0.00    +0.257 A 
ATOM     15  O   UNL     1      10.362   6.509  23.991  0.00  0.00    -0.267 OA
ATOM     16  N   UNL     1       8.883   4.795  24.033  0.00  0.00    -0.275 N 
ATOM     17  H   UNL     1       8.129   5.428  24.232  0.00  0.00    +0.173 HD
ATOM     18  C   UNL     1       8.526   3.475  23.891  0.00  0.00    +0.331 A 
ATOM     19  O   UNL     1       7.344   3.146  23.990  0.00  0.00    -0.246 OA
ATOM     20  N   UNL     1       9.564   2.592  23.630  0.00  0.00    -0.274 N 
ATOM     21  C   UNL     1      10.855   3.040  23.425  0.00  0.00    +0.101 A 
ENDBRANCH   7  20
BRANCH  10  22
ATOM     22  O   UNL     1      10.542  -1.763  21.908  0.00  0.00    -0.389 OA
ATOM     23  H   UNL     1      10.156  -1.968  21.039  0.00  0.00    +0.210 HD
ENDBRANCH  10  22
ENDBRANCH   6   9
ENDBRANCH   5   6
ENDBRANCH   1   5
BRANCH   1  24
ATOM     24  O   UNL     1       7.597  -3.799  26.086  0.00  0.00    -0.186 OA
BRANCH  24  25
ATOM     25  P   UNL     1       6.347  -4.991  25.992  0.00  0.00    +0.486 P 
ATOM     26  O   UNL     1       5.335  -3.969  26.518  0.00  0.00    -0.227 OA
BRANCH  25  27
ATOM     27  O   UNL     1       6.967  -5.728  27.298  0.00  0.00    -0.302 OA
ATOM     28  H   UNL     1       6.293  -5.937  27.983  0.00  0.00    +0.222 HD
ENDBRANCH  25  27
BRANCH  25  29
ATOM     29  O   UNL     1       5.096  -6.182  25.897  0.00  0.00    -0.254 OA
BRANCH  29  30
ATOM     30  C   UNL     1       4.962  -6.787  24.583  0.00  0.00    +0.293 C 
ATOM     31  C   UNL     1       4.694  -5.787  23.431  0.00  0.00    +0.202 C 
ATOM     32  C   UNL     1       3.237  -5.274  23.412  0.00  0.00    +0.178 C 
ATOM     33  C   UNL     1       2.194  -6.390  23.577  0.00  0.00    +0.171 C 
ATOM     34  C   UNL     1       2.622  -7.423  24.620  0.00  0.00    +0.197 C 
ATOM     35  O   UNL     1       3.986  -7.845  24.487  0.00  0.00    -0.346 OA
BRANCH  31  36
ATOM     36  O   UNL     1       5.004  -6.428  22.176  0.00  0.00    -0.384 OA
ATOM     37  H   UNL     1       5.931  -6.744  22.210  0.00  0.00    +0.210 HD
ENDBRANCH  31  36
BRANCH  32  38
ATOM     38  O   UNL     1       3.024  -4.260  24.393  0.00  0.00    -0.386 OA
ATOM     39  H   UNL     1       2.579  -4.651  25.163  0.00  0.00    +0.210 HD
ENDBRANCH  32  38
BRANCH  33  40
ATOM     40  O   UNL     1       2.003  -7.040  22.311  0.00  0.00    -0.387 OA
ATOM     41  H   UNL     1       2.288  -6.410  21.622  0.00  0.00    +0.210 HD
ENDBRANCH  33  40
ENDBRANCH  29  30
ENDBRANCH  25  29
ENDBRANCH  24  25
ENDBRANCH   1  24
TORSDOF 14
ENDMDL
MODEL 2
REMARK VINA RESULT:      -7.6      3.864      8.870
REMARK  Name = 
REMARK  15 active torsions:
REMARK  status: ('A' for Active; 'I' for Inactive)
REMARK    1  A    between atoms: C_1  and  C_2
REMARK    2  A    between atoms: N_4  and  C_5
REMARK    3  A    between atoms: C_8  and  O_10
REMARK    4  A    between atoms: C_11  and  C_13
REMARK    5  A    between atoms: C_13  and  O_14
REMARK    6  A    between atoms: O_14  and  P_15
REMARK    7  A    between atoms: P_15  and  O_16
REMARK    8  A    between atoms: P_15  and  O_18
REMARK    9  A    between atoms: O_18  and  P_19
REMARK   10  A    between atoms: P_19  and  O_20
REMARK   11  A    between atoms: P_19  and  O_22
REMARK   12  A    between atoms: O_22  and  C_23
REMARK   13  A    between atoms: C_27  and  O_29
REMARK   14  A    between atoms: C_30  and  O_32
REMARK   15  A    between atoms: C_33  and  O_35
REMARK                            x       y       z     vdW  Elec       q    Type
REMARK                         _______ _______ _______ _____ _____    ______ ____
ROOT
ATOM      1  P   UNL     1      10.042  -1.435  23.166  0.00  0.00    +0.483 P 
ATOM      2  O   UNL     1      10.366  -2.925  23.386  0.00  0.00    -0.227 OA
ENDROOT
BRANCH   1   3
ATOM      3  O   UNL     1      10.238  -1.723  21.471  0.00  0.00    -0.302 OA
ATOM      4  H   UNL     1       9.892  -2.633  21.368  0.00  0.00    +0.222 HD
ENDBRANCH   1   3
BRANCH   1   5
ATOM      5  O   UNL     1       8.406  -1.395  22.950  0.00  0.00    -0.284 OA
BRANCH   5   6
ATOM      6  C   UNL     1       7.894  -2.257  21.941  0.00  0.00    +0.206 C 
BRANCH   6   9
ATOM      7  C   UNL     1       7.351  -4.854  24.114  0.00  0.00    +0.226 C 
ATOM      8  O   UNL     1       7.093  -3.447  23.936  0.00  0.00    -0.348 OA
ATOM      9  C   UNL     1       6.861  -3.228  22.523  0.00  0.00    +0.175 C 
ATOM     10  C   UNL     1       6.875  -4.601  21.844  0.00  0.00    +0.150 C 
ATOM     11  C   UNL     1       6.590  -5.541  22.992  0.00  0.00    +0.088 C 
BRANCH   7  20
ATOM     12  C   UNL     1       3.946  -6.704  27.259  0.00  0.00    +0.051 C 
ATOM     13  C   UNL     1       5.307  -6.200  26.918  0.00  0.00    +0.030 A 
ATOM     14  C   UNL     1       6.318  -6.194  28.002  0.00  0.00    +0.257 A 
ATOM     15  O   UNL     1       6.053  -6.559  29.145  0.00  0.00    -0.267 OA
ATOM     16  N   UNL     1       7.560  -5.758  27.658  0.00  0.00    -0.275 N 
ATOM     17  H   UNL     1       8.283  -5.774  28.355  0.00  0.00    +0.173 HD
ATOM     18  C   UNL     1       7.955  -5.351  26.405  0.00  0.00    +0.331 A 
ATOM     19  O   UNL     1       9.132  -5.056  26.199  0.00  0.00    -0.246 OA
ATOM     20  N   UNL     1       6.959  -5.312  25.440  0.00  0.00    -0.274 N 
ATOM     21  C   UNL     1       5.679  -5.757  25.708  0.00  0.00    +0.101 A 
ENDBRANCH   7  20
BRANCH  10  22
ATOM     22  O   UNL     1       5.902  -4.708  20.813  0.00  0.00    -0.389 OA
ATOM     23  H   UNL     1       5.901  -5.620  20.473  0.00  0.00    +0.210 HD
ENDBRANCH  10  22
ENDBRANCH   6   9
ENDBRANCH   5   6
ENDBRANCH   1   5
BRANCH   1  24
ATOM     24  O   UNL     1       9.845  -1.147  24.861  0.00  0.00    -0.186 OA
BRANCH  24  25
ATOM     25  P   UNL     1       9.023   0.356  25.097  0.00  0.00    +0.486 P 
ATOM     26  O   UNL     1      10.319   1.112  24.789  0.00  0.00    -0.227 OA
BRANCH  25  27
ATOM     27  O   UNL     1       9.023   0.092  26.698  0.00  0.00    -0.302 OA
ATOM     28  H   UNL     1       8.668   0.847  27.217  0.00  0.00    +0.222 HD
ENDBRANCH  25  27
BRANCH  25  29
ATOM     29  O   UNL     1       8.202   1.861  25.332  0.00  0.00    -0.254 OA
BRANCH  29  30
ATOM     30  C   UNL     1       7.018   2.017  24.505  0.00  0.00    +0.293 C 
ATOM     31  C   UNL     1       7.242   1.765  22.994  0.00  0.00    +0.202 C 
ATOM     32  C   UNL     1       7.961   2.938  22.292  0.00  0.00    +0.178 C 
ATOM     33  C   UNL     1       7.384   4.314  22.656  0.00  0.00    +0.171 C 
ATOM     34  C   UNL     1       7.038   4.415  24.143  0.00  0.00    +0.197 C 
ATOM     35  O   UNL     1       6.328   3.276  24.646  0.00  0.00    -0.346 OA
BRANCH  31  36
ATOM     36  O   UNL     1       5.963   1.528  22.367  0.00  0.00    -0.384 OA
ATOM     37  H   UNL     1       5.913   2.067  21.551  0.00  0.00    +0.210 HD
ENDBRANCH  31  36
BRANCH  32  38
ATOM     38  O   UNL     1       9.366   2.917  22.543  0.00  0.00    -0.386 OA
ATOM     39  H   UNL     1       9.700   2.015  22.402  0.00  0.00    +0.210 HD
ENDBRANCH  32  38
BRANCH  33  40
ATOM     40  O   UNL     1       6.202   4.545  21.874  0.00  0.00    -0.387 OA
ATOM     41  H   UNL     1       5.741   5.308  22.275  0.00  0.00    +0.210 HD
ENDBRANCH  33  40
ENDBRANCH  29  30
ENDBRANCH  25  29
ENDBRANCH  24  25
ENDBRANCH   1  24
TORSDOF 14
ENDMDL
MODEL 3
REMARK VINA RESULT:      -7.6      3.886      8.814
REMARK  Name = 
REMARK  15 active torsions:
REMARK  status: ('A' for Active; 'I' for Inactive)
REMARK    1  A    between atoms: C_1  and  C_2
REMARK    2  A    between atoms: N_4  and  C_5
REMARK    3  A    between atoms: C_8  and  O_10
REMARK    4  A    between atoms: C_11  and  C_13
REMARK    5  A    between atoms: C_13  and  O_14
REMARK    6  A    between atoms: O_14  and  P_15
REMARK    7  A    between atoms: P_15  and  O_16
REMARK    8  A    between atoms: P_15  and  O_18
REMARK    9  A    between atoms: O_18  and  P_19
REMARK   10  A    between atoms: P_19  and  O_20
REMARK   11  A    between atoms: P_19  and  O_22
REMARK   12  A    between atoms: O_22  and  C_23
REMARK   13  A    between atoms: C_27  and  O_29
REMARK   14  A    between atoms: C_30  and  O_32
REMARK   15  A    between atoms: C_33  and  O_35
REMARK                            x       y       z     vdW  Elec       q    Type
REMARK                         _______ _______ _______ _____ _____    ______ ____
ROOT
ATOM      1  P   UNL     1      10.022  -1.309  22.566  0.00  0.00    +0.483 P 
ATOM      2  O   UNL     1      10.575  -0.400  23.680  0.00  0.00    -0.227 OA
ENDROOT
BRANCH   1   3
ATOM      3  O   UNL     1      10.187  -2.632  23.669  0.00  0.00    -0.302 OA
ATOM      4  H   UNL     1      11.134  -2.589  23.912  0.00  0.00    +0.222 HD
ENDBRANCH   1   3
BRANCH   1   5
ATOM      5  O   UNL     1       8.390  -1.327  22.818  0.00  0.00    -0.284 OA
BRANCH   5   6
ATOM      6  C   UNL     1       7.620  -2.000  21.830  0.00  0.00    +0.206 C 
BRANCH   6   9
ATOM      7  C   UNL     1       7.426  -4.673  23.969  0.00  0.00    +0.226 C 
ATOM      8  O   UNL     1       7.069  -3.282  23.852  0.00  0.00    -0.348 OA
ATOM      9  C   UNL     1       6.702  -3.047  22.471  0.00  0.00    +0.175 C 
ATOM     10  C   UNL     1       6.741  -4.401  21.755  0.00  0.00    +0.150 C 
ATOM     11  C   UNL     1       6.615  -5.382  22.897  0.00  0.00    +0.088 C 
BRANCH   7  20
ATOM     12  C   UNL     1       4.368  -6.619  27.399  0.00  0.00    +0.051 C 
ATOM     13  C   UNL     1       5.689  -6.116  26.927  0.00  0.00    +0.030 A 
ATOM     14  C   UNL     1       6.816  -6.171  27.889  0.00  0.00    +0.257 A 
ATOM     15  O   UNL     1       6.676  -6.583  29.038  0.00  0.00    -0.267 OA
ATOM     16  N   UNL     1       8.018  -5.735  27.425  0.00  0.00    -0.275 N 
ATOM     17  H   UNL     1       8.815  -5.790  28.034  0.00  0.00    +0.173 HD
ATOM     18  C   UNL     1       8.276  -5.277  26.153  0.00  0.00    +0.331 A 
ATOM     19  O   UNL     1       9.427  -4.988  25.828  0.00  0.00    -0.246 OA
ATOM     20  N   UNL     1       7.178  -5.184  25.310  0.00  0.00    -0.274 N 
ATOM     21  C   UNL     1       5.929  -5.626  25.703  0.00  0.00    +0.101 A 
ENDBRANCH   7  20
BRANCH  10  22
ATOM     22  O   UNL     1       5.691  -4.546  20.808  0.00  0.00    -0.389 OA
ATOM     23  H   UNL     1       5.292  -3.675  20.642  0.00  0.00    +0.210 HD
ENDBRANCH  10  22
ENDBRANCH   6   9
ENDBRANCH   5   6
ENDBRANCH   1   5
BRANCH   1  24
ATOM     24  O   UNL     1       9.856   0.014  21.463  0.00  0.00    -0.186 OA
BRANCH  24  25
ATOM     25  P   UNL     1       9.239   1.393  22.306  0.00  0.00    +0.486 P 
ATOM     26  O   UNL     1       8.119   1.524  21.270  0.00  0.00    -0.227 OA
BRANCH  25  27
ATOM     27  O   UNL     1      10.479   2.276  21.746  0.00  0.00    -0.302 OA
ATOM     28  H   UNL     1      11.359   1.927  22.014  0.00  0.00    +0.222 HD
ENDBRANCH  25  27
BRANCH  25  29
ATOM     29  O   UNL     1       8.621   2.771  23.149  0.00  0.00    -0.254 OA
BRANCH  29  30
ATOM     30  C   UNL     1       8.482   2.567  24.581  0.00  0.00    +0.293 C 
ATOM     31  C   UNL     1       7.896   1.193  24.989  0.00  0.00    +0.202 C 
ATOM     32  C   UNL     1       6.370   1.104  24.766  0.00  0.00    +0.178 C 
ATOM     33  C   UNL     1       5.604   2.331  25.283  0.00  0.00    +0.171 C 
ATOM     34  C   UNL     1       6.341   3.635  24.978  0.00  0.00    +0.197 C 
ATOM     35  O   UNL     1       7.742   3.589  25.281  0.00  0.00    -0.346 OA
BRANCH  31  36
ATOM     36  O   UNL     1       8.203   0.950  26.378  0.00  0.00    -0.384 OA
ATOM     37  H   UNL     1       7.850   1.694  26.909  0.00  0.00    +0.210 HD
ENDBRANCH  31  36
BRANCH  32  38
ATOM     38  O   UNL     1       6.053   0.874  23.394  0.00  0.00    -0.386 OA
ATOM     39  H   UNL     1       6.872   0.687  22.905  0.00  0.00    +0.210 HD
ENDBRANCH  32  38
BRANCH  33  40
ATOM     40  O   UNL     1       5.424   2.204  26.702  0.00  0.00    -0.387 OA
ATOM     41  H   UNL     1       5.711   1.303  26.945  0.00  0.00    +0.210 HD
ENDBRANCH  33  40
ENDBRANCH  29  30
ENDBRANCH  25  29
ENDBRANCH  24  25
ENDBRANCH   1  24
TORSDOF 14
ENDMDL
MODEL 4
REMARK VINA RESULT:      -7.6      2.390      3.118
REMARK  Name = 
REMARK  15 active torsions:
REMARK  status: ('A' for Active; 'I' for Inactive)
REMARK    1  A    between atoms: C_1  and  C_2
REMARK    2  A    between atoms: N_4  and  C_5
REMARK    3  A    between atoms: C_8  and  O_10
REMARK    4  A    between atoms: C_11  and  C_13
REMARK    5  A    between atoms: C_13  and  O_14
REMARK    6  A    between atoms: O_14  and  P_15
REMARK    7  A    between atoms: P_15  and  O_16
REMARK    8  A    between atoms: P_15  and  O_18
REMARK    9  A    between atoms: O_18  and  P_19
REMARK   10  A    between atoms: P_19  and  O_20
REMARK   11  A    between atoms: P_19  and  O_22
REMARK   12  A    between atoms: O_22  and  C_23
REMARK   13  A    between atoms: C_27  and  O_29
REMARK   14  A    between atoms: C_30  and  O_32
REMARK   15  A    between atoms: C_33  and  O_35
REMARK                            x       y       z     vdW  Elec       q    Type
REMARK                         _______ _______ _______ _____ _____    ______ ____
ROOT
ATOM      1  P   UNL     1       8.990  -4.481  24.984  0.00  0.00    +0.483 P 
ATOM      2  O   UNL     1       8.575  -5.512  23.918  0.00  0.00    -0.227 OA
ENDROOT
BRANCH   1   3
ATOM      3  O   UNL     1      10.531  -5.265  25.032  0.00  0.00    -0.302 OA
ATOM      4  H   UNL     1      11.068  -4.715  24.427  0.00  0.00    +0.222 HD
ENDBRANCH   1   3
BRANCH   1   5
ATOM      5  O   UNL     1       9.666  -3.245  24.124  0.00  0.00    -0.284 OA
BRANCH   5   6
ATOM      6  C   UNL     1       9.482  -1.942  24.664  0.00  0.00    +0.206 C 
BRANCH   6   9
ATOM      7  C   UNL     1       9.354   1.276  23.486  0.00  0.00    +0.226 C 
ATOM      8  O   UNL     1      10.078   0.426  24.399  0.00  0.00    -0.348 OA
ATOM      9  C   UNL     1      10.164  -0.885  23.789  0.00  0.00    +0.175 C 
ATOM     10  C   UNL     1       9.550  -0.775  22.390  0.00  0.00    +0.150 C 
ATOM     11  C   UNL     1       9.638   0.706  22.106  0.00  0.00    +0.088 C 
BRANCH   7  20
ATOM     12  C   UNL     1      12.768   4.903  23.177  0.00  0.00    +0.051 C 
ATOM     13  C   UNL     1      11.400   4.385  23.464  0.00  0.00    +0.030 A 
ATOM     14  C   UNL     1      10.378   5.370  23.891  0.00  0.00    +0.257 A 
ATOM     15  O   UNL     1      10.640   6.563  24.035  0.00  0.00    -0.267 OA
ATOM     16  N   UNL     1       9.131   4.877  24.117  0.00  0.00    -0.275 N 
ATOM     17  H   UNL     1       8.401   5.519  24.372  0.00  0.00    +0.173 HD
ATOM     18  C   UNL     1       8.739   3.568  23.963  0.00  0.00    +0.331 A 
ATOM     19  O   UNL     1       7.558   3.259  24.119  0.00  0.00    -0.246 OA
ATOM     20  N   UNL     1       9.743   2.672  23.625  0.00  0.00    -0.274 N 
ATOM     21  C   UNL     1      11.030   3.100  23.360  0.00  0.00    +0.101 A 
ENDBRANCH   7  20
BRANCH  10  22
ATOM     22  O   UNL     1      10.254  -1.546  21.425  0.00  0.00    -0.389 OA
ATOM     23  H   UNL     1      10.842  -0.958  20.919  0.00  0.00    +0.210 HD
ENDBRANCH  10  22
ENDBRANCH   6   9
ENDBRANCH   5   6
ENDBRANCH   1   5
BRANCH   1  24
ATOM     24  O   UNL     1       7.448  -3.696  24.936  0.00  0.00    -0.186 OA
BRANCH  24  25
ATOM     25  P   UNL     1       6.666  -3.869  26.469  0.00  0.00    +0.486 P 
ATOM     26  O   UNL     1       6.798  -2.362  26.705  0.00  0.00    -0.227 OA
BRANCH  25  27
ATOM     27  O   UNL     1       8.016  -4.540  27.069  0.00  0.00    -0.302 OA
ATOM     28  H   UNL     1       7.980  -5.522  27.103  0.00  0.00    +0.222 HD
ENDBRANCH  25  27
BRANCH  25  29
ATOM     29  O   UNL     1       5.883  -4.041  28.003  0.00  0.00    -0.254 OA
BRANCH  29  30
ATOM     30  C   UNL     1       6.004  -5.370  28.576  0.00  0.00    +0.293 C 
ATOM     31  C   UNL     1       5.112  -6.448  27.912  0.00  0.00    +0.202 C 
ATOM     32  C   UNL     1       3.629  -6.337  28.329  0.00  0.00    +0.178 C 
ATOM     33  C   UNL     1       3.431  -6.152  29.841  0.00  0.00    +0.171 C 
ATOM     34  C   UNL     1       4.462  -5.195  30.440  0.00  0.00    +0.197 C 
ATOM     35  O   UNL     1       5.804  -5.448  30.002  0.00  0.00    -0.346 OA
BRANCH  31  36
ATOM     36  O   UNL     1       5.622  -7.753  28.260  0.00  0.00    -0.384 OA
ATOM     37  H   UNL     1       5.678  -8.292  27.445  0.00  0.00    +0.210 HD
ENDBRANCH  31  36
BRANCH  32  38
ATOM     38  O   UNL     1       2.962  -5.294  27.619  0.00  0.00    -0.386 OA
ATOM     39  H   UNL     1       2.052  -5.575  27.423  0.00  0.00    +0.210 HD
ENDBRANCH  32  38
BRANCH  33  40
ATOM     40  O   UNL     1       3.536  -7.431  30.485  0.00  0.00    -0.387 OA
ATOM     41  H   UNL     1       4.415  -7.464  30.909  0.00  0.00    +0.210 HD
ENDBRANCH  33  40
ENDBRANCH  29  30
ENDBRANCH  25  29
ENDBRANCH  24  25
ENDBRANCH   1  24
TORSDOF 14
ENDMDL
MODEL 5
REMARK VINA RESULT:      -7.5      1.329      2.389
REMARK  Name = 
REMARK  15 active torsions:
REMARK  status: ('A' for Active; 'I' for Inactive)
REMARK    1  A    between atoms: C_1  and  C_2
REMARK    2  A    between atoms: N_4  and  C_5
REMARK    3  A    between atoms: C_8  and  O_10
REMARK    4  A    between atoms: C_11  and  C_13
REMARK    5  A    between atoms: C_13  and  O_14
REMARK    6  A    between atoms: O_14  and  P_15
REMARK    7  A    between atoms: P_15  and  O_16
REMARK    8  A    between atoms: P_15  and  O_18
REMARK    9  A    between atoms: O_18  and  P_19
REMARK   10  A    between atoms: P_19  and  O_20
REMARK   11  A    between atoms: P_19  and  O_22
REMARK   12  A    between atoms: O_22  and  C_23
REMARK   13  A    between atoms: C_27  and  O_29
REMARK   14  A    between atoms: C_30  and  O_32
REMARK   15  A    between atoms: C_33  and  O_35
REMARK                            x       y       z     vdW  Elec       q    Type
REMARK                         _______ _______ _______ _____ _____    ______ ____
ROOT
ATOM      1  P   UNL     1       8.156  -4.250  24.324  0.00  0.00    +0.483 P 
ATOM      2  O   UNL     1       8.786  -5.631  24.062  0.00  0.00    -0.227 OA
ENDROOT
BRANCH   1   3
ATOM      3  O   UNL     1       8.752  -4.371  25.944  0.00  0.00    -0.302 OA
ATOM      4  H   UNL     1       9.708  -4.198  25.832  0.00  0.00    +0.222 HD
ENDBRANCH   1   3
BRANCH   1   5
ATOM      5  O   UNL     1       9.360  -3.174  23.981  0.00  0.00    -0.284 OA
BRANCH   5   6
ATOM      6  C   UNL     1       9.228  -1.889  24.576  0.00  0.00    +0.206 C 
BRANCH   6   9
ATOM      7  C   UNL     1       9.243   1.342  23.428  0.00  0.00    +0.226 C 
ATOM      8  O   UNL     1       9.875   0.473  24.389  0.00  0.00    -0.348 OA
ATOM      9  C   UNL     1       9.995  -0.833  23.774  0.00  0.00    +0.175 C 
ATOM     10  C   UNL     1       9.504  -0.699  22.329  0.00  0.00    +0.150 C 
ATOM     11  C   UNL     1       9.635   0.783  22.070  0.00  0.00    +0.088 C 
BRANCH   7  20
ATOM     12  C   UNL     1      12.661   4.972  23.211  0.00  0.00    +0.051 C 
ATOM     13  C   UNL     1      11.296   4.446  23.496  0.00  0.00    +0.030 A 
ATOM     14  C   UNL     1      10.283   5.417  23.974  0.00  0.00    +0.257 A 
ATOM     15  O   UNL     1      10.549   6.602  24.161  0.00  0.00    -0.267 OA
ATOM     16  N   UNL     1       9.037   4.918  24.198  0.00  0.00    -0.275 N 
ATOM     17  H   UNL     1       8.313   5.551  24.488  0.00  0.00    +0.173 HD
ATOM     18  C   UNL     1       8.640   3.616  24.000  0.00  0.00    +0.331 A 
ATOM     19  O   UNL     1       7.461   3.304  24.160  0.00  0.00    -0.246 OA
ATOM     20  N   UNL     1       9.638   2.732  23.614  0.00  0.00    -0.274 N 
ATOM     21  C   UNL     1      10.922   3.167  23.348  0.00  0.00    +0.101 A 
ENDBRANCH   7  20
BRANCH  10  22
ATOM     22  O   UNL     1      10.277  -1.470  21.418  0.00  0.00    -0.389 OA
ATOM     23  H   UNL     1       9.826  -2.318  21.260  0.00  0.00    +0.210 HD
ENDBRANCH  10  22
ENDBRANCH   6   9
ENDBRANCH   5   6
ENDBRANCH   1   5
BRANCH   1  24
ATOM     24  O   UNL     1       7.560  -4.129  22.704  0.00  0.00    -0.186 OA
BRANCH  24  25
ATOM     25  P   UNL     1       5.850  -4.389  22.698  0.00  0.00    +0.486 P 
ATOM     26  O   UNL     1       6.064  -5.780  22.095  0.00  0.00    -0.227 OA
BRANCH  25  27
ATOM     27  O   UNL     1       5.710  -3.368  21.445  0.00  0.00    -0.302 OA
ATOM     28  H   UNL     1       5.705  -2.422  21.712  0.00  0.00    +0.222 HD
ENDBRANCH  25  27
BRANCH  25  29
ATOM     29  O   UNL     1       4.140  -4.649  22.694  0.00  0.00    -0.254 OA
BRANCH  29  30
ATOM     30  C   UNL     1       3.528  -4.545  24.007  0.00  0.00    +0.293 C 
ATOM     31  C   UNL     1       4.173  -5.435  25.098  0.00  0.00    +0.202 C 
ATOM     32  C   UNL     1       3.780  -6.923  24.965  0.00  0.00    +0.178 C 
ATOM     33  C   UNL     1       2.277  -7.140  24.737  0.00  0.00    +0.171 C 
ATOM     34  C   UNL     1       1.691  -6.110  23.770  0.00  0.00    +0.197 C 
ATOM     35  O   UNL     1       2.103  -4.764  24.044  0.00  0.00    -0.346 OA
BRANCH  31  36
ATOM     36  O   UNL     1       3.782  -4.939  26.395  0.00  0.00    -0.384 OA
ATOM     37  H   UNL     1       2.804  -4.904  26.432  0.00  0.00    +0.210 HD
ENDBRANCH  31  36
BRANCH  32  38
ATOM     38  O   UNL     1       4.527  -7.574  23.938  0.00  0.00    -0.386 OA
ATOM     39  H   UNL     1       5.361  -7.094  23.799  0.00  0.00    +0.210 HD
ENDBRANCH  32  38
BRANCH  33  40
ATOM     40  O   UNL     1       1.596  -7.052  25.998  0.00  0.00    -0.387 OA
ATOM     41  H   UNL     1       2.201  -6.597  26.616  0.00  0.00    +0.210 HD
ENDBRANCH  33  40
ENDBRANCH  29  30
ENDBRANCH  25  29
ENDBRANCH  24  25
ENDBRANCH   1  24
TORSDOF 14
ENDMDL
MODEL 6
REMARK VINA RESULT:      -7.3      1.236      1.960
REMARK  Name = 
REMARK  15 active torsions:
REMARK  status: ('A' for Active; 'I' for Inactive)
REMARK    1  A    between atoms: C_1  and  C_2
REMARK    2  A    between atoms: N_4  and  C_5
REMARK    3  A    between atoms: C_8  and  O_10
REMARK    4  A    between atoms: C_11  and  C_13
REMARK    5  A    between atoms: C_13  and  O_14
REMARK    6  A    between atoms: O_14  and  P_15
REMARK    7  A    between atoms: P_15  and  O_16
REMARK    8  A    between atoms: P_15  and  O_18
REMARK    9  A    between atoms: O_18  and  P_19
REMARK   10  A    between atoms: P_19  and  O_20
REMARK   11  A    between atoms: P_19  and  O_22
REMARK   12  A    between atoms: O_22  and  C_23
REMARK   13  A    between atoms: C_27  and  O_29
REMARK   14  A    between atoms: C_30  and  O_32
REMARK   15  A    between atoms: C_33  and  O_35
REMARK                            x       y       z     vdW  Elec       q    Type
REMARK                         _______ _______ _______ _____ _____    ______ ____
ROOT
ATOM      1  P   UNL     1       8.313  -4.296  24.396  0.00  0.00    +0.483 P 
ATOM      2  O   UNL     1       8.796  -5.626  23.790  0.00  0.00    -0.227 OA
ENDROOT
BRANCH   1   3
ATOM      3  O   UNL     1       9.171  -4.728  25.834  0.00  0.00    -0.302 OA
ATOM      4  H   UNL     1       8.844  -5.633  26.013  0.00  0.00    +0.222 HD
ENDBRANCH   1   3
BRANCH   1   5
ATOM      5  O   UNL     1       9.507  -3.216  24.030  0.00  0.00    -0.284 OA
BRANCH   5   6
ATOM      6  C   UNL     1       9.383  -1.932  24.629  0.00  0.00    +0.206 C 
BRANCH   6   9
ATOM      7  C   UNL     1       9.280   1.289  23.455  0.00  0.00    +0.226 C 
ATOM      8  O   UNL     1       9.968   0.443  24.398  0.00  0.00    -0.348 OA
ATOM      9  C   UNL     1      10.095  -0.865  23.789  0.00  0.00    +0.175 C 
ATOM     10  C   UNL     1       9.546  -0.756  22.363  0.00  0.00    +0.150 C 
ATOM     11  C   UNL     1       9.633   0.727  22.088  0.00  0.00    +0.088 C 
BRANCH   7  20
ATOM     12  C   UNL     1      12.647   4.965  23.224  0.00  0.00    +0.051 C 
ATOM     13  C   UNL     1      11.284   4.425  23.492  0.00  0.00    +0.030 A 
ATOM     14  C   UNL     1      10.245   5.391  23.922  0.00  0.00    +0.257 A 
ATOM     15  O   UNL     1      10.489   6.585  24.085  0.00  0.00    -0.267 OA
ATOM     16  N   UNL     1       9.002   4.878  24.131  0.00  0.00    -0.275 N 
ATOM     17  H   UNL     1       8.262   5.507  24.388  0.00  0.00    +0.173 HD
ATOM     18  C   UNL     1       8.630   3.566  23.956  0.00  0.00    +0.331 A 
ATOM     19  O   UNL     1       7.452   3.240  24.097  0.00  0.00    -0.246 OA
ATOM     20  N   UNL     1       9.649   2.689  23.616  0.00  0.00    -0.274 N 
ATOM     21  C   UNL     1      10.932   3.137  23.367  0.00  0.00    +0.101 A 
ENDBRANCH   7  20
BRANCH  10  22
ATOM     22  O   UNL     1      10.301  -1.517  21.430  0.00  0.00    -0.389 OA
ATOM     23  H   UNL     1      10.421  -2.417  21.779  0.00  0.00    +0.210 HD
ENDBRANCH  10  22
ENDBRANCH   6   9
ENDBRANCH   5   6
ENDBRANCH   1   5
BRANCH   1  24
ATOM     24  O   UNL     1       7.454  -3.863  22.956  0.00  0.00    -0.186 OA
BRANCH  24  25
ATOM     25  P   UNL     1       5.787  -4.289  23.130  0.00  0.00    +0.486 P 
ATOM     26  O   UNL     1       5.513  -3.795  21.707  0.00  0.00    -0.227 OA
BRANCH  25  27
ATOM     27  O   UNL     1       5.572  -3.009  24.103  0.00  0.00    -0.302 OA
ATOM     28  H   UNL     1       6.393  -2.487  24.246  0.00  0.00    +0.222 HD
ENDBRANCH  25  27
BRANCH  25  29
ATOM     29  O   UNL     1       4.119  -4.717  23.303  0.00  0.00    -0.254 OA
BRANCH  29  30
ATOM     30  C   UNL     1       3.842  -6.116  23.025  0.00  0.00    +0.293 C 
ATOM     31  C   UNL     1       2.352  -6.520  23.146  0.00  0.00    +0.202 C 
ATOM     32  C   UNL     1       1.886  -6.655  24.612  0.00  0.00    +0.178 C 
ATOM     33  C   UNL     1       2.861  -7.450  25.492  0.00  0.00    +0.171 C 
ATOM     34  C   UNL     1       4.319  -7.104  25.188  0.00  0.00    +0.197 C 
ATOM     35  O   UNL     1       4.620  -7.062  23.787  0.00  0.00    -0.346 OA
BRANCH  31  36
ATOM     36  O   UNL     1       2.151  -7.768  22.450  0.00  0.00    -0.384 OA
ATOM     37  H   UNL     1       2.754  -7.795  21.680  0.00  0.00    +0.210 HD
ENDBRANCH  31  36
BRANCH  32  38
ATOM     38  O   UNL     1       1.627  -5.381  25.200  0.00  0.00    -0.386 OA
ATOM     39  H   UNL     1       2.466  -4.995  25.505  0.00  0.00    +0.210 HD
ENDBRANCH  32  38
BRANCH  33  40
ATOM     40  O   UNL     1       2.648  -8.853  25.275  0.00  0.00    -0.387 OA
ATOM     41  H   UNL     1       2.075  -8.935  24.487  0.00  0.00    +0.210 HD
ENDBRANCH  33  40
ENDBRANCH  29  30
ENDBRANCH  25  29
ENDBRANCH  24  25
ENDBRANCH   1  24
TORSDOF 14
ENDMDL
MODEL 7
REMARK VINA RESULT:      -7.3      1.957      2.942
REMARK  Name = 
REMARK  15 active torsions:
REMARK  status: ('A' for Active; 'I' for Inactive)
REMARK    1  A    between atoms: C_1  and  C_2
REMARK    2  A    between atoms: N_4  and  C_5
REMARK    3  A    between atoms: C_8  and  O_10
REMARK    4  A    between atoms: C_11  and  C_13
REMARK    5  A    between atoms: C_13  and  O_14
REMARK    6  A    between atoms: O_14  and  P_15
REMARK    7  A    between atoms: P_15  and  O_16
REMARK    8  A    between atoms: P_15  and  O_18
REMARK    9  A    between atoms: O_18  and  P_19
REMARK   10  A    between atoms: P_19  and  O_20
REMARK   11  A    between atoms: P_19  and  O_22
REMARK   12  A    between atoms: O_22  and  C_23
REMARK   13  A    between atoms: C_27  and  O_29
REMARK   14  A    between atoms: C_30  and  O_32
REMARK   15  A    between atoms: C_33  and  O_35
REMARK                            x       y       z     vdW  Elec       q    Type
REMARK                         _______ _______ _______ _____ _____    ______ ____
ROOT
ATOM      1  P   UNL     1       8.206  -4.715  26.352  0.00  0.00    +0.483 P 
ATOM      2  O   UNL     1       7.847  -5.826  27.357  0.00  0.00    -0.227 OA
ENDROOT
BRANCH   1   3
ATOM      3  O   UNL     1       9.524  -5.712  25.839  0.00  0.00    -0.302 OA
ATOM      4  H   UNL     1       9.411  -6.514  26.389  0.00  0.00    +0.222 HD
ENDBRANCH   1   3
BRANCH   1   5
ATOM      5  O   UNL     1       7.388  -5.121  24.977  0.00  0.00    -0.284 OA
BRANCH   5   6
ATOM      6  C   UNL     1       8.115  -4.983  23.762  0.00  0.00    +0.206 C 
BRANCH   6   9
ATOM      7  C   UNL     1       7.537  -1.623  24.127  0.00  0.00    +0.226 C 
ATOM      8  O   UNL     1       8.496  -2.562  23.601  0.00  0.00    -0.348 OA
ATOM      9  C   UNL     1       7.751  -3.675  23.052  0.00  0.00    +0.175 C 
ATOM     10  C   UNL     1       6.264  -3.323  23.162  0.00  0.00    +0.150 C 
ATOM     11  C   UNL     1       6.289  -1.817  23.283  0.00  0.00    +0.088 C 
BRANCH   7  20
ATOM     12  C   UNL     1       7.711   2.923  22.074  0.00  0.00    +0.051 C 
ATOM     13  C   UNL     1       8.104   1.907  23.091  0.00  0.00    +0.030 A 
ATOM     14  C   UNL     1       9.051   2.338  24.147  0.00  0.00    +0.257 A 
ATOM     15  O   UNL     1       9.525   3.472  24.178  0.00  0.00    -0.267 OA
ATOM     16  N   UNL     1       9.370   1.402  25.082  0.00  0.00    -0.275 N 
ATOM     17  H   UNL     1       9.981   1.666  25.834  0.00  0.00    +0.173 HD
ATOM     18  C   UNL     1       8.878   0.120  25.141  0.00  0.00    +0.331 A 
ATOM     19  O   UNL     1       9.179  -0.609  26.086  0.00  0.00    -0.246 OA
ATOM     20  N   UNL     1       8.046  -0.258  24.097  0.00  0.00    -0.274 N 
ATOM     21  C   UNL     1       7.661   0.642  23.122  0.00  0.00    +0.101 A 
ENDBRANCH   7  20
BRANCH  10  22
ATOM     22  O   UNL     1       5.516  -3.755  22.033  0.00  0.00    -0.389 OA
ATOM     23  H   UNL     1       5.638  -3.116  21.310  0.00  0.00    +0.210 HD
ENDBRANCH  10  22
ENDBRANCH   6   9
ENDBRANCH   5   6
ENDBRANCH   1   5
BRANCH   1  24
ATOM     24  O   UNL     1       6.888  -3.718  26.865  0.00  0.00    -0.186 OA
BRANCH  24  25
ATOM     25  P   UNL     1       5.415  -4.622  26.778  0.00  0.00    +0.486 P 
ATOM     26  O   UNL     1       4.681  -3.375  26.277  0.00  0.00    -0.227 OA
BRANCH  25  27
ATOM     27  O   UNL     1       5.312  -4.588  28.397  0.00  0.00    -0.302 OA
ATOM     28  H   UNL     1       4.617  -3.978  28.730  0.00  0.00    +0.222 HD
ENDBRANCH  25  27
BRANCH  25  29
ATOM     29  O   UNL     1       3.943  -5.525  26.689  0.00  0.00    -0.254 OA
BRANCH  29  30
ATOM     30  C   UNL     1       4.020  -6.688  25.822  0.00  0.00    +0.293 C 
ATOM     31  C   UNL     1       4.398  -6.379  24.353  0.00  0.00    +0.202 C 
ATOM     32  C   UNL     1       3.224  -5.781  23.547  0.00  0.00    +0.178 C 
ATOM     33  C   UNL     1       1.899  -6.532  23.747  0.00  0.00    +0.171 C 
ATOM     34  C   UNL     1       1.689  -6.942  25.205  0.00  0.00    +0.197 C 
ATOM     35  O   UNL     1       2.848  -7.529  25.811  0.00  0.00    -0.346 OA
BRANCH  31  36
ATOM     36  O   UNL     1       4.854  -7.596  23.724  0.00  0.00    -0.384 OA
ATOM     37  H   UNL     1       4.231  -7.826  23.004  0.00  0.00    +0.210 HD
ENDBRANCH  31  36
BRANCH  32  38
ATOM     38  O   UNL     1       3.045  -4.394  23.832  0.00  0.00    -0.386 OA
ATOM     39  H   UNL     1       3.915  -3.984  23.974  0.00  0.00    +0.210 HD
ENDBRANCH  32  38
BRANCH  33  40
ATOM     40  O   UNL     1       1.898  -7.704  22.917  0.00  0.00    -0.387 OA
ATOM     41  H   UNL     1       2.827  -7.994  22.833  0.00  0.00    +0.210 HD
ENDBRANCH  33  40
ENDBRANCH  29  30
ENDBRANCH  25  29
ENDBRANCH  24  25
ENDBRANCH   1  24
TORSDOF 14
ENDMDL
MODEL 8
REMARK VINA RESULT:      -7.2      3.287      5.188
REMARK  Name = 
REMARK  15 active torsions:
REMARK  status: ('A' for Active; 'I' for Inactive)
REMARK    1  A    between atoms: C_1  and  C_2
REMARK    2  A    between atoms: N_4  and  C_5
REMARK    3  A    between atoms: C_8  and  O_10
REMARK    4  A    between atoms: C_11  and  C_13
REMARK    5  A    between atoms: C_13  and  O_14
REMARK    6  A    between atoms: O_14  and  P_15
REMARK    7  A    between atoms: P_15  and  O_16
REMARK    8  A    between atoms: P_15  and  O_18
REMARK    9  A    between atoms: O_18  and  P_19
REMARK   10  A    between atoms: P_19  and  O_20
REMARK   11  A    between atoms: P_19  and  O_22
REMARK   12  A    between atoms: O_22  and  C_23
REMARK   13  A    between atoms: C_27  and  O_29
REMARK   14  A    between atoms: C_30  and  O_32
REMARK   15  A    between atoms: C_33  and  O_35
REMARK                            x       y       z     vdW  Elec       q    Type
REMARK                         _______ _______ _______ _____ _____    ______ ____
ROOT
ATOM      1  P   UNL     1       4.470  -4.342  28.503  0.00  0.00    +0.483 P 
ATOM      2  O   UNL     1       4.402  -4.235  30.038  0.00  0.00    -0.227 OA
ENDROOT
BRANCH   1   3
ATOM      3  O   UNL     1       2.864  -3.697  28.465  0.00  0.00    -0.302 OA
ATOM      4  H   UNL     1       2.315  -4.501  28.369  0.00  0.00    +0.222 HD
ENDBRANCH   1   3
BRANCH   1   5
ATOM      5  O   UNL     1       5.050  -2.876  28.012  0.00  0.00    -0.284 OA
BRANCH   5   6
ATOM      6  C   UNL     1       4.078  -1.959  27.524  0.00  0.00    +0.206 C 
BRANCH   6   9
ATOM      7  C   UNL     1       6.817  -0.796  25.818  0.00  0.00    +0.226 C 
ATOM      8  O   UNL     1       5.820  -1.837  25.796  0.00  0.00    -0.348 OA
ATOM      9  C   UNL     1       4.578  -1.254  26.258  0.00  0.00    +0.175 C 
ATOM     10  C   UNL     1       4.829   0.244  26.462  0.00  0.00    +0.150 C 
ATOM     11  C   UNL     1       6.045   0.495  25.601  0.00  0.00    +0.088 C 
BRANCH   7  20
ATOM     12  C   UNL     1       9.068   0.381  21.523  0.00  0.00    +0.051 C 
ATOM     13  C   UNL     1       8.911  -0.430  22.763  0.00  0.00    +0.030 A 
ATOM     14  C   UNL     1       9.898  -1.512  22.994  0.00  0.00    +0.257 A 
ATOM     15  O   UNL     1      10.795  -1.761  22.192  0.00  0.00    -0.267 OA
ATOM     16  N   UNL     1       9.751  -2.217  24.148  0.00  0.00    -0.275 N 
ATOM     17  H   UNL     1      10.422  -2.935  24.360  0.00  0.00    +0.173 HD
ATOM     18  C   UNL     1       8.795  -2.000  25.112  0.00  0.00    +0.331 A 
ATOM     19  O   UNL     1       8.817  -2.653  26.155  0.00  0.00    -0.246 OA
ATOM     20  N   UNL     1       7.856  -1.021  24.822  0.00  0.00    -0.274 N 
ATOM     21  C   UNL     1       7.950  -0.249  23.680  0.00  0.00    +0.101 A 
ENDBRANCH   7  20
BRANCH  10  22
ATOM     22  O   UNL     1       3.721   1.040  26.066  0.00  0.00    -0.389 OA
ATOM     23  H   UNL     1       3.454   0.785  25.166  0.00  0.00    +0.210 HD
ENDBRANCH  10  22
ENDBRANCH   6   9
ENDBRANCH   5   6
ENDBRANCH   1   5
BRANCH   1  24
ATOM     24  O   UNL     1       6.075  -4.986  28.540  0.00  0.00    -0.186 OA
BRANCH  24  25
ATOM     25  P   UNL     1       6.583  -5.359  26.929  0.00  0.00    +0.486 P 
ATOM     26  O   UNL     1       5.680  -6.596  26.932  0.00  0.00    -0.227 OA
BRANCH  25  27
ATOM     27  O   UNL     1       8.019  -5.846  27.507  0.00  0.00    -0.302 OA
ATOM     28  H   UNL     1       8.703  -5.954  26.809  0.00  0.00    +0.222 HD
ENDBRANCH  25  27
BRANCH  25  29
ATOM     29  O   UNL     1       7.090  -5.733  25.318  0.00  0.00    -0.254 OA
BRANCH  29  30
ATOM     30  C   UNL     1       6.754  -4.706  24.346  0.00  0.00    +0.293 C 
ATOM     31  C   UNL     1       5.285  -4.731  23.855  0.00  0.00    +0.202 C 
ATOM     32  C   UNL     1       5.012  -5.866  22.843  0.00  0.00    +0.178 C 
ATOM     33  C   UNL     1       6.080  -5.974  21.744  0.00  0.00    +0.171 C 
ATOM     34  C   UNL     1       7.491  -5.773  22.296  0.00  0.00    +0.197 C 
ATOM     35  O   UNL     1       7.608  -4.653  23.184  0.00  0.00    -0.346 OA
BRANCH  31  36
ATOM     36  O   UNL     1       4.973  -3.455  23.257  0.00  0.00    -0.384 OA
ATOM     37  H   UNL     1       5.402  -2.751  23.786  0.00  0.00    +0.210 HD
ENDBRANCH  31  36
BRANCH  32  38
ATOM     38  O   UNL     1       4.855  -7.125  23.496  0.00  0.00    -0.386 OA
ATOM     39  H   UNL     1       4.167  -7.045  24.178  0.00  0.00    +0.210 HD
ENDBRANCH  32  38
BRANCH  33  40
ATOM     40  O   UNL     1       5.815  -4.985  20.737  0.00  0.00    -0.387 OA
ATOM     41  H   UNL     1       4.927  -4.623  20.922  0.00  0.00    +0.210 HD
ENDBRANCH  33  40
ENDBRANCH  29  30
ENDBRANCH  25  29
ENDBRANCH  24  25
ENDBRANCH   1  24
TORSDOF 14
ENDMDL
MODEL 9
REMARK VINA RESULT:      -7.2      3.607      9.831
REMARK  Name = 
REMARK  15 active torsions:
REMARK  status: ('A' for Active; 'I' for Inactive)
REMARK    1  A    between atoms: C_1  and  C_2
REMARK    2  A    between atoms: N_4  and  C_5
REMARK    3  A    between atoms: C_8  and  O_10
REMARK    4  A    between atoms: C_11  and  C_13
REMARK    5  A    between atoms: C_13  and  O_14
REMARK    6  A    between atoms: O_14  and  P_15
REMARK    7  A    between atoms: P_15  and  O_16
REMARK    8  A    between atoms: P_15  and  O_18
REMARK    9  A    between atoms: O_18  and  P_19
REMARK   10  A    between atoms: P_19  and  O_20
REMARK   11  A    between atoms: P_19  and  O_22
REMARK   12  A    between atoms: O_22  and  C_23
REMARK   13  A    between atoms: C_27  and  O_29
REMARK   14  A    between atoms: C_30  and  O_32
REMARK   15  A    between atoms: C_33  and  O_35
REMARK                            x       y       z     vdW  Elec       q    Type
REMARK                         _______ _______ _______ _____ _____    ______ ____
ROOT
ATOM      1  P   UNL     1       9.040  -4.784  25.527  0.00  0.00    +0.483 P 
ATOM      2  O   UNL     1       8.580  -3.340  25.798  0.00  0.00    -0.227 OA
ENDROOT
BRANCH   1   3
ATOM      3  O   UNL     1       9.517  -4.863  27.188  0.00  0.00    -0.302 OA
ATOM      4  H   UNL     1       9.646  -5.823  27.327  0.00  0.00    +0.222 HD
ENDBRANCH   1   3
BRANCH   1   5
ATOM      5  O   UNL     1       7.721  -5.712  25.881  0.00  0.00    -0.284 OA
BRANCH   5   6
ATOM      6  C   UNL     1       7.194  -5.561  27.194  0.00  0.00    +0.206 C 
BRANCH   6   9
ATOM      7  C   UNL     1       4.333  -5.836  25.323  0.00  0.00    +0.226 C 
ATOM      8  O   UNL     1       5.291  -6.622  26.059  0.00  0.00    -0.348 OA
ATOM      9  C   UNL     1       5.688  -5.845  27.215  0.00  0.00    +0.175 C 
ATOM     10  C   UNL     1       4.835  -4.573  27.219  0.00  0.00    +0.150 C 
ATOM     11  C   UNL     1       3.652  -4.965  26.365  0.00  0.00    +0.088 C 
BRANCH   7  20
ATOM     12  C   UNL     1       1.223  -9.730  25.058  0.00  0.00    +0.051 C 
ATOM     13  C   UNL     1       1.921  -8.545  24.485  0.00  0.00    +0.030 A 
ATOM     14  C   UNL     1       1.620  -8.197  23.076  0.00  0.00    +0.257 A 
ATOM     15  O   UNL     1       0.853  -8.865  22.387  0.00  0.00    -0.267 OA
ATOM     16  N   UNL     1       2.247  -7.093  22.587  0.00  0.00    -0.275 N 
ATOM     17  H   UNL     1       2.041  -6.803  21.647  0.00  0.00    +0.173 HD
ATOM     18  C   UNL     1       3.103  -6.274  23.284  0.00  0.00    +0.331 A 
ATOM     19  O   UNL     1       3.543  -5.254  22.754  0.00  0.00    -0.246 OA
ATOM     20  N   UNL     1       3.404  -6.675  24.578  0.00  0.00    -0.274 N 
ATOM     21  C   UNL     1       2.793  -7.773  25.151  0.00  0.00    +0.101 A 
ENDBRANCH   7  20
BRANCH  10  22
ATOM     22  O   UNL     1       4.442  -4.186  28.530  0.00  0.00    -0.389 OA
ATOM     23  H   UNL     1       3.631  -3.652  28.471  0.00  0.00    +0.210 HD
ENDBRANCH  10  22
ENDBRANCH   6   9
ENDBRANCH   5   6
ENDBRANCH   1   5
BRANCH   1  24
ATOM     24  O   UNL     1       8.562  -4.706  23.865  0.00  0.00    -0.186 OA
BRANCH  24  25
ATOM     25  P   UNL     1       8.188  -3.069  23.450  0.00  0.00    +0.486 P 
ATOM     26  O   UNL     1       7.630  -3.539  22.104  0.00  0.00    -0.227 OA
BRANCH  25  27
ATOM     27  O   UNL     1       9.766  -2.781  23.211  0.00  0.00    -0.302 OA
ATOM     28  H   UNL     1       9.988  -1.823  23.185  0.00  0.00    +0.222 HD
ENDBRANCH  25  27
BRANCH  25  29
ATOM     29  O   UNL     1       7.812  -1.432  23.035  0.00  0.00    -0.254 OA
BRANCH  29  30
ATOM     30  C   UNL     1       8.740  -0.460  23.586  0.00  0.00    +0.293 C 
ATOM     31  C   UNL     1       8.078   0.803  24.189  0.00  0.00    +0.202 C 
ATOM     32  C   UNL     1       7.587   1.793  23.111  0.00  0.00    +0.178 C 
ATOM     33  C   UNL     1       8.619   2.051  22.003  0.00  0.00    +0.171 C 
ATOM     34  C   UNL     1       9.342   0.770  21.585  0.00  0.00    +0.197 C 
ATOM     35  O   UNL     1       9.785  -0.027  22.691  0.00  0.00    -0.346 OA
BRANCH  31  36
ATOM     36  O   UNL     1       9.027   1.456  25.059  0.00  0.00    -0.384 OA
ATOM     37  H   UNL     1       9.428   2.206  24.573  0.00  0.00    +0.210 HD
ENDBRANCH  31  36
BRANCH  32  38
ATOM     38  O   UNL     1       6.350   1.373  22.537  0.00  0.00    -0.386 OA
ATOM     39  H   UNL     1       5.676   1.322  23.235  0.00  0.00    +0.210 HD
ENDBRANCH  32  38
BRANCH  33  40
ATOM     40  O   UNL     1       9.579   3.009  22.474  0.00  0.00    -0.387 OA
ATOM     41  H   UNL     1       9.234   3.368  23.314  0.00  0.00    +0.210 HD
ENDBRANCH  33  40
ENDBRANCH  29  30
ENDBRANCH  25  29
ENDBRANCH  24  25
ENDBRANCH   1  24
TORSDOF 14
ENDMDL
