MODEL 1
REMARK VINA RESULT:      -7.1      0.000      0.000
REMARK  Name = 
REMARK  3 active torsions:
REMARK  status: ('A' for Active; 'I' for Inactive)
REMARK    1  A    between atoms: O_1  and  N_2
REMARK    2  A    between atoms: C_9  and  C_17
REMARK    3  A    between atoms: C_10  and  C_11
REMARK                            x       y       z     vdW  Elec       q    Type
REMARK                         _______ _______ _______ _____ _____    ______ ____
ROOT
ATOM      1  N   UNL     1       8.724  -1.371  25.909  0.00  0.00    -0.182 N 
ATOM      2  C   UNL     1       7.958  -2.442  25.476  0.00  0.00    +0.098 A 
ATOM      3  C   UNL     1       8.072  -2.434  24.071  0.00  0.00    +0.037 A 
ATOM      4  C   UNL     1       8.919  -1.329  23.723  0.00  0.00    +0.100 A 
ATOM      5  N   UNL     1       9.327  -0.908  22.495  0.00  0.00    -0.253 NA
ATOM      6  C   UNL     1      10.133   0.176  22.489  0.00  0.00    +0.111 A 
ATOM      7  C   UNL     1      10.546   0.883  23.613  0.00  0.00    +0.022 A 
ATOM      8  C   UNL     1      10.124   0.456  24.861  0.00  0.00    +0.033 A 
ATOM      9  C   UNL     1       9.293  -0.670  24.886  0.00  0.00    +0.107 A 
ENDROOT
BRANCH   3  10
ATOM     10  C   UNL     1       7.476  -3.396  23.130  0.00  0.00    -0.014 A 
ATOM     11  C   UNL     1       6.503  -3.034  22.189  0.00  0.00    +0.011 A 
ATOM     12  C   UNL     1       5.878  -3.997  21.392  0.00  0.00    +0.039 A 
ATOM     13  C   UNL     1       6.279  -5.324  21.473  0.00  0.00    +0.123 A 
ATOM     14  F   UNL     1       5.678  -6.247  20.710  0.00  0.00    -0.205 F 
ATOM     15  C   UNL     1       7.298  -5.703  22.332  0.00  0.00    +0.039 A 
ATOM     16  C   UNL     1       7.883  -4.746  23.167  0.00  0.00    +0.011 A 
ENDBRANCH   3  10
BRANCH   2  17
ATOM     17  C   UNL     1       7.235  -3.330  26.422  0.00  0.00    +0.005 A 
ATOM     18  C   UNL     1       5.969  -2.990  26.914  0.00  0.00    +0.030 A 
ATOM     19  C   UNL     1       5.286  -3.888  27.723  0.00  0.00    +0.111 A 
ATOM     20  N   UNL     1       5.755  -5.108  28.047  0.00  0.00    -0.263 NA
ATOM     21  C   UNL     1       6.981  -5.419  27.584  0.00  0.00    +0.111 A 
ATOM     22  C   UNL     1       7.762  -4.563  26.820  0.00  0.00    +0.030 A 
ENDBRANCH   2  17
BRANCH   1  23
ATOM     23  O   UNL     1       8.940  -1.037  27.251  0.00  0.00    -0.426 OA
ATOM     24  H   UNL     1       8.089  -0.611  27.446  0.00  0.00    +0.326 HD
ENDBRANCH   1  23
TORSDOF 3
ENDMDL
MODEL 2
REMARK VINA RESULT:      -6.7      4.944      6.489
REMARK  Name = 
REMARK  3 active torsions:
REMARK  status: ('A' for Active; 'I' for Inactive)
REMARK    1  A    between atoms: O_1  and  N_2
REMARK    2  A    between atoms: C_9  and  C_17
REMARK    3  A    between atoms: C_10  and  C_11
REMARK                            x       y       z     vdW  Elec       q    Type
REMARK                         _______ _______ _______ _____ _____    ______ ____
ROOT
ATOM      1  N   UNL     1       8.758   5.095  24.441  0.00  0.00    -0.182 N 
ATOM      2  C   UNL     1       8.373   3.808  24.097  0.00  0.00    +0.098 A 
ATOM      3  C   UNL     1       9.545   3.187  23.622  0.00  0.00    +0.037 A 
ATOM      4  C   UNL     1      10.600   4.157  23.701  0.00  0.00    +0.100 A 
ATOM      5  N   UNL     1      11.911   4.036  23.361  0.00  0.00    -0.253 NA
ATOM      6  C   UNL     1      12.669   5.138  23.554  0.00  0.00    +0.111 A 
ATOM      7  C   UNL     1      12.211   6.357  24.044  0.00  0.00    +0.022 A 
ATOM      8  C   UNL     1      10.874   6.480  24.383  0.00  0.00    +0.033 A 
ATOM      9  C   UNL     1      10.077   5.345  24.195  0.00  0.00    +0.107 A 
ENDROOT
BRANCH   3  10
ATOM     10  C   UNL     1       9.685   1.794  23.166  0.00  0.00    -0.014 A 
ATOM     11  C   UNL     1       9.411   1.396  21.851  0.00  0.00    +0.011 A 
ATOM     12  C   UNL     1       9.443   0.047  21.485  0.00  0.00    +0.039 A 
ATOM     13  C   UNL     1       9.830  -0.910  22.416  0.00  0.00    +0.123 A 
ATOM     14  F   UNL     1       9.859  -2.202  22.065  0.00  0.00    -0.205 F 
ATOM     15  C   UNL     1      10.190  -0.540  23.701  0.00  0.00    +0.039 A 
ATOM     16  C   UNL     1      10.103   0.804  24.078  0.00  0.00    +0.011 A 
ENDBRANCH   3  10
BRANCH   2  17
ATOM     17  C   UNL     1       6.977   3.329  24.266  0.00  0.00    +0.005 A 
ATOM     18  C   UNL     1       6.016   3.528  23.269  0.00  0.00    +0.030 A 
ATOM     19  C   UNL     1       4.748   2.985  23.424  0.00  0.00    +0.111 A 
ATOM     20  N   UNL     1       4.381   2.233  24.480  0.00  0.00    -0.263 NA
ATOM     21  C   UNL     1       5.307   2.064  25.443  0.00  0.00    +0.111 A 
ATOM     22  C   UNL     1       6.579   2.618  25.403  0.00  0.00    +0.030 A 
ENDBRANCH   2  17
BRANCH   1  23
ATOM     23  O   UNL     1       7.914   6.053  25.015  0.00  0.00    -0.426 OA
ATOM     24  H   UNL     1       8.256   6.848  24.573  0.00  0.00    +0.326 HD
ENDBRANCH   1  23
TORSDOF 3
ENDMDL
MODEL 3
REMARK VINA RESULT:      -6.2      3.461      6.631
REMARK  Name = 
REMARK  3 active torsions:
REMARK  status: ('A' for Active; 'I' for Inactive)
REMARK    1  A    between atoms: O_1  and  N_2
REMARK    2  A    between atoms: C_9  and  C_17
REMARK    3  A    between atoms: C_10  and  C_11
REMARK                            x       y       z     vdW  Elec       q    Type
REMARK                         _______ _______ _______ _____ _____    ______ ____
ROOT
ATOM      1  N   UNL     1       9.487  -2.449  24.248  0.00  0.00    -0.182 N 
ATOM      2  C   UNL     1       8.920  -1.212  24.514  0.00  0.00    +0.098 A 
ATOM      3  C   UNL     1       7.973  -1.451  25.530  0.00  0.00    +0.037 A 
ATOM      4  C   UNL     1       8.018  -2.854  25.829  0.00  0.00    +0.100 A 
ATOM      5  N   UNL     1       7.297  -3.567  26.735  0.00  0.00    -0.253 NA
ATOM      6  C   UNL     1       7.569  -4.889  26.787  0.00  0.00    +0.111 A 
ATOM      7  C   UNL     1       8.492  -5.556  25.989  0.00  0.00    +0.022 A 
ATOM      8  C   UNL     1       9.220  -4.829  25.061  0.00  0.00    +0.033 A 
ATOM      9  C   UNL     1       8.955  -3.456  25.000  0.00  0.00    +0.107 A 
ENDROOT
BRANCH   3  10
ATOM     10  C   UNL     1       7.123  -0.452  26.198  0.00  0.00    -0.014 A 
ATOM     11  C   UNL     1       5.898  -0.023  25.670  0.00  0.00    +0.011 A 
ATOM     12  C   UNL     1       5.175   1.010  26.272  0.00  0.00    +0.039 A 
ATOM     13  C   UNL     1       5.633   1.570  27.458  0.00  0.00    +0.123 A 
ATOM     14  F   UNL     1       4.940   2.561  28.035  0.00  0.00    -0.205 F 
ATOM     15  C   UNL     1       6.797   1.110  28.053  0.00  0.00    +0.039 A 
ATOM     16  C   UNL     1       7.545   0.115  27.419  0.00  0.00    +0.011 A 
ENDBRANCH   3  10
BRANCH   2  17
ATOM     17  C   UNL     1       9.338   0.019  23.797  0.00  0.00    +0.005 A 
ATOM     18  C   UNL     1      10.131   0.989  24.422  0.00  0.00    +0.030 A 
ATOM     19  C   UNL     1      10.578   2.081  23.690  0.00  0.00    +0.111 A 
ATOM     20  N   UNL     1      10.324   2.258  22.380  0.00  0.00    -0.263 NA
ATOM     21  C   UNL     1       9.546   1.329  21.792  0.00  0.00    +0.111 A 
ATOM     22  C   UNL     1       9.004   0.237  22.456  0.00  0.00    +0.030 A 
ENDBRANCH   2  17
BRANCH   1  23
ATOM     23  O   UNL     1      10.525  -2.671  23.335  0.00  0.00    -0.426 OA
ATOM     24  H   UNL     1       9.998  -2.829  22.535  0.00  0.00    +0.326 HD
ENDBRANCH   1  23
TORSDOF 3
ENDMDL
MODEL 4
REMARK VINA RESULT:      -6.1      5.553      8.364
REMARK  Name = 
REMARK  3 active torsions:
REMARK  status: ('A' for Active; 'I' for Inactive)
REMARK    1  A    between atoms: O_1  and  N_2
REMARK    2  A    between atoms: C_9  and  C_17
REMARK    3  A    between atoms: C_10  and  C_11
REMARK                            x       y       z     vdW  Elec       q    Type
REMARK                         _______ _______ _______ _____ _____    ______ ____
ROOT
ATOM      1  N   UNL     1       7.749   5.715  23.499  0.00  0.00    -0.182 N 
ATOM      2  C   UNL     1       8.808   4.823  23.570  0.00  0.00    +0.098 A 
ATOM      3  C   UNL     1       8.257   3.568  23.245  0.00  0.00    +0.037 A 
ATOM      4  C   UNL     1       6.859   3.773  22.992  0.00  0.00    +0.100 A 
ATOM      5  N   UNL     1       5.904   2.870  22.642  0.00  0.00    -0.253 NA
ATOM      6  C   UNL     1       4.661   3.372  22.470  0.00  0.00    +0.111 A 
ATOM      7  C   UNL     1       4.297   4.703  22.641  0.00  0.00    +0.022 A 
ATOM      8  C   UNL     1       5.270   5.619  23.004  0.00  0.00    +0.033 A 
ATOM      9  C   UNL     1       6.565   5.116  23.179  0.00  0.00    +0.107 A 
ENDROOT
BRANCH   3  10
ATOM     10  C   UNL     1       8.976   2.288  23.138  0.00  0.00    -0.014 A 
ATOM     11  C   UNL     1       9.257   1.675  21.910  0.00  0.00    +0.011 A 
ATOM     12  C   UNL     1       9.838   0.405  21.854  0.00  0.00    +0.039 A 
ATOM     13  C   UNL     1      10.218  -0.231  23.030  0.00  0.00    +0.123 A 
ATOM     14  F   UNL     1      10.773  -1.449  22.976  0.00  0.00    -0.205 F 
ATOM     15  C   UNL     1      10.032   0.384  24.257  0.00  0.00    +0.039 A 
ATOM     16  C   UNL     1       9.400   1.630  24.312  0.00  0.00    +0.011 A 
ENDBRANCH   3  10
BRANCH   2  17
ATOM     17  C   UNL     1      10.185   5.258  23.919  0.00  0.00    +0.005 A 
ATOM     18  C   UNL     1      11.305   4.691  23.300  0.00  0.00    +0.030 A 
ATOM     19  C   UNL     1      12.569   5.188  23.586  0.00  0.00    +0.111 A 
ATOM     20  N   UNL     1      12.794   6.227  24.413  0.00  0.00    -0.263 NA
ATOM     21  C   UNL     1      11.712   6.754  25.018  0.00  0.00    +0.111 A 
ATOM     22  C   UNL     1      10.418   6.285  24.840  0.00  0.00    +0.030 A 
ENDBRANCH   2  17
BRANCH   1  23
ATOM     23  O   UNL     1       7.855   7.097  23.695  0.00  0.00    -0.426 OA
ATOM     24  H   UNL     1       8.817   7.195  23.593  0.00  0.00    +0.326 HD
ENDBRANCH   1  23
TORSDOF 3
ENDMDL
MODEL 5
REMARK VINA RESULT:      -6.1      4.678      6.950
REMARK  Name = 
REMARK  3 active torsions:
REMARK  status: ('A' for Active; 'I' for Inactive)
REMARK    1  A    between atoms: O_1  and  N_2
REMARK    2  A    between atoms: C_9  and  C_17
REMARK    3  A    between atoms: C_10  and  C_11
REMARK                            x       y       z     vdW  Elec       q    Type
REMARK                         _______ _______ _______ _____ _____    ______ ____
ROOT
ATOM      1  N   UNL     1      10.217   3.744  23.519  0.00  0.00    -0.182 N 
ATOM      2  C   UNL     1       9.430   2.635  23.788  0.00  0.00    +0.098 A 
ATOM      3  C   UNL     1       8.465   3.083  24.713  0.00  0.00    +0.037 A 
ATOM      4  C   UNL     1       8.731   4.471  24.962  0.00  0.00    +0.100 A 
ATOM      5  N   UNL     1       8.077   5.342  25.777  0.00  0.00    -0.253 NA
ATOM      6  C   UNL     1       8.567   6.601  25.799  0.00  0.00    +0.111 A 
ATOM      7  C   UNL     1       9.673   7.050  25.084  0.00  0.00    +0.022 A 
ATOM      8  C   UNL     1      10.341   6.159  24.261  0.00  0.00    +0.033 A 
ATOM      9  C   UNL     1       9.841   4.852  24.222  0.00  0.00    +0.107 A 
ENDROOT
BRANCH   3  10
ATOM     10  C   UNL     1       7.363   2.297  25.291  0.00  0.00    -0.014 A 
ATOM     11  C   UNL     1       7.556   1.353  26.308  0.00  0.00    +0.011 A 
ATOM     12  C   UNL     1       6.504   0.544  26.750  0.00  0.00    +0.039 A 
ATOM     13  C   UNL     1       5.229   0.730  26.232  0.00  0.00    +0.123 A 
ATOM     14  F   UNL     1       4.222  -0.047  26.655  0.00  0.00    -0.205 F 
ATOM     15  C   UNL     1       4.986   1.713  25.286  0.00  0.00    +0.039 A 
ATOM     16  C   UNL     1       6.051   2.482  24.808  0.00  0.00    +0.011 A 
ENDBRANCH   3  10
BRANCH   2  17
ATOM     17  C   UNL     1       9.673   1.319  23.145  0.00  0.00    +0.005 A 
ATOM     18  C   UNL     1      10.219   0.249  23.865  0.00  0.00    +0.030 A 
ATOM     19  C   UNL     1      10.346  -0.991  23.254  0.00  0.00    +0.111 A 
ATOM     20  N   UNL     1       9.937  -1.251  21.997  0.00  0.00    -0.263 NA
ATOM     21  C   UNL     1       9.431  -0.212  21.308  0.00  0.00    +0.111 A 
ATOM     22  C   UNL     1       9.321   1.077  21.813  0.00  0.00    +0.030 A 
ENDBRANCH   2  17
BRANCH   1  23
ATOM     23  O   UNL     1      11.273   3.768  22.601  0.00  0.00    -0.426 OA
ATOM     24  H   UNL     1      10.903   3.180  21.921  0.00  0.00    +0.326 HD
ENDBRANCH   1  23
TORSDOF 3
ENDMDL
MODEL 6
REMARK VINA RESULT:      -6.0      3.034      4.867
REMARK  Name = 
REMARK  3 active torsions:
REMARK  status: ('A' for Active; 'I' for Inactive)
REMARK    1  A    between atoms: O_1  and  N_2
REMARK    2  A    between atoms: C_9  and  C_17
REMARK    3  A    between atoms: C_10  and  C_11
REMARK                            x       y       z     vdW  Elec       q    Type
REMARK                         _______ _______ _______ _____ _____    ______ ____
ROOT
ATOM      1  N   UNL     1       9.002  -0.852  22.291  0.00  0.00    -0.182 N 
ATOM      2  C   UNL     1       8.078  -1.503  23.094  0.00  0.00    +0.098 A 
ATOM      3  C   UNL     1       7.773  -0.589  24.122  0.00  0.00    +0.037 A 
ATOM      4  C   UNL     1       8.552   0.592  23.882  0.00  0.00    +0.100 A 
ATOM      5  N   UNL     1       8.605   1.750  24.595  0.00  0.00    -0.253 NA
ATOM      6  C   UNL     1       9.442   2.694  24.112  0.00  0.00    +0.111 A 
ATOM      7  C   UNL     1      10.244   2.562  22.984  0.00  0.00    +0.022 A 
ATOM      8  C   UNL     1      10.193   1.380  22.264  0.00  0.00    +0.033 A 
ATOM      9  C   UNL     1       9.325   0.394  22.747  0.00  0.00    +0.107 A 
ENDROOT
BRANCH   3  10
ATOM     10  C   UNL     1       6.809  -0.782  25.218  0.00  0.00    -0.014 A 
ATOM     11  C   UNL     1       6.940  -1.798  26.174  0.00  0.00    +0.011 A 
ATOM     12  C   UNL     1       5.945  -2.021  27.130  0.00  0.00    +0.039 A 
ATOM     13  C   UNL     1       4.844  -1.175  27.188  0.00  0.00    +0.123 A 
ATOM     14  F   UNL     1       3.890  -1.390  28.103  0.00  0.00    -0.205 F 
ATOM     15  C   UNL     1       4.726  -0.108  26.312  0.00  0.00    +0.039 A 
ATOM     16  C   UNL     1       5.697   0.078  25.323  0.00  0.00    +0.011 A 
ENDBRANCH   3  10
BRANCH   2  17
ATOM     17  C   UNL     1       7.599  -2.876  22.792  0.00  0.00    +0.005 A 
ATOM     18  C   UNL     1       8.112  -3.990  23.467  0.00  0.00    +0.030 A 
ATOM     19  C   UNL     1       7.573  -5.245  23.223  0.00  0.00    +0.111 A 
ATOM     20  N   UNL     1       6.542  -5.466  22.385  0.00  0.00    -0.263 NA
ATOM     21  C   UNL     1       6.068  -4.392  21.726  0.00  0.00    +0.111 A 
ATOM     22  C   UNL     1       6.581  -3.109  21.860  0.00  0.00    +0.030 A 
ENDBRANCH   2  17
BRANCH   1  23
ATOM     23  O   UNL     1       9.541  -1.374  21.110  0.00  0.00    -0.426 OA
ATOM     24  H   UNL     1      10.460  -1.076  21.212  0.00  0.00    +0.326 HD
ENDBRANCH   1  23
TORSDOF 3
ENDMDL
MODEL 7
REMARK VINA RESULT:      -6.0      3.066      5.234
REMARK  Name = 
REMARK  3 active torsions:
REMARK  status: ('A' for Active; 'I' for Inactive)
REMARK    1  A    between atoms: O_1  and  N_2
REMARK    2  A    between atoms: C_9  and  C_17
REMARK    3  A    between atoms: C_10  and  C_11
REMARK                            x       y       z     vdW  Elec       q    Type
REMARK                         _______ _______ _______ _____ _____    ______ ____
ROOT
ATOM      1  N   UNL     1       6.095  -3.675  25.127  0.00  0.00    -0.182 N 
ATOM      2  C   UNL     1       6.758  -2.464  24.997  0.00  0.00    +0.098 A 
ATOM      3  C   UNL     1       7.323  -2.489  23.706  0.00  0.00    +0.037 A 
ATOM      4  C   UNL     1       6.966  -3.746  23.113  0.00  0.00    +0.100 A 
ATOM      5  N   UNL     1       7.272  -4.237  21.882  0.00  0.00    -0.253 NA
ATOM      6  C   UNL     1       6.784  -5.466  21.606  0.00  0.00    +0.111 A 
ATOM      7  C   UNL     1       6.031  -6.250  22.474  0.00  0.00    +0.022 A 
ATOM      8  C   UNL     1       5.727  -5.750  23.730  0.00  0.00    +0.033 A 
ATOM      9  C   UNL     1       6.219  -4.475  24.028  0.00  0.00    +0.107 A 
ENDROOT
BRANCH   3  10
ATOM     10  C   UNL     1       8.099  -1.418  23.061  0.00  0.00    -0.014 A 
ATOM     11  C   UNL     1       9.452  -1.557  22.726  0.00  0.00    +0.011 A 
ATOM     12  C   UNL     1      10.185  -0.480  22.220  0.00  0.00    +0.039 A 
ATOM     13  C   UNL     1       9.547   0.728  21.968  0.00  0.00    +0.123 A 
ATOM     14  F   UNL     1      10.250   1.762  21.485  0.00  0.00    -0.205 F 
ATOM     15  C   UNL     1       8.191   0.875  22.208  0.00  0.00    +0.039 A 
ATOM     16  C   UNL     1       7.474  -0.189  22.765  0.00  0.00    +0.011 A 
ENDBRANCH   3  10
BRANCH   2  17
ATOM     17  C   UNL     1       6.768  -1.448  26.081  0.00  0.00    +0.005 A 
ATOM     18  C   UNL     1       7.960  -1.068  26.709  0.00  0.00    +0.030 A 
ATOM     19  C   UNL     1       7.941  -0.050  27.652  0.00  0.00    +0.111 A 
ATOM     20  N   UNL     1       6.832   0.637  27.989  0.00  0.00    -0.263 NA
ATOM     21  C   UNL     1       5.687   0.250  27.394  0.00  0.00    +0.111 A 
ATOM     22  C   UNL     1       5.599  -0.795  26.484  0.00  0.00    +0.030 A 
ENDBRANCH   2  17
BRANCH   1  23
ATOM     23  O   UNL     1       5.339  -4.054  26.242  0.00  0.00    -0.426 OA
ATOM     24  H   UNL     1       5.802  -4.876  26.473  0.00  0.00    +0.326 HD
ENDBRANCH   1  23
TORSDOF 3
ENDMDL
MODEL 8
REMARK VINA RESULT:      -6.0      3.309      5.489
REMARK  Name = 
REMARK  3 active torsions:
REMARK  status: ('A' for Active; 'I' for Inactive)
REMARK    1  A    between atoms: O_1  and  N_2
REMARK    2  A    between atoms: C_9  and  C_17
REMARK    3  A    between atoms: C_10  and  C_11
REMARK                            x       y       z     vdW  Elec       q    Type
REMARK                         _______ _______ _______ _____ _____    ______ ____
ROOT
ATOM      1  N   UNL     1       6.978  -2.506  26.564  0.00  0.00    -0.182 N 
ATOM      2  C   UNL     1       7.278  -1.283  25.983  0.00  0.00    +0.098 A 
ATOM      3  C   UNL     1       8.362  -1.540  25.121  0.00  0.00    +0.037 A 
ATOM      4  C   UNL     1       8.669  -2.938  25.232  0.00  0.00    +0.100 A 
ATOM      5  N   UNL     1       9.631  -3.663  24.600  0.00  0.00    -0.253 NA
ATOM      6  C   UNL     1       9.673  -4.976  24.915  0.00  0.00    +0.111 A 
ATOM      7  C   UNL     1       8.840  -5.615  25.828  0.00  0.00    +0.022 A 
ATOM      8  C   UNL     1       7.867  -4.872  26.476  0.00  0.00    +0.033 A 
ATOM      9  C   UNL     1       7.806  -3.511  26.155  0.00  0.00    +0.107 A 
ENDROOT
BRANCH   3  10
ATOM     10  C   UNL     1       9.035  -0.575  24.235  0.00  0.00    -0.014 A 
ATOM     11  C   UNL     1       9.993   0.337  24.696  0.00  0.00    +0.011 A 
ATOM     12  C   UNL     1      10.524   1.314  23.848  0.00  0.00    +0.039 A 
ATOM     13  C   UNL     1      10.160   1.334  22.508  0.00  0.00    +0.123 A 
ATOM     14  F   UNL     1      10.668   2.272  21.697  0.00  0.00    -0.205 F 
ATOM     15  C   UNL     1       9.279   0.393  22.001  0.00  0.00    +0.039 A 
ATOM     16  C   UNL     1       8.709  -0.548  22.863  0.00  0.00    +0.011 A 
ENDBRANCH   3  10
BRANCH   2  17
ATOM     17  C   UNL     1       6.513  -0.050  26.300  0.00  0.00    +0.005 A 
ATOM     18  C   UNL     1       6.905   0.801  27.340  0.00  0.00    +0.030 A 
ATOM     19  C   UNL     1       6.219   1.990  27.545  0.00  0.00    +0.111 A 
ATOM     20  N   UNL     1       5.200   2.408  26.771  0.00  0.00    -0.263 NA
ATOM     21  C   UNL     1       4.818   1.575  25.785  0.00  0.00    +0.111 A 
ATOM     22  C   UNL     1       5.404   0.340  25.542  0.00  0.00    +0.030 A 
ENDBRANCH   2  17
BRANCH   1  23
ATOM     23  O   UNL     1       5.921  -2.728  27.454  0.00  0.00    -0.426 OA
ATOM     24  H   UNL     1       6.133  -3.637  27.725  0.00  0.00    +0.326 HD
ENDBRANCH   1  23
TORSDOF 3
ENDMDL
MODEL 9
REMARK VINA RESULT:      -5.8      3.427      5.353
REMARK  Name = 
REMARK  3 active torsions:
REMARK  status: ('A' for Active; 'I' for Inactive)
REMARK    1  A    between atoms: O_1  and  N_2
REMARK    2  A    between atoms: C_9  and  C_17
REMARK    3  A    between atoms: C_10  and  C_11
REMARK                            x       y       z     vdW  Elec       q    Type
REMARK                         _______ _______ _______ _____ _____    ______ ____
ROOT
ATOM      1  N   UNL     1       5.668  -1.890  26.109  0.00  0.00    -0.182 N 
ATOM      2  C   UNL     1       6.776  -1.811  25.280  0.00  0.00    +0.098 A 
ATOM      3  C   UNL     1       6.880  -0.449  24.932  0.00  0.00    +0.037 A 
ATOM      4  C   UNL     1       5.801   0.237  25.584  0.00  0.00    +0.100 A 
ATOM      5  N   UNL     1       5.477   1.558  25.558  0.00  0.00    -0.253 NA
ATOM      6  C   UNL     1       4.392   1.907  26.283  0.00  0.00    +0.111 A 
ATOM      7  C   UNL     1       3.594   1.034  27.015  0.00  0.00    +0.022 A 
ATOM      8  C   UNL     1       3.922  -0.312  27.034  0.00  0.00    +0.033 A 
ATOM      9  C   UNL     1       5.048  -0.688  26.293  0.00  0.00    +0.107 A 
ENDROOT
BRANCH   3  10
ATOM     10  C   UNL     1       7.919   0.173  24.095  0.00  0.00    -0.014 A 
ATOM     11  C   UNL     1       9.118   0.673  24.620  0.00  0.00    +0.011 A 
ATOM     12  C   UNL     1      10.028   1.360  23.812  0.00  0.00    +0.039 A 
ATOM     13  C   UNL     1       9.783   1.481  22.450  0.00  0.00    +0.123 A 
ATOM     14  F   UNL     1      10.656   2.141  21.675  0.00  0.00    -0.205 F 
ATOM     15  C   UNL     1       8.649   0.924  21.883  0.00  0.00    +0.039 A 
ATOM     16  C   UNL     1       7.715   0.286  22.704  0.00  0.00    +0.011 A 
ENDBRANCH   3  10
BRANCH   2  17
ATOM     17  C   UNL     1       7.590  -3.003  24.932  0.00  0.00    +0.005 A 
ATOM     18  C   UNL     1       8.692  -3.382  25.707  0.00  0.00    +0.030 A 
ATOM     19  C   UNL     1       9.371  -4.554  25.403  0.00  0.00    +0.111 A 
ATOM     20  N   UNL     1       9.012  -5.390  24.410  0.00  0.00    -0.263 NA
ATOM     21  C   UNL     1       7.962  -5.008  23.658  0.00  0.00    +0.111 A 
ATOM     22  C   UNL     1       7.260  -3.825  23.848  0.00  0.00    +0.030 A 
ENDBRANCH   2  17
BRANCH   1  23
ATOM     23  O   UNL     1       5.225  -3.060  26.738  0.00  0.00    -0.426 OA
ATOM     24  H   UNL     1       5.786  -3.707  26.278  0.00  0.00    +0.326 HD
ENDBRANCH   1  23
TORSDOF 3
ENDMDL
