MODEL 1
REMARK VINA RESULT:      -7.1      0.000      0.000
REMARK  Name = 
REMARK  6 active torsions:
REMARK  status: ('A' for Active; 'I' for Inactive)
REMARK    1  A    between atoms: C_2  and  N_3
REMARK    2  A    between atoms: C_2  and  C_16
REMARK    3  A    between atoms: C_2  and  C_25
REMARK    4  A    between atoms: N_3  and  S_4
REMARK    5  A    between atoms: S_4  and  C_7
REMARK    6  A    between atoms: N_18  and  C_19
REMARK                            x       y       z     vdW  Elec       q    Type
REMARK                         _______ _______ _______ _____ _____    ______ ____
ROOT
ATOM      1  C   UNL     1       8.445  -1.607  24.644  0.00  0.00    +0.192 C 
ENDROOT
BRANCH   1   2
ATOM      2  C   UNL     1       9.051  -0.447  23.862  0.00  0.00    -0.020 A 
ATOM      3  C   UNL     1       9.399   0.728  24.552  0.00  0.00    +0.006 A 
ATOM      4  C   UNL     1       9.928   1.824  23.872  0.00  0.00    +0.000 A 
ATOM      5  C   UNL     1      10.106   1.766  22.492  0.00  0.00    +0.000 A 
ATOM      6  C   UNL     1       9.757   0.613  21.792  0.00  0.00    +0.000 A 
ATOM      7  C   UNL     1       9.231  -0.489  22.469  0.00  0.00    +0.006 A 
ENDBRANCH   1   2
BRANCH   1   8
ATOM      8  C   UNL     1       6.910  -1.475  24.704  0.00  0.00    +0.240 C 
ATOM      9  N   UNL     1       6.360  -1.631  25.971  0.00  0.00    -0.284 N 
ATOM     10  H   UNL     1       7.003  -1.865  26.720  0.00  0.00    +0.155 HD
ATOM     11  O   UNL     1       6.272  -1.229  23.682  0.00  0.00    -0.273 OA
BRANCH   9  12
ATOM     12  C   UNL     1       4.990  -1.533  26.316  0.00  0.00    +0.036 A 
ATOM     13  C   UNL     1       4.522  -0.324  26.833  0.00  0.00    +0.043 A 
ATOM     14  C   UNL     1       3.174  -0.214  27.147  0.00  0.00    +0.112 A 
ATOM     15  N   UNL     1       2.278  -1.208  26.984  0.00  0.00    -0.263 NA
ATOM     16  C   UNL     1       2.754  -2.368  26.491  0.00  0.00    +0.112 A 
ATOM     17  C   UNL     1       4.080  -2.574  26.149  0.00  0.00    +0.043 A 
ENDBRANCH   9  12
ENDBRANCH   1   8
BRANCH   1  18
ATOM     18  N   UNL     1       8.900  -2.924  24.146  0.00  0.00    -0.174 NA
ATOM     19  H   UNL     1       9.788  -2.916  23.640  0.00  0.00    +0.149 HD
BRANCH  18  20
ATOM     20  S   UNL     1       8.898  -4.210  25.238  0.00  0.00    +0.061 S 
ATOM     21  O   UNL     1       8.892  -3.653  26.572  0.00  0.00    -0.153 OA
ATOM     22  O   UNL     1       9.951  -5.107  24.820  0.00  0.00    -0.153 OA
BRANCH  20  23
ATOM     23  C   UNL     1       7.369  -5.006  24.943  0.00  0.00    +0.133 A 
ATOM     24  C   UNL     1       6.827  -5.141  23.645  0.00  0.00    +0.126 A 
ATOM     25  C   UNL     1       5.472  -5.787  23.462  0.00  0.00    +0.102 A 
ATOM     26  N   UNL     1       5.080  -5.841  22.181  0.00  0.00    -0.191 NA
ATOM     27  S   UNL     1       6.310  -5.190  21.281  0.00  0.00    +0.117 S 
ATOM     28  C   UNL     1       4.728  -6.254  24.571  0.00  0.00    +0.031 A 
ATOM     29  C   UNL     1       5.324  -6.092  25.834  0.00  0.00    +0.004 A 
ATOM     30  N   UNL     1       7.356  -4.728  22.481  0.00  0.00    -0.189 NA
ATOM     31  C   UNL     1       6.593  -5.498  26.016  0.00  0.00    +0.031 A 
ENDBRANCH  20  23
ENDBRANCH  18  20
ENDBRANCH   1  18
TORSDOF 6
ENDMDL
MODEL 2
REMARK VINA RESULT:      -6.9      2.604      5.306
REMARK  Name = 
REMARK  6 active torsions:
REMARK  status: ('A' for Active; 'I' for Inactive)
REMARK    1  A    between atoms: C_2  and  N_3
REMARK    2  A    between atoms: C_2  and  C_16
REMARK    3  A    between atoms: C_2  and  C_25
REMARK    4  A    between atoms: N_3  and  S_4
REMARK    5  A    between atoms: S_4  and  C_7
REMARK    6  A    between atoms: N_18  and  C_19
REMARK                            x       y       z     vdW  Elec       q    Type
REMARK                         _______ _______ _______ _____ _____    ______ ____
ROOT
ATOM      1  C   UNL     1       8.426  -3.842  24.428  0.00  0.00    +0.192 C 
ENDROOT
BRANCH   1   2
ATOM      2  C   UNL     1       7.631  -4.389  23.249  0.00  0.00    -0.020 A 
ATOM      3  C   UNL     1       6.659  -3.569  22.647  0.00  0.00    +0.006 A 
ATOM      4  C   UNL     1       5.888  -4.040  21.585  0.00  0.00    +0.000 A 
ATOM      5  C   UNL     1       6.068  -5.339  21.117  0.00  0.00    +0.000 A 
ATOM      6  C   UNL     1       7.020  -6.167  21.708  0.00  0.00    +0.000 A 
ATOM      7  C   UNL     1       7.798  -5.699  22.769  0.00  0.00    +0.006 A 
ENDBRANCH   1   2
BRANCH   1   8
ATOM      8  C   UNL     1       9.314  -2.662  23.982  0.00  0.00    +0.240 C 
ATOM      9  N   UNL     1       8.675  -1.428  23.956  0.00  0.00    -0.284 N 
ATOM     10  H   UNL     1       7.685  -1.424  24.179  0.00  0.00    +0.155 HD
ATOM     11  O   UNL     1      10.496  -2.853  23.702  0.00  0.00    -0.273 OA
BRANCH   9  12
ATOM     12  C   UNL     1       9.256  -0.182  23.614  0.00  0.00    +0.036 A 
ATOM     13  C   UNL     1       9.262   0.200  22.272  0.00  0.00    +0.043 A 
ATOM     14  C   UNL     1       9.805   1.433  21.936  0.00  0.00    +0.112 A 
ATOM     15  N   UNL     1      10.331   2.294  22.830  0.00  0.00    -0.263 NA
ATOM     16  C   UNL     1      10.321   1.901  24.117  0.00  0.00    +0.112 A 
ATOM     17  C   UNL     1       9.802   0.692  24.550  0.00  0.00    +0.043 A 
ENDBRANCH   9  12
ENDBRANCH   1   8
BRANCH   1  18
ATOM     18  N   UNL     1       7.568  -3.521  25.590  0.00  0.00    -0.174 NA
ATOM     19  H   UNL     1       6.786  -2.893  25.394  0.00  0.00    +0.149 HD
BRANCH  18  20
ATOM     20  S   UNL     1       7.019  -4.809  26.530  0.00  0.00    +0.061 S 
ATOM     21  O   UNL     1       6.777  -4.307  27.865  0.00  0.00    -0.153 OA
ATOM     22  O   UNL     1       7.939  -5.901  26.311  0.00  0.00    -0.153 OA
BRANCH  20  23
ATOM     23  C   UNL     1       5.492  -5.242  25.797  0.00  0.00    +0.133 A 
ATOM     24  C   UNL     1       4.361  -4.396  25.853  0.00  0.00    +0.126 A 
ATOM     25  C   UNL     1       3.052  -4.853  25.250  0.00  0.00    +0.102 A 
ATOM     26  N   UNL     1       2.065  -3.954  25.384  0.00  0.00    -0.191 NA
ATOM     27  S   UNL     1       2.723  -2.638  26.146  0.00  0.00    +0.117 S 
ATOM     28  C   UNL     1       2.932  -6.121  24.636  0.00  0.00    +0.031 A 
ATOM     29  C   UNL     1       4.093  -6.914  24.611  0.00  0.00    +0.004 A 
ATOM     30  N   UNL     1       4.264  -3.183  26.424  0.00  0.00    -0.189 NA
ATOM     31  C   UNL     1       5.324  -6.493  25.163  0.00  0.00    +0.031 A 
ENDBRANCH  20  23
ENDBRANCH  18  20
ENDBRANCH   1  18
TORSDOF 6
ENDMDL
MODEL 3
REMARK VINA RESULT:      -6.6      2.545      5.352
REMARK  Name = 
REMARK  6 active torsions:
REMARK  status: ('A' for Active; 'I' for Inactive)
REMARK    1  A    between atoms: C_2  and  N_3
REMARK    2  A    between atoms: C_2  and  C_16
REMARK    3  A    between atoms: C_2  and  C_25
REMARK    4  A    between atoms: N_3  and  S_4
REMARK    5  A    between atoms: S_4  and  C_7
REMARK    6  A    between atoms: N_18  and  C_19
REMARK                            x       y       z     vdW  Elec       q    Type
REMARK                         _______ _______ _______ _____ _____    ______ ____
ROOT
ATOM      1  C   UNL     1       7.126  -2.860  24.161  0.00  0.00    +0.192 C 
ENDROOT
BRANCH   1   2
ATOM      2  C   UNL     1       6.939  -3.923  23.085  0.00  0.00    -0.020 A 
ATOM      3  C   UNL     1       6.252  -3.582  21.906  0.00  0.00    +0.006 A 
ATOM      4  C   UNL     1       6.032  -4.532  20.909  0.00  0.00    +0.000 A 
ATOM      5  C   UNL     1       6.486  -5.837  21.080  0.00  0.00    +0.000 A 
ATOM      6  C   UNL     1       7.160  -6.194  22.246  0.00  0.00    +0.000 A 
ATOM      7  C   UNL     1       7.386  -5.245  23.246  0.00  0.00    +0.006 A 
ENDBRANCH   1   2
BRANCH   1   8
ATOM      8  C   UNL     1       8.298  -1.925  23.801  0.00  0.00    +0.240 C 
ATOM      9  N   UNL     1       7.959  -0.582  23.682  0.00  0.00    -0.284 N 
ATOM     10  H   UNL     1       6.977  -0.350  23.790  0.00  0.00    +0.155 HD
ATOM     11  O   UNL     1       9.430  -2.383  23.662  0.00  0.00    -0.273 OA
BRANCH   9  12
ATOM     12  C   UNL     1       8.838   0.489  23.390  0.00  0.00    +0.036 A 
ATOM     13  C   UNL     1       9.447   1.156  24.453  0.00  0.00    +0.043 A 
ATOM     14  C   UNL     1      10.330   2.189  24.171  0.00  0.00    +0.112 A 
ATOM     15  N   UNL     1      10.643   2.594  22.923  0.00  0.00    -0.263 NA
ATOM     16  C   UNL     1      10.037   1.941  21.913  0.00  0.00    +0.112 A 
ATOM     17  C   UNL     1       9.143   0.900  22.094  0.00  0.00    +0.043 A 
ENDBRANCH   9  12
ENDBRANCH   1   8
BRANCH   1  18
ATOM     18  N   UNL     1       5.872  -2.135  24.464  0.00  0.00    -0.174 NA
ATOM     19  H   UNL     1       5.137  -2.220  23.759  0.00  0.00    +0.149 HD
BRANCH  18  20
ATOM     20  S   UNL     1       5.197  -2.355  25.994  0.00  0.00    +0.061 S 
ATOM     21  O   UNL     1       3.901  -1.713  25.999  0.00  0.00    -0.153 OA
ATOM     22  O   UNL     1       6.210  -1.975  26.951  0.00  0.00    -0.153 OA
BRANCH  20  23
ATOM     23  C   UNL     1       4.977  -4.086  26.109  0.00  0.00    +0.133 A 
ATOM     24  C   UNL     1       4.198  -4.811  25.178  0.00  0.00    +0.126 A 
ATOM     25  C   UNL     1       3.997  -6.298  25.366  0.00  0.00    +0.102 A 
ATOM     26  N   UNL     1       3.231  -6.853  24.414  0.00  0.00    -0.191 NA
ATOM     27  S   UNL     1       2.839  -5.641  23.355  0.00  0.00    +0.117 S 
ATOM     28  C   UNL     1       4.568  -6.982  26.464  0.00  0.00    +0.031 A 
ATOM     29  C   UNL     1       5.333  -6.204  27.352  0.00  0.00    +0.004 A 
ATOM     30  N   UNL     1       3.545  -4.340  24.102  0.00  0.00    -0.189 NA
ATOM     31  C   UNL     1       5.535  -4.816  27.182  0.00  0.00    +0.031 A 
ENDBRANCH  20  23
ENDBRANCH  18  20
ENDBRANCH   1  18
TORSDOF 6
ENDMDL
MODEL 4
REMARK VINA RESULT:      -6.6      1.763      1.969
REMARK  Name = 
REMARK  6 active torsions:
REMARK  status: ('A' for Active; 'I' for Inactive)
REMARK    1  A    between atoms: C_2  and  N_3
REMARK    2  A    between atoms: C_2  and  C_16
REMARK    3  A    between atoms: C_2  and  C_25
REMARK    4  A    between atoms: N_3  and  S_4
REMARK    5  A    between atoms: S_4  and  C_7
REMARK    6  A    between atoms: N_18  and  C_19
REMARK                            x       y       z     vdW  Elec       q    Type
REMARK                         _______ _______ _______ _____ _____    ______ ____
ROOT
ATOM      1  C   UNL     1       9.187  -1.382  25.085  0.00  0.00    +0.192 C 
ENDROOT
BRANCH   1   2
ATOM      2  C   UNL     1       9.501  -0.372  23.988  0.00  0.00    -0.020 A 
ATOM      3  C   UNL     1      10.127   0.838  24.339  0.00  0.00    +0.006 A 
ATOM      4  C   UNL     1      10.405   1.804  23.372  0.00  0.00    +0.000 A 
ATOM      5  C   UNL     1      10.052   1.579  22.044  0.00  0.00    +0.000 A 
ATOM      6  C   UNL     1       9.423   0.390  21.681  0.00  0.00    +0.000 A 
ATOM      7  C   UNL     1       9.146  -0.582  22.645  0.00  0.00    +0.006 A 
ENDBRANCH   1   2
BRANCH   1   8
ATOM      8  C   UNL     1       8.535  -0.683  26.294  0.00  0.00    +0.240 C 
ATOM      9  N   UNL     1       7.270  -0.159  26.053  0.00  0.00    -0.284 N 
ATOM     10  H   UNL     1       6.919  -0.237  25.104  0.00  0.00    +0.155 HD
ATOM     11  O   UNL     1       9.123  -0.640  27.373  0.00  0.00    -0.273 OA
BRANCH   9  12
ATOM     12  C   UNL     1       6.438   0.505  26.987  0.00  0.00    +0.036 A 
ATOM     13  C   UNL     1       6.526   1.895  27.082  0.00  0.00    +0.043 A 
ATOM     14  C   UNL     1       5.692   2.553  27.977  0.00  0.00    +0.112 A 
ATOM     15  N   UNL     1       4.792   1.931  28.766  0.00  0.00    -0.263 NA
ATOM     16  C   UNL     1       4.730   0.590  28.662  0.00  0.00    +0.112 A 
ATOM     17  C   UNL     1       5.520  -0.154  27.801  0.00  0.00    +0.043 A 
ENDBRANCH   9  12
ENDBRANCH   1   8
BRANCH   1  18
ATOM     18  N   UNL     1       8.408  -2.536  24.585  0.00  0.00    -0.174 NA
ATOM     19  H   UNL     1       8.387  -2.642  23.569  0.00  0.00    +0.149 HD
BRANCH  18  20
ATOM     20  S   UNL     1       8.704  -4.039  25.292  0.00  0.00    +0.061 S 
ATOM     21  O   UNL     1       8.809  -3.840  26.720  0.00  0.00    -0.153 OA
ATOM     22  O   UNL     1       9.791  -4.636  24.551  0.00  0.00    -0.153 OA
BRANCH  20  23
ATOM     23  C   UNL     1       7.255  -4.956  24.948  0.00  0.00    +0.133 A 
ATOM     24  C   UNL     1       6.739  -5.088  23.639  0.00  0.00    +0.126 A 
ATOM     25  C   UNL     1       5.449  -5.844  23.414  0.00  0.00    +0.102 A 
ATOM     26  N   UNL     1       5.075  -5.883  22.127  0.00  0.00    -0.191 NA
ATOM     27  S   UNL     1       6.251  -5.091  21.268  0.00  0.00    +0.117 S 
ATOM     28  C   UNL     1       4.739  -6.418  24.495  0.00  0.00    +0.031 A 
ATOM     29  C   UNL     1       5.306  -6.253  25.771  0.00  0.00    +0.004 A 
ATOM     30  N   UNL     1       7.240  -4.585  22.498  0.00  0.00    -0.189 NA
ATOM     31  C   UNL     1       6.516  -5.556  25.991  0.00  0.00    +0.031 A 
ENDBRANCH  20  23
ENDBRANCH  18  20
ENDBRANCH   1  18
TORSDOF 6
ENDMDL
MODEL 5
REMARK VINA RESULT:      -6.5      1.883      2.255
REMARK  Name = 
REMARK  6 active torsions:
REMARK  status: ('A' for Active; 'I' for Inactive)
REMARK    1  A    between atoms: C_2  and  N_3
REMARK    2  A    between atoms: C_2  and  C_16
REMARK    3  A    between atoms: C_2  and  C_25
REMARK    4  A    between atoms: N_3  and  S_4
REMARK    5  A    between atoms: S_4  and  C_7
REMARK    6  A    between atoms: N_18  and  C_19
REMARK                            x       y       z     vdW  Elec       q    Type
REMARK                         _______ _______ _______ _____ _____    ______ ____
ROOT
ATOM      1  C   UNL     1       8.858  -1.832  24.544  0.00  0.00    +0.192 C 
ENDROOT
BRANCH   1   2
ATOM      2  C   UNL     1       9.276  -0.699  23.614  0.00  0.00    -0.020 A 
ATOM      3  C   UNL     1       9.957   0.406  24.155  0.00  0.00    +0.006 A 
ATOM      4  C   UNL     1      10.331   1.478  23.346  0.00  0.00    +0.000 A 
ATOM      5  C   UNL     1      10.021   1.466  21.988  0.00  0.00    +0.000 A 
ATOM      6  C   UNL     1       9.339   0.383  21.438  0.00  0.00    +0.000 A 
ATOM      7  C   UNL     1       8.966  -0.695  22.244  0.00  0.00    +0.006 A 
ENDBRANCH   1   2
BRANCH   1   8
ATOM      8  C   UNL     1       8.047  -1.283  25.735  0.00  0.00    +0.240 C 
ATOM      9  N   UNL     1       6.720  -0.984  25.449  0.00  0.00    -0.284 N 
ATOM     10  H   UNL     1       6.424  -1.103  24.486  0.00  0.00    +0.155 HD
ATOM     11  O   UNL     1       8.578  -1.159  26.837  0.00  0.00    -0.273 OA
BRANCH   9  12
ATOM     12  C   UNL     1       5.748  -0.495  26.357  0.00  0.00    +0.036 A 
ATOM     13  C   UNL     1       5.206   0.770  26.129  0.00  0.00    +0.043 A 
ATOM     14  C   UNL     1       4.233   1.242  27.000  0.00  0.00    +0.112 A 
ATOM     15  N   UNL     1       3.772   0.550  28.062  0.00  0.00    -0.263 NA
ATOM     16  C   UNL     1       4.316  -0.665  28.266  0.00  0.00    +0.112 A 
ATOM     17  C   UNL     1       5.290  -1.221  27.454  0.00  0.00    +0.043 A 
ENDBRANCH   9  12
ENDBRANCH   1   8
BRANCH   1  18
ATOM     18  N   UNL     1       8.174  -2.930  23.827  0.00  0.00    -0.174 NA
ATOM     19  H   UNL     1       8.222  -2.882  22.808  0.00  0.00    +0.149 HD
BRANCH  18  20
ATOM     20  S   UNL     1       8.506  -4.508  24.322  0.00  0.00    +0.061 S 
ATOM     21  O   UNL     1       9.830  -4.516  24.904  0.00  0.00    -0.153 OA
ATOM     22  O   UNL     1       8.190  -5.367  23.204  0.00  0.00    -0.153 OA
BRANCH  20  23
ATOM     23  C   UNL     1       7.327  -4.810  25.578  0.00  0.00    +0.133 A 
ATOM     24  C   UNL     1       5.972  -4.431  25.448  0.00  0.00    +0.126 A 
ATOM     25  C   UNL     1       5.014  -4.666  26.594  0.00  0.00    +0.102 A 
ATOM     26  N   UNL     1       3.765  -4.251  26.333  0.00  0.00    -0.191 NA
ATOM     27  S   UNL     1       3.774  -3.666  24.782  0.00  0.00    +0.117 S 
ATOM     28  C   UNL     1       5.450  -5.252  27.804  0.00  0.00    +0.031 A 
ATOM     29  C   UNL     1       6.809  -5.608  27.870  0.00  0.00    +0.004 A 
ATOM     30  N   UNL     1       5.379  -3.829  24.403  0.00  0.00    -0.189 NA
ATOM     31  C   UNL     1       7.711  -5.401  26.802  0.00  0.00    +0.031 A 
ENDBRANCH  20  23
ENDBRANCH  18  20
ENDBRANCH   1  18
TORSDOF 6
ENDMDL
MODEL 6
REMARK VINA RESULT:      -6.4      3.126      5.068
REMARK  Name = 
REMARK  6 active torsions:
REMARK  status: ('A' for Active; 'I' for Inactive)
REMARK    1  A    between atoms: C_2  and  N_3
REMARK    2  A    between atoms: C_2  and  C_16
REMARK    3  A    between atoms: C_2  and  C_25
REMARK    4  A    between atoms: N_3  and  S_4
REMARK    5  A    between atoms: S_4  and  C_7
REMARK    6  A    between atoms: N_18  and  C_19
REMARK                            x       y       z     vdW  Elec       q    Type
REMARK                         _______ _______ _______ _____ _____    ______ ____
ROOT
ATOM      1  C   UNL     1       6.906   0.412  24.555  0.00  0.00    +0.192 C 
ENDROOT
BRANCH   1   2
ATOM      2  C   UNL     1       8.106  -0.234  23.873  0.00  0.00    -0.020 A 
ATOM      3  C   UNL     1       8.006  -0.587  22.515  0.00  0.00    +0.006 A 
ATOM      4  C   UNL     1       9.069  -1.208  21.860  0.00  0.00    +0.000 A 
ATOM      5  C   UNL     1      10.242  -1.494  22.554  0.00  0.00    +0.000 A 
ATOM      6  C   UNL     1      10.354  -1.160  23.902  0.00  0.00    +0.000 A 
ATOM      7  C   UNL     1       9.293  -0.534  24.562  0.00  0.00    +0.006 A 
ENDBRANCH   1   2
BRANCH   1   8
ATOM      8  C   UNL     1       6.685   1.841  24.021  0.00  0.00    +0.240 C 
ATOM      9  N   UNL     1       7.829   2.628  23.968  0.00  0.00    -0.284 N 
ATOM     10  H   UNL     1       8.683   2.214  24.329  0.00  0.00    +0.155 HD
ATOM     11  O   UNL     1       5.565   2.199  23.663  0.00  0.00    -0.273 OA
BRANCH   9  12
ATOM     12  C   UNL     1       7.919   3.961  23.497  0.00  0.00    +0.036 A 
ATOM     13  C   UNL     1       8.795   4.834  24.142  0.00  0.00    +0.043 A 
ATOM     14  C   UNL     1       8.907   6.134  23.666  0.00  0.00    +0.112 A 
ATOM     15  N   UNL     1       8.218   6.612  22.610  0.00  0.00    -0.263 NA
ATOM     16  C   UNL     1       7.373   5.753  22.008  0.00  0.00    +0.112 A 
ATOM     17  C   UNL     1       7.193   4.440  22.409  0.00  0.00    +0.043 A 
ENDBRANCH   9  12
ENDBRANCH   1   8
BRANCH   1  18
ATOM     18  N   UNL     1       5.693  -0.433  24.485  0.00  0.00    -0.174 NA
ATOM     19  H   UNL     1       5.528  -0.886  23.585  0.00  0.00    +0.149 HD
BRANCH  18  20
ATOM     20  S   UNL     1       5.456  -1.556  25.721  0.00  0.00    +0.061 S 
ATOM     21  O   UNL     1       4.125  -2.100  25.571  0.00  0.00    -0.153 OA
ATOM     22  O   UNL     1       5.850  -0.907  26.950  0.00  0.00    -0.153 OA
BRANCH  20  23
ATOM     23  C   UNL     1       6.627  -2.809  25.378  0.00  0.00    +0.133 A 
ATOM     24  C   UNL     1       6.658  -3.496  24.144  0.00  0.00    +0.126 A 
ATOM     25  C   UNL     1       7.658  -4.610  23.931  0.00  0.00    +0.102 A 
ATOM     26  N   UNL     1       7.568  -5.177  22.718  0.00  0.00    -0.191 NA
ATOM     27  S   UNL     1       6.379  -4.362  21.901  0.00  0.00    +0.117 S 
ATOM     28  C   UNL     1       8.563  -4.987  24.950  0.00  0.00    +0.031 A 
ATOM     29  C   UNL     1       8.482  -4.264  26.153  0.00  0.00    +0.004 A 
ATOM     30  N   UNL     1       5.862  -3.314  23.077  0.00  0.00    -0.189 NA
ATOM     31  C   UNL     1       7.558  -3.215  26.360  0.00  0.00    +0.031 A 
ENDBRANCH  20  23
ENDBRANCH  18  20
ENDBRANCH   1  18
TORSDOF 6
ENDMDL
MODEL 7
REMARK VINA RESULT:      -6.4      3.050      5.809
REMARK  Name = 
REMARK  6 active torsions:
REMARK  status: ('A' for Active; 'I' for Inactive)
REMARK    1  A    between atoms: C_2  and  N_3
REMARK    2  A    between atoms: C_2  and  C_16
REMARK    3  A    between atoms: C_2  and  C_25
REMARK    4  A    between atoms: N_3  and  S_4
REMARK    5  A    between atoms: S_4  and  C_7
REMARK    6  A    between atoms: N_18  and  C_19
REMARK                            x       y       z     vdW  Elec       q    Type
REMARK                         _______ _______ _______ _____ _____    ______ ____
ROOT
ATOM      1  C   UNL     1       7.972   0.194  23.874  0.00  0.00    +0.192 C 
ENDROOT
BRANCH   1   2
ATOM      2  C   UNL     1       7.106   0.174  25.128  0.00  0.00    -0.020 A 
ATOM      3  C   UNL     1       7.727   0.312  26.383  0.00  0.00    +0.006 A 
ATOM      4  C   UNL     1       6.977   0.268  27.558  0.00  0.00    +0.000 A 
ATOM      5  C   UNL     1       5.599   0.075  27.496  0.00  0.00    +0.000 A 
ATOM      6  C   UNL     1       4.970  -0.073  26.262  0.00  0.00    +0.000 A 
ATOM      7  C   UNL     1       5.716  -0.025  25.082  0.00  0.00    +0.006 A 
ENDBRANCH   1   2
BRANCH   1   8
ATOM      8  C   UNL     1       8.330   1.644  23.488  0.00  0.00    +0.240 C 
ATOM      9  N   UNL     1       9.419   2.177  24.168  0.00  0.00    -0.284 N 
ATOM     10  H   UNL     1       9.839   1.592  24.883  0.00  0.00    +0.155 HD
ATOM     11  O   UNL     1       7.683   2.228  22.622  0.00  0.00    -0.273 OA
BRANCH   9  12
ATOM     12  C   UNL     1       9.978   3.466  23.992  0.00  0.00    +0.036 A 
ATOM     13  C   UNL     1      11.247   3.565  23.422  0.00  0.00    +0.043 A 
ATOM     14  C   UNL     1      11.788   4.828  23.221  0.00  0.00    +0.112 A 
ATOM     15  N   UNL     1      11.160   5.977  23.543  0.00  0.00    -0.263 NA
ATOM     16  C   UNL     1       9.939   5.857  24.099  0.00  0.00    +0.112 A 
ATOM     17  C   UNL     1       9.317   4.643  24.339  0.00  0.00    +0.043 A 
ENDBRANCH   9  12
ENDBRANCH   1   8
BRANCH   1  18
ATOM     18  N   UNL     1       9.152  -0.690  23.986  0.00  0.00    -0.174 NA
ATOM     19  H   UNL     1       9.288  -1.123  24.902  0.00  0.00    +0.149 HD
BRANCH  18  20
ATOM     20  S   UNL     1       9.366  -1.857  22.787  0.00  0.00    +0.061 S 
ATOM     21  O   UNL     1      10.662  -2.466  22.992  0.00  0.00    -0.153 OA
ATOM     22  O   UNL     1       9.044  -1.221  21.531  0.00  0.00    -0.153 OA
BRANCH  20  23
ATOM     23  C   UNL     1       8.121  -3.037  23.124  0.00  0.00    +0.133 A 
ATOM     24  C   UNL     1       8.040  -3.717  24.360  0.00  0.00    +0.126 A 
ATOM     25  C   UNL     1       6.975  -4.770  24.570  0.00  0.00    +0.102 A 
ATOM     26  N   UNL     1       7.023  -5.337  25.784  0.00  0.00    -0.191 NA
ATOM     27  S   UNL     1       8.252  -4.591  26.608  0.00  0.00    +0.117 S 
ATOM     28  C   UNL     1       6.057  -5.096  23.544  0.00  0.00    +0.031 A 
ATOM     29  C   UNL     1       6.189  -4.383  22.340  0.00  0.00    +0.004 A 
ATOM     30  N   UNL     1       8.838  -3.580  25.433  0.00  0.00    -0.189 NA
ATOM     31  C   UNL     1       7.175  -3.391  22.137  0.00  0.00    +0.031 A 
ENDBRANCH  20  23
ENDBRANCH  18  20
ENDBRANCH   1  18
TORSDOF 6
ENDMDL
MODEL 8
REMARK VINA RESULT:      -6.2      2.145      2.910
REMARK  Name = 
REMARK  6 active torsions:
REMARK  status: ('A' for Active; 'I' for Inactive)
REMARK    1  A    between atoms: C_2  and  N_3
REMARK    2  A    between atoms: C_2  and  C_16
REMARK    3  A    between atoms: C_2  and  C_25
REMARK    4  A    between atoms: N_3  and  S_4
REMARK    5  A    between atoms: S_4  and  C_7
REMARK    6  A    between atoms: N_18  and  C_19
REMARK                            x       y       z     vdW  Elec       q    Type
REMARK                         _______ _______ _______ _____ _____    ______ ____
ROOT
ATOM      1  C   UNL     1       7.133  -1.770  23.674  0.00  0.00    +0.192 C 
ENDROOT
BRANCH   1   2
ATOM      2  C   UNL     1       7.570  -0.493  22.965  0.00  0.00    -0.020 A 
ATOM      3  C   UNL     1       8.769  -0.503  22.229  0.00  0.00    +0.006 A 
ATOM      4  C   UNL     1       9.222   0.651  21.590  0.00  0.00    +0.000 A 
ATOM      5  C   UNL     1       8.490   1.832  21.686  0.00  0.00    +0.000 A 
ATOM      6  C   UNL     1       7.305   1.861  22.419  0.00  0.00    +0.000 A 
ATOM      7  C   UNL     1       6.845   0.707  23.057  0.00  0.00    +0.006 A 
ENDBRANCH   1   2
BRANCH   1   8
ATOM      8  C   UNL     1       6.839  -1.489  25.161  0.00  0.00    +0.240 C 
ATOM      9  N   UNL     1       5.522  -1.708  25.548  0.00  0.00    -0.284 N 
ATOM     10  H   UNL     1       4.872  -1.978  24.816  0.00  0.00    +0.155 HD
ATOM     11  O   UNL     1       7.743  -1.122  25.909  0.00  0.00    -0.273 OA
BRANCH   9  12
ATOM     12  C   UNL     1       4.986  -1.557  26.850  0.00  0.00    +0.036 A 
ATOM     13  C   UNL     1       4.815  -0.267  27.351  0.00  0.00    +0.043 A 
ATOM     14  C   UNL     1       4.265  -0.113  28.617  0.00  0.00    +0.112 A 
ATOM     15  N   UNL     1       3.879  -1.140  29.401  0.00  0.00    -0.263 NA
ATOM     16  C   UNL     1       4.060  -2.376  28.899  0.00  0.00    +0.112 A 
ATOM     17  C   UNL     1       4.601  -2.631  27.650  0.00  0.00    +0.043 A 
ENDBRANCH   9  12
ENDBRANCH   1   8
BRANCH   1  18
ATOM     18  N   UNL     1       6.020  -2.452  22.976  0.00  0.00    -0.174 NA
ATOM     19  H   UNL     1       5.549  -1.897  22.260  0.00  0.00    +0.149 HD
BRANCH  18  20
ATOM     20  S   UNL     1       6.314  -3.999  22.372  0.00  0.00    +0.061 S 
ATOM     21  O   UNL     1       7.742  -4.220  22.407  0.00  0.00    -0.153 OA
ATOM     22  O   UNL     1       5.584  -4.103  21.130  0.00  0.00    -0.153 OA
BRANCH  20  23
ATOM     23  C   UNL     1       5.544  -5.055  23.534  0.00  0.00    +0.133 A 
ATOM     24  C   UNL     1       6.058  -5.247  24.837  0.00  0.00    +0.126 A 
ATOM     25  C   UNL     1       5.380  -6.219  25.776  0.00  0.00    +0.102 A 
ATOM     26  N   UNL     1       5.980  -6.305  26.972  0.00  0.00    -0.191 NA
ATOM     27  S   UNL     1       7.246  -5.235  26.947  0.00  0.00    +0.117 S 
ATOM     28  C   UNL     1       4.239  -6.951  25.372  0.00  0.00    +0.031 A 
ATOM     29  C   UNL     1       3.777  -6.713  24.066  0.00  0.00    +0.004 A 
ATOM     30  N   UNL     1       7.146  -4.680  25.387  0.00  0.00    -0.189 NA
ATOM     31  C   UNL     1       4.397  -5.801  23.183  0.00  0.00    +0.031 A 
ENDBRANCH  20  23
ENDBRANCH  18  20
ENDBRANCH   1  18
TORSDOF 6
ENDMDL
MODEL 9
REMARK VINA RESULT:      -6.1      2.079      2.791
REMARK  Name = 
REMARK  6 active torsions:
REMARK  status: ('A' for Active; 'I' for Inactive)
REMARK    1  A    between atoms: C_2  and  N_3
REMARK    2  A    between atoms: C_2  and  C_16
REMARK    3  A    between atoms: C_2  and  C_25
REMARK    4  A    between atoms: N_3  and  S_4
REMARK    5  A    between atoms: S_4  and  C_7
REMARK    6  A    between atoms: N_18  and  C_19
REMARK                            x       y       z     vdW  Elec       q    Type
REMARK                         _______ _______ _______ _____ _____    ______ ____
ROOT
ATOM      1  C   UNL     1       8.521  -1.043  25.354  0.00  0.00    +0.192 C 
ENDROOT
BRANCH   1   2
ATOM      2  C   UNL     1       9.189   0.224  24.831  0.00  0.00    -0.020 A 
ATOM      3  C   UNL     1       8.392   1.352  24.567  0.00  0.00    +0.006 A 
ATOM      4  C   UNL     1       8.956   2.521  24.059  0.00  0.00    +0.000 A 
ATOM      5  C   UNL     1      10.323   2.576  23.798  0.00  0.00    +0.000 A 
ATOM      6  C   UNL     1      11.126   1.464  24.044  0.00  0.00    +0.000 A 
ATOM      7  C   UNL     1      10.565   0.292  24.557  0.00  0.00    +0.006 A 
ENDBRANCH   1   2
BRANCH   1   8
ATOM      8  C   UNL     1       7.735  -0.745  26.647  0.00  0.00    +0.240 C 
ATOM      9  N   UNL     1       6.368  -0.984  26.566  0.00  0.00    -0.284 N 
ATOM     10  H   UNL     1       6.010  -1.278  25.663  0.00  0.00    +0.155 HD
ATOM     11  O   UNL     1       8.325  -0.350  27.649  0.00  0.00    -0.273 OA
BRANCH   9  12
ATOM     12  C   UNL     1       5.419  -0.824  27.605  0.00  0.00    +0.036 A 
ATOM     13  C   UNL     1       4.636  -1.922  27.962  0.00  0.00    +0.043 A 
ATOM     14  C   UNL     1       3.723  -1.778  28.999  0.00  0.00    +0.112 A 
ATOM     15  N   UNL     1       3.543  -0.635  29.691  0.00  0.00    -0.263 NA
ATOM     16  C   UNL     1       4.304   0.413  29.324  0.00  0.00    +0.112 A 
ATOM     17  C   UNL     1       5.240   0.367  28.305  0.00  0.00    +0.043 A 
ENDBRANCH   9  12
ENDBRANCH   1   8
BRANCH   1  18
ATOM     18  N   UNL     1       7.711  -1.724  24.320  0.00  0.00    -0.174 NA
ATOM     19  H   UNL     1       7.146  -1.108  23.733  0.00  0.00    +0.149 HD
BRANCH  18  20
ATOM     20  S   UNL     1       8.491  -2.857  23.343  0.00  0.00    +0.061 S 
ATOM     21  O   UNL     1       9.639  -3.348  24.071  0.00  0.00    -0.153 OA
ATOM     22  O   UNL     1       8.652  -2.241  22.046  0.00  0.00    -0.153 OA
BRANCH  20  23
ATOM     23  C   UNL     1       7.321  -4.146  23.182  0.00  0.00    +0.133 A 
ATOM     24  C   UNL     1       6.597  -4.651  24.286  0.00  0.00    +0.126 A 
ATOM     25  C   UNL     1       5.643  -5.808  24.092  0.00  0.00    +0.102 A 
ATOM     26  N   UNL     1       5.033  -6.186  25.225  0.00  0.00    -0.191 NA
ATOM     27  S   UNL     1       5.564  -5.162  26.415  0.00  0.00    +0.117 S 
ATOM     28  C   UNL     1       5.464  -6.404  22.822  0.00  0.00    +0.031 A 
ATOM     29  C   UNL     1       6.211  -5.854  21.765  0.00  0.00    +0.004 A 
ATOM     30  N   UNL     1       6.659  -4.251  25.567  0.00  0.00    -0.189 NA
ATOM     31  C   UNL     1       7.099  -4.768  21.933  0.00  0.00    +0.031 A 
ENDBRANCH  20  23
ENDBRANCH  18  20
ENDBRANCH   1  18
TORSDOF 6
ENDMDL
