MODEL 1
REMARK VINA RESULT:      -7.1      0.000      0.000
REMARK  Name = 
REMARK  3 active torsions:
REMARK  status: ('A' for Active; 'I' for Inactive)
REMARK    1  A    between atoms: O_1  and  C_2
REMARK    2  A    between atoms: C_7  and  S_12
REMARK    3  A    between atoms: S_12  and  N_15
REMARK                            x       y       z     vdW  Elec       q    Type
REMARK                         _______ _______ _______ _____ _____    ______ ____
ROOT
ATOM      1  C   UNL     1       4.876  -5.898  22.626  0.00  0.00    +0.220 A 
ATOM      2  N   UNL     1       5.465  -5.607  21.456  0.00  0.00    -0.221 NA
ATOM      3  C   UNL     1       6.714  -5.122  21.524  0.00  0.00    +0.115 A 
ATOM      4  C   UNL     1       7.388  -4.896  22.715  0.00  0.00    +0.030 A 
ATOM      5  C   UNL     1       6.780  -5.221  23.950  0.00  0.00    +0.015 A 
ATOM      6  C   UNL     1       7.386  -5.067  25.235  0.00  0.00    +0.113 A 
ATOM      7  C   UNL     1       6.746  -5.536  26.388  0.00  0.00    +0.029 A 
ATOM      8  C   UNL     1       5.463  -6.062  26.315  0.00  0.00    +0.003 A 
ATOM      9  C   UNL     1       4.824  -6.155  25.086  0.00  0.00    +0.014 A 
ATOM     10  C   UNL     1       5.472  -5.761  23.896  0.00  0.00    +0.045 A 
ENDROOT
BRANCH   6  11
ATOM     11  S   UNL     1       8.937  -4.161  25.364  0.00  0.00    +0.061 S 
ATOM     12  O   UNL     1       9.930  -5.003  24.730  0.00  0.00    -0.153 OA
ATOM     13  O   UNL     1       9.063  -3.770  26.752  0.00  0.00    -0.153 OA
BRANCH  11  14
ATOM     14  N   UNL     1       8.810  -2.735  24.431  0.00  0.00    -0.175 NA
ATOM     15  C   UNL     1      10.022  -2.340  23.667  0.00  0.00    +0.124 C 
ATOM     16  C   UNL     1       9.661  -1.647  22.344  0.00  0.00    +0.098 C 
ATOM     17  N   UNL     1       9.518  -0.191  22.428  0.00  0.00    -0.315 NA
ATOM     18  H   UNL     1      10.433   0.257  22.392  0.00  0.00    +0.122 HD
ATOM     19  C   UNL     1       8.785   0.286  23.595  0.00  0.00    +0.082 C 
ATOM     20  C   UNL     1       7.563  -0.553  23.950  0.00  0.00    +0.032 C 
ATOM     21  C   UNL     1       7.861  -1.701  24.913  0.00  0.00    +0.111 C 
ENDBRANCH  11  14
ENDBRANCH   6  11
BRANCH   1  22
ATOM     22  O   UNL     1       3.593  -6.351  22.490  0.00  0.00    -0.492 OA
ATOM     23  H   UNL     1       3.623  -7.006  21.777  0.00  0.00    +0.294 HD
ENDBRANCH   1  22
TORSDOF 3
ENDMDL
MODEL 2
REMARK VINA RESULT:      -7.1      2.035      3.042
REMARK  Name = 
REMARK  3 active torsions:
REMARK  status: ('A' for Active; 'I' for Inactive)
REMARK    1  A    between atoms: O_1  and  C_2
REMARK    2  A    between atoms: C_7  and  S_12
REMARK    3  A    between atoms: S_12  and  N_15
REMARK                            x       y       z     vdW  Elec       q    Type
REMARK                         _______ _______ _______ _____ _____    ______ ____
ROOT
ATOM      1  C   UNL     1       5.443  -5.738  24.852  0.00  0.00    +0.220 A 
ATOM      2  N   UNL     1       5.962  -6.209  25.997  0.00  0.00    -0.221 NA
ATOM      3  C   UNL     1       7.015  -5.539  26.491  0.00  0.00    +0.115 A 
ATOM      4  C   UNL     1       7.582  -4.433  25.874  0.00  0.00    +0.030 A 
ATOM      5  C   UNL     1       7.025  -3.921  24.680  0.00  0.00    +0.015 A 
ATOM      6  C   UNL     1       7.498  -2.771  23.974  0.00  0.00    +0.113 A 
ATOM      7  C   UNL     1       6.798  -2.273  22.868  0.00  0.00    +0.029 A 
ATOM      8  C   UNL     1       5.693  -2.951  22.372  0.00  0.00    +0.003 A 
ATOM      9  C   UNL     1       5.258  -4.113  22.997  0.00  0.00    +0.014 A 
ATOM     10  C   UNL     1       5.895  -4.598  24.158  0.00  0.00    +0.045 A 
ENDROOT
BRANCH   6  11
ATOM     11  S   UNL     1       9.068  -2.035  24.460  0.00  0.00    +0.061 S 
ATOM     12  O   UNL     1      10.088  -2.882  23.878  0.00  0.00    -0.153 OA
ATOM     13  O   UNL     1       8.993  -1.829  25.891  0.00  0.00    -0.153 OA
BRANCH  11  14
ATOM     14  N   UNL     1       9.198  -0.501  23.719  0.00  0.00    -0.175 NA
ATOM     15  C   UNL     1       9.920  -0.459  22.420  0.00  0.00    +0.124 C 
ATOM     16  C   UNL     1       9.347   0.617  21.484  0.00  0.00    +0.098 C 
ATOM     17  N   UNL     1       9.965   1.939  21.611  0.00  0.00    -0.315 NA
ATOM     18  H   UNL     1      10.838   1.973  21.085  0.00  0.00    +0.122 HD
ATOM     19  C   UNL     1      10.201   2.376  22.982  0.00  0.00    +0.082 C 
ATOM     20  C   UNL     1       9.069   2.044  23.947  0.00  0.00    +0.032 C 
ATOM     21  C   UNL     1       9.210   0.679  24.618  0.00  0.00    +0.111 C 
ENDBRANCH  11  14
ENDBRANCH   6  11
BRANCH   1  22
ATOM     22  O   UNL     1       4.399  -6.486  24.382  0.00  0.00    -0.492 OA
ATOM     23  H   UNL     1       3.643  -5.881  24.341  0.00  0.00    +0.294 HD
ENDBRANCH   1  22
TORSDOF 3
ENDMDL
MODEL 3
REMARK VINA RESULT:      -6.9      2.383      2.891
REMARK  Name = 
REMARK  3 active torsions:
REMARK  status: ('A' for Active; 'I' for Inactive)
REMARK    1  A    between atoms: O_1  and  C_2
REMARK    2  A    between atoms: C_7  and  S_12
REMARK    3  A    between atoms: S_12  and  N_15
REMARK                            x       y       z     vdW  Elec       q    Type
REMARK                         _______ _______ _______ _____ _____    ______ ____
ROOT
ATOM      1  C   UNL     1       6.493  -5.217  22.298  0.00  0.00    +0.220 A 
ATOM      2  N   UNL     1       5.650  -4.484  21.553  0.00  0.00    -0.221 NA
ATOM      3  C   UNL     1       5.624  -3.167  21.809  0.00  0.00    +0.115 A 
ATOM      4  C   UNL     1       6.389  -2.559  22.793  0.00  0.00    +0.030 A 
ATOM      5  C   UNL     1       7.294  -3.323  23.565  0.00  0.00    +0.015 A 
ATOM      6  C   UNL     1       8.157  -2.804  24.580  0.00  0.00    +0.113 A 
ATOM      7  C   UNL     1       9.106  -3.627  25.200  0.00  0.00    +0.029 A 
ATOM      8  C   UNL     1       9.151  -4.985  24.917  0.00  0.00    +0.003 A 
ATOM      9  C   UNL     1       8.272  -5.527  23.988  0.00  0.00    +0.014 A 
ATOM     10  C   UNL     1       7.356  -4.711  23.290  0.00  0.00    +0.045 A 
ENDROOT
BRANCH   6  11
ATOM     11  S   UNL     1       7.934  -1.104  25.129  0.00  0.00    +0.061 S 
ATOM     12  O   UNL     1       9.037  -0.842  26.029  0.00  0.00    -0.153 OA
ATOM     13  O   UNL     1       6.562  -1.000  25.576  0.00  0.00    -0.153 OA
BRANCH  11  14
ATOM     14  N   UNL     1       8.123  -0.071  23.780  0.00  0.00    -0.175 NA
ATOM     15  C   UNL     1       9.521   0.214  23.363  0.00  0.00    +0.124 C 
ATOM     16  C   UNL     1       9.633   0.405  21.842  0.00  0.00    +0.098 C 
ATOM     17  N   UNL     1       9.454   1.783  21.378  0.00  0.00    -0.315 NA
ATOM     18  H   UNL     1      10.320   2.309  21.490  0.00  0.00    +0.122 HD
ATOM     19  C   UNL     1       8.357   2.506  22.011  0.00  0.00    +0.082 C 
ATOM     20  C   UNL     1       7.097   1.673  22.215  0.00  0.00    +0.032 C 
ATOM     21  C   UNL     1       7.055   0.933  23.551  0.00  0.00    +0.111 C 
ENDBRANCH  11  14
ENDBRANCH   6  11
BRANCH   1  22
ATOM     22  O   UNL     1       6.444  -6.554  22.015  0.00  0.00    -0.492 OA
ATOM     23  H   UNL     1       5.796  -6.645  21.300  0.00  0.00    +0.294 HD
ENDBRANCH   1  22
TORSDOF 3
ENDMDL
MODEL 4
REMARK VINA RESULT:      -6.8      2.515      3.741
REMARK  Name = 
REMARK  3 active torsions:
REMARK  status: ('A' for Active; 'I' for Inactive)
REMARK    1  A    between atoms: O_1  and  C_2
REMARK    2  A    between atoms: C_7  and  S_12
REMARK    3  A    between atoms: S_12  and  N_15
REMARK                            x       y       z     vdW  Elec       q    Type
REMARK                         _______ _______ _______ _____ _____    ______ ____
ROOT
ATOM      1  C   UNL     1       6.777  -5.517  25.978  0.00  0.00    +0.220 A 
ATOM      2  N   UNL     1       7.762  -5.473  26.889  0.00  0.00    -0.221 NA
ATOM      3  C   UNL     1       8.758  -4.609  26.645  0.00  0.00    +0.115 A 
ATOM      4  C   UNL     1       8.820  -3.803  25.518  0.00  0.00    +0.030 A 
ATOM      5  C   UNL     1       7.774  -3.830  24.566  0.00  0.00    +0.015 A 
ATOM      6  C   UNL     1       7.710  -3.024  23.386  0.00  0.00    +0.113 A 
ATOM      7  C   UNL     1       6.570  -3.037  22.574  0.00  0.00    +0.029 A 
ATOM      8  C   UNL     1       5.527  -3.914  22.840  0.00  0.00    +0.003 A 
ATOM      9  C   UNL     1       5.599  -4.760  23.939  0.00  0.00    +0.014 A 
ATOM     10  C   UNL     1       6.700  -4.717  24.821  0.00  0.00    +0.045 A 
ENDROOT
BRANCH   6  11
ATOM     11  S   UNL     1       9.159  -2.074  22.900  0.00  0.00    +0.061 S 
ATOM     12  O   UNL     1       8.936  -1.712  21.516  0.00  0.00    -0.153 OA
ATOM     13  O   UNL     1      10.310  -2.860  23.292  0.00  0.00    -0.153 OA
BRANCH  11  14
ATOM     14  N   UNL     1       9.185  -0.625  23.806  0.00  0.00    -0.175 NA
ATOM     15  C   UNL     1       7.889  -0.196  24.395  0.00  0.00    +0.124 C 
ATOM     16  C   UNL     1       8.085   0.528  25.737  0.00  0.00    +0.098 C 
ATOM     17  N   UNL     1       8.259   1.979  25.636  0.00  0.00    -0.315 NA
ATOM     18  H   UNL     1       7.353   2.438  25.541  0.00  0.00    +0.122 HD
ATOM     19  C   UNL     1       9.144   2.417  24.562  0.00  0.00    +0.082 C 
ATOM     20  C   UNL     1      10.390   1.556  24.390  0.00  0.00    +0.032 C 
ATOM     21  C   UNL     1      10.203   0.386  23.425  0.00  0.00    +0.111 C 
ENDBRANCH  11  14
ENDBRANCH   6  11
BRANCH   1  22
ATOM     22  O   UNL     1       5.814  -6.445  26.265  0.00  0.00    -0.492 OA
ATOM     23  H   UNL     1       6.279  -7.179  26.692  0.00  0.00    +0.294 HD
ENDBRANCH   1  22
TORSDOF 3
ENDMDL
MODEL 5
REMARK VINA RESULT:      -6.8      1.495      2.860
REMARK  Name = 
REMARK  3 active torsions:
REMARK  status: ('A' for Active; 'I' for Inactive)
REMARK    1  A    between atoms: O_1  and  C_2
REMARK    2  A    between atoms: C_7  and  S_12
REMARK    3  A    between atoms: S_12  and  N_15
REMARK                            x       y       z     vdW  Elec       q    Type
REMARK                         _______ _______ _______ _____ _____    ______ ____
ROOT
ATOM      1  C   UNL     1       4.779  -6.805  24.572  0.00  0.00    +0.220 A 
ATOM      2  N   UNL     1       4.720  -6.844  25.912  0.00  0.00    -0.221 NA
ATOM      3  C   UNL     1       5.539  -6.007  26.567  0.00  0.00    +0.115 A 
ATOM      4  C   UNL     1       6.429  -5.151  25.936  0.00  0.00    +0.030 A 
ATOM      5  C   UNL     1       6.480  -5.091  24.524  0.00  0.00    +0.015 A 
ATOM      6  C   UNL     1       7.329  -4.227  23.764  0.00  0.00    +0.113 A 
ATOM      7  C   UNL     1       7.212  -4.156  22.371  0.00  0.00    +0.029 A 
ATOM      8  C   UNL     1       6.346  -5.004  21.694  0.00  0.00    +0.003 A 
ATOM      9  C   UNL     1       5.564  -5.905  22.406  0.00  0.00    +0.014 A 
ATOM     10  C   UNL     1       5.602  -5.947  23.815  0.00  0.00    +0.045 A 
ENDROOT
BRANCH   6  11
ATOM     11  S   UNL     1       8.625  -3.310  24.613  0.00  0.00    +0.061 S 
ATOM     12  O   UNL     1       9.827  -4.102  24.450  0.00  0.00    -0.153 OA
ATOM     13  O   UNL     1       8.106  -2.998  25.928  0.00  0.00    -0.153 OA
BRANCH  11  14
ATOM     14  N   UNL     1       8.873  -1.835  23.787  0.00  0.00    -0.175 NA
ATOM     15  C   UNL     1       7.681  -0.960  23.634  0.00  0.00    +0.124 C 
ATOM     16  C   UNL     1       8.061   0.529  23.661  0.00  0.00    +0.098 C 
ATOM     17  N   UNL     1       8.373   1.111  22.354  0.00  0.00    -0.315 NA
ATOM     18  H   UNL     1       7.514   1.357  21.862  0.00  0.00    +0.122 HD
ATOM     19  C   UNL     1       9.207   0.277  21.495  0.00  0.00    +0.082 C 
ATOM     20  C   UNL     1      10.339  -0.435  22.226  0.00  0.00    +0.032 C 
ATOM     21  C   UNL     1       9.954  -1.809  22.771  0.00  0.00    +0.111 C 
ENDBRANCH  11  14
ENDBRANCH   6  11
BRANCH   1  22
ATOM     22  O   UNL     1       3.949  -7.707  23.966  0.00  0.00    -0.492 OA
ATOM     23  H   UNL     1       4.344  -7.882  23.099  0.00  0.00    +0.294 HD
ENDBRANCH   1  22
TORSDOF 3
ENDMDL
MODEL 6
REMARK VINA RESULT:      -6.8      2.036      5.742
REMARK  Name = 
REMARK  3 active torsions:
REMARK  status: ('A' for Active; 'I' for Inactive)
REMARK    1  A    between atoms: O_1  and  C_2
REMARK    2  A    between atoms: C_7  and  S_12
REMARK    3  A    between atoms: S_12  and  N_15
REMARK                            x       y       z     vdW  Elec       q    Type
REMARK                         _______ _______ _______ _____ _____    ______ ____
ROOT
ATOM      1  C   UNL     1       9.670   0.703  22.792  0.00  0.00    +0.220 A 
ATOM      2  N   UNL     1       9.717   0.154  21.568  0.00  0.00    -0.221 NA
ATOM      3  C   UNL     1       9.423  -1.153  21.491  0.00  0.00    +0.115 A 
ATOM      4  C   UNL     1       9.105  -1.936  22.591  0.00  0.00    +0.030 A 
ATOM      5  C   UNL     1       9.033  -1.358  23.880  0.00  0.00    +0.015 A 
ATOM      6  C   UNL     1       8.684  -2.053  25.079  0.00  0.00    +0.113 A 
ATOM      7  C   UNL     1       8.519  -1.360  26.285  0.00  0.00    +0.029 A 
ATOM      8  C   UNL     1       8.798  -0.002  26.359  0.00  0.00    +0.003 A 
ATOM      9  C   UNL     1       9.211   0.681  25.222  0.00  0.00    +0.014 A 
ATOM     10  C   UNL     1       9.313   0.028  23.976  0.00  0.00    +0.045 A 
ENDROOT
BRANCH   6  11
ATOM     11  S   UNL     1       8.565  -3.849  25.043  0.00  0.00    +0.061 S 
ATOM     12  O   UNL     1       8.131  -4.234  26.369  0.00  0.00    -0.153 OA
ATOM     13  O   UNL     1       9.817  -4.327  24.496  0.00  0.00    -0.153 OA
BRANCH  11  14
ATOM     14  N   UNL     1       7.321  -4.287  23.955  0.00  0.00    -0.175 NA
ATOM     15  C   UNL     1       5.929  -4.064  24.426  0.00  0.00    +0.124 C 
ATOM     16  C   UNL     1       4.988  -3.697  23.268  0.00  0.00    +0.098 C 
ATOM     17  N   UNL     1       4.341  -4.837  22.612  0.00  0.00    -0.315 NA
ATOM     18  H   UNL     1       3.531  -5.142  23.151  0.00  0.00    +0.122 HD
ATOM     19  C   UNL     1       5.217  -5.976  22.359  0.00  0.00    +0.082 C 
ATOM     20  C   UNL     1       6.611  -5.595  21.874  0.00  0.00    +0.032 C 
ATOM     21  C   UNL     1       7.621  -5.383  23.001  0.00  0.00    +0.111 C 
ENDBRANCH  11  14
ENDBRANCH   6  11
BRANCH   1  22
ATOM     22  O   UNL     1      10.016   2.025  22.807  0.00  0.00    -0.492 OA
ATOM     23  H   UNL     1       9.355   2.461  23.365  0.00  0.00    +0.294 HD
ENDBRANCH   1  22
TORSDOF 3
ENDMDL
MODEL 7
REMARK VINA RESULT:      -6.7      2.590      3.952
REMARK  Name = 
REMARK  3 active torsions:
REMARK  status: ('A' for Active; 'I' for Inactive)
REMARK    1  A    between atoms: O_1  and  C_2
REMARK    2  A    between atoms: C_7  and  S_12
REMARK    3  A    between atoms: S_12  and  N_15
REMARK                            x       y       z     vdW  Elec       q    Type
REMARK                         _______ _______ _______ _____ _____    ______ ____
ROOT
ATOM      1  C   UNL     1       5.767  -6.629  27.552  0.00  0.00    +0.220 A 
ATOM      2  N   UNL     1       6.864  -5.992  27.990  0.00  0.00    -0.221 NA
ATOM      3  C   UNL     1       7.512  -5.237  27.090  0.00  0.00    +0.115 A 
ATOM      4  C   UNL     1       7.119  -5.111  25.766  0.00  0.00    +0.030 A 
ATOM      5  C   UNL     1       5.951  -5.761  25.304  0.00  0.00    +0.015 A 
ATOM      6  C   UNL     1       5.429  -5.679  23.976  0.00  0.00    +0.113 A 
ATOM      7  C   UNL     1       4.197  -6.261  23.655  0.00  0.00    +0.029 A 
ATOM      8  C   UNL     1       3.513  -7.022  24.594  0.00  0.00    +0.003 A 
ATOM      9  C   UNL     1       4.037  -7.178  25.871  0.00  0.00    +0.014 A 
ATOM     10  C   UNL     1       5.238  -6.541  26.248  0.00  0.00    +0.045 A 
ENDROOT
BRANCH   6  11
ATOM     11  S   UNL     1       6.429  -4.909  22.693  0.00  0.00    +0.061 S 
ATOM     12  O   UNL     1       5.607  -4.924  21.501  0.00  0.00    -0.153 OA
ATOM     13  O   UNL     1       7.713  -5.576  22.725  0.00  0.00    -0.153 OA
BRANCH  11  14
ATOM     14  N   UNL     1       6.682  -3.271  23.113  0.00  0.00    -0.175 NA
ATOM     15  C   UNL     1       5.481  -2.513  23.550  0.00  0.00    +0.124 C 
ATOM     16  C   UNL     1       5.830  -1.452  24.605  0.00  0.00    +0.098 C 
ATOM     17  N   UNL     1       6.183  -0.136  24.066  0.00  0.00    -0.315 NA
ATOM     18  H   UNL     1       5.341   0.391  23.840  0.00  0.00    +0.122 HD
ATOM     19  C   UNL     1       7.067  -0.167  22.906  0.00  0.00    +0.082 C 
ATOM     20  C   UNL     1       8.183  -1.202  22.999  0.00  0.00    +0.032 C 
ATOM     21  C   UNL     1       7.803  -2.572  22.438  0.00  0.00    +0.111 C 
ENDBRANCH  11  14
ENDBRANCH   6  11
BRANCH   1  22
ATOM     22  O   UNL     1       5.176  -7.411  28.505  0.00  0.00    -0.492 OA
ATOM     23  H   UNL     1       4.264  -7.090  28.576  0.00  0.00    +0.294 HD
ENDBRANCH   1  22
TORSDOF 3
ENDMDL
MODEL 8
REMARK VINA RESULT:      -6.7      3.169      6.743
REMARK  Name = 
REMARK  3 active torsions:
REMARK  status: ('A' for Active; 'I' for Inactive)
REMARK    1  A    between atoms: O_1  and  C_2
REMARK    2  A    between atoms: C_7  and  S_12
REMARK    3  A    between atoms: S_12  and  N_15
REMARK                            x       y       z     vdW  Elec       q    Type
REMARK                         _______ _______ _______ _____ _____    ______ ____
ROOT
ATOM      1  C   UNL     1       8.905   3.079  22.927  0.00  0.00    +0.220 A 
ATOM      2  N   UNL     1       7.776   3.369  22.261  0.00  0.00    -0.221 NA
ATOM      3  C   UNL     1       6.890   2.370  22.133  0.00  0.00    +0.115 A 
ATOM      4  C   UNL     1       7.096   1.090  22.626  0.00  0.00    +0.030 A 
ATOM      5  C   UNL     1       8.273   0.786  23.348  0.00  0.00    +0.015 A 
ATOM      6  C   UNL     1       8.581  -0.483  23.931  0.00  0.00    +0.113 A 
ATOM      7  C   UNL     1       9.717  -0.644  24.733  0.00  0.00    +0.029 A 
ATOM      8  C   UNL     1      10.623   0.397  24.886  0.00  0.00    +0.003 A 
ATOM      9  C   UNL     1      10.383   1.618  24.268  0.00  0.00    +0.014 A 
ATOM     10  C   UNL     1       9.209   1.836  23.516  0.00  0.00    +0.045 A 
ENDROOT
BRANCH   6  11
ATOM     11  S   UNL     1       7.545  -1.900  23.531  0.00  0.00    +0.061 S 
ATOM     12  O   UNL     1       8.089  -2.442  22.304  0.00  0.00    -0.153 OA
ATOM     13  O   UNL     1       6.176  -1.434  23.601  0.00  0.00    -0.153 OA
BRANCH  11  14
ATOM     14  N   UNL     1       7.755  -3.083  24.746  0.00  0.00    -0.175 NA
ATOM     15  C   UNL     1       8.546  -4.282  24.364  0.00  0.00    +0.124 C 
ATOM     16  C   UNL     1       9.347  -4.837  25.553  0.00  0.00    +0.098 C 
ATOM     17  N   UNL     1       8.644  -5.839  26.358  0.00  0.00    -0.315 NA
ATOM     18  H   UNL     1       8.703  -6.755  25.913  0.00  0.00    +0.122 HD
ATOM     19  C   UNL     1       7.249  -5.525  26.646  0.00  0.00    +0.082 C 
ATOM     20  C   UNL     1       6.997  -4.060  26.986  0.00  0.00    +0.032 C 
ATOM     21  C   UNL     1       6.686  -3.189  25.770  0.00  0.00    +0.111 C 
ENDBRANCH  11  14
ENDBRANCH   6  11
BRANCH   1  22
ATOM     22  O   UNL     1       9.783   4.127  22.989  0.00  0.00    -0.492 OA
ATOM     23  H   UNL     1       9.626   4.547  23.847  0.00  0.00    +0.294 HD
ENDBRANCH   1  22
TORSDOF 3
ENDMDL
MODEL 9
REMARK VINA RESULT:      -6.7      2.484      3.413
REMARK  Name = 
REMARK  3 active torsions:
REMARK  status: ('A' for Active; 'I' for Inactive)
REMARK    1  A    between atoms: O_1  and  C_2
REMARK    2  A    between atoms: C_7  and  S_12
REMARK    3  A    between atoms: S_12  and  N_15
REMARK                            x       y       z     vdW  Elec       q    Type
REMARK                         _______ _______ _______ _____ _____    ______ ____
ROOT
ATOM      1  C   UNL     1       5.260  -6.710  26.453  0.00  0.00    +0.220 A 
ATOM      2  N   UNL     1       4.340  -7.244  25.636  0.00  0.00    -0.221 NA
ATOM      3  C   UNL     1       4.289  -6.746  24.392  0.00  0.00    +0.115 A 
ATOM      4  C   UNL     1       5.107  -5.721  23.939  0.00  0.00    +0.030 A 
ATOM      5  C   UNL     1       6.093  -5.169  24.789  0.00  0.00    +0.015 A 
ATOM      6  C   UNL     1       7.014  -4.137  24.426  0.00  0.00    +0.113 A 
ATOM      7  C   UNL     1       8.034  -3.749  25.303  0.00  0.00    +0.029 A 
ATOM      8  C   UNL     1       8.102  -4.283  26.583  0.00  0.00    +0.003 A 
ATOM      9  C   UNL     1       7.173  -5.235  26.985  0.00  0.00    +0.014 A 
ATOM     10  C   UNL     1       6.180  -5.702  26.099  0.00  0.00    +0.045 A 
ENDROOT
BRANCH   6  11
ATOM     11  S   UNL     1       6.777  -3.266  22.868  0.00  0.00    +0.061 S 
ATOM     12  O   UNL     1       5.410  -2.788  22.898  0.00  0.00    -0.153 OA
ATOM     13  O   UNL     1       7.234  -4.164  21.829  0.00  0.00    -0.153 OA
BRANCH  11  14
ATOM     14  N   UNL     1       7.795  -1.894  22.856  0.00  0.00    -0.175 NA
ATOM     15  C   UNL     1       7.134  -0.585  23.100  0.00  0.00    +0.124 C 
ATOM     16  C   UNL     1       8.059   0.389  23.847  0.00  0.00    +0.098 C 
ATOM     17  N   UNL     1       8.896   1.230  22.986  0.00  0.00    -0.315 NA
ATOM     18  H   UNL     1       8.361   2.028  22.644  0.00  0.00    +0.122 HD
ATOM     19  C   UNL     1       9.511   0.534  21.861  0.00  0.00    +0.082 C 
ATOM     20  C   UNL     1      10.039  -0.855  22.200  0.00  0.00    +0.032 C 
ATOM     21  C   UNL     1       9.012  -1.970  22.011  0.00  0.00    +0.111 C 
ENDBRANCH  11  14
ENDBRANCH   6  11
BRANCH   1  22
ATOM     22  O   UNL     1       5.234  -7.233  27.716  0.00  0.00    -0.492 OA
ATOM     23  H   UNL     1       4.956  -8.155  27.610  0.00  0.00    +0.294 HD
ENDBRANCH   1  22
TORSDOF 3
ENDMDL
