MODEL 1
REMARK VINA RESULT:      -5.1      0.000      0.000
REMARK  Name = 
REMARK  1 active torsions:
REMARK  status: ('A' for Active; 'I' for Inactive)
REMARK    1  A    between atoms: C_1  and  C_2
REMARK                            x       y       z     vdW  Elec       q    Type
REMARK                         _______ _______ _______ _____ _____    ______ ____
ROOT
ATOM      1  C   UNL     1       6.784  -5.155  21.910  0.00  0.00    +0.044 C 
ATOM      2  C   UNL     1       6.327  -5.460  23.311  0.00  0.00    -0.047 A 
ATOM      3  C   UNL     1       7.148  -5.212  24.431  0.00  0.00    -0.031 A 
ATOM      4  C   UNL     1       8.537  -4.634  24.283  0.00  0.00    +0.055 C 
ATOM      5  C   UNL     1       9.014  -3.978  25.575  0.00  0.00    +0.109 C 
ATOM      6  N   UNL     1       8.782  -4.820  26.721  0.00  0.00    -0.311 N 
ATOM      7  H   UNL     1       9.299  -4.662  27.578  0.00  0.00    +0.149 HD
ATOM      8  C   UNL     1       7.573  -5.446  26.910  0.00  0.00    +0.244 C 
ATOM      9  O   UNL     1       7.253  -5.877  28.011  0.00  0.00    -0.270 OA
ATOM     10  C   UNL     1       6.694  -5.587  25.714  0.00  0.00    +0.040 A 
ATOM     11  C   UNL     1       5.419  -6.143  25.884  0.00  0.00    +0.013 A 
ATOM     12  C   UNL     1       4.599  -6.351  24.781  0.00  0.00    +0.001 A 
ATOM     13  C   UNL     1       5.052  -6.020  23.504  0.00  0.00    +0.003 A 
ENDROOT
TORSDOF 0
ENDMDL
MODEL 2
REMARK VINA RESULT:      -5.0      4.349      6.079
REMARK  Name = 
REMARK  1 active torsions:
REMARK  status: ('A' for Active; 'I' for Inactive)
REMARK    1  A    between atoms: C_1  and  C_2
REMARK                            x       y       z     vdW  Elec       q    Type
REMARK                         _______ _______ _______ _____ _____    ______ ____
ROOT
ATOM      1  C   UNL     1      10.212   2.076  24.072  0.00  0.00    +0.044 C 
ATOM      2  C   UNL     1       9.823   0.791  23.393  0.00  0.00    -0.047 A 
ATOM      3  C   UNL     1       9.456  -0.356  24.128  0.00  0.00    -0.031 A 
ATOM      4  C   UNL     1       9.443  -0.357  25.640  0.00  0.00    +0.055 C 
ATOM      5  C   UNL     1       8.547  -1.461  26.194  0.00  0.00    +0.109 C 
ATOM      6  N   UNL     1       8.793  -2.725  25.548  0.00  0.00    -0.311 N 
ATOM      7  H   UNL     1       8.505  -3.587  25.996  0.00  0.00    +0.149 HD
ATOM      8  C   UNL     1       8.891  -2.817  24.180  0.00  0.00    +0.244 C 
ATOM      9  O   UNL     1       8.765  -3.895  23.611  0.00  0.00    -0.270 OA
ATOM     10  C   UNL     1       9.173  -1.555  23.439  0.00  0.00    +0.040 A 
ATOM     11  C   UNL     1       9.196  -1.593  22.039  0.00  0.00    +0.013 A 
ATOM     12  C   UNL     1       9.522  -0.450  21.317  0.00  0.00    +0.001 A 
ATOM     13  C   UNL     1       9.840   0.730  21.989  0.00  0.00    +0.003 A 
ENDROOT
TORSDOF 0
ENDMDL
MODEL 3
REMARK VINA RESULT:      -4.9      5.548      6.866
REMARK  Name = 
REMARK  1 active torsions:
REMARK  status: ('A' for Active; 'I' for Inactive)
REMARK    1  A    between atoms: C_1  and  C_2
REMARK                            x       y       z     vdW  Elec       q    Type
REMARK                         _______ _______ _______ _____ _____    ______ ____
ROOT
ATOM      1  C   UNL     1       6.185   2.024  22.858  0.00  0.00    +0.044 C 
ATOM      2  C   UNL     1       7.525   1.399  22.578  0.00  0.00    -0.047 A 
ATOM      3  C   UNL     1       7.756   0.021  22.769  0.00  0.00    -0.031 A 
ATOM      4  C   UNL     1       6.671  -0.902  23.276  0.00  0.00    +0.055 C 
ATOM      5  C   UNL     1       6.956  -2.356  22.915  0.00  0.00    +0.109 C 
ATOM      6  N   UNL     1       8.315  -2.728  23.218  0.00  0.00    -0.311 N 
ATOM      7  H   UNL     1       8.563  -3.705  23.315  0.00  0.00    +0.149 HD
ATOM      8  C   UNL     1       9.369  -1.921  22.859  0.00  0.00    +0.244 C 
ATOM      9  O   UNL     1      10.510  -2.364  22.806  0.00  0.00    -0.270 OA
ATOM     10  C   UNL     1       9.054  -0.495  22.561  0.00  0.00    +0.040 A 
ATOM     11  C   UNL     1      10.087   0.337  22.110  0.00  0.00    +0.013 A 
ATOM     12  C   UNL     1       9.844   1.688  21.887  0.00  0.00    +0.001 A 
ATOM     13  C   UNL     1       8.576   2.216  22.126  0.00  0.00    +0.003 A 
ENDROOT
TORSDOF 0
ENDMDL
MODEL 4
REMARK VINA RESULT:      -4.9      1.749      2.093
REMARK  Name = 
REMARK  1 active torsions:
REMARK  status: ('A' for Active; 'I' for Inactive)
REMARK    1  A    between atoms: C_1  and  C_2
REMARK                            x       y       z     vdW  Elec       q    Type
REMARK                         _______ _______ _______ _____ _____    ______ ____
ROOT
ATOM      1  C   UNL     1       8.391  -2.390  22.516  0.00  0.00    +0.044 C 
ATOM      2  C   UNL     1       7.305  -3.127  23.252  0.00  0.00    -0.047 A 
ATOM      3  C   UNL     1       7.586  -3.944  24.367  0.00  0.00    -0.031 A 
ATOM      4  C   UNL     1       8.997  -4.131  24.877  0.00  0.00    +0.055 C 
ATOM      5  C   UNL     1       9.013  -4.590  26.331  0.00  0.00    +0.109 C 
ATOM      6  N   UNL     1       8.093  -5.675  26.561  0.00  0.00    -0.311 N 
ATOM      7  H   UNL     1       8.204  -6.269  27.374  0.00  0.00    +0.149 HD
ATOM      8  C   UNL     1       6.807  -5.630  26.079  0.00  0.00    +0.244 C 
ATOM      9  O   UNL     1       5.937  -6.362  26.537  0.00  0.00    -0.270 OA
ATOM     10  C   UNL     1       6.536  -4.670  24.972  0.00  0.00    +0.040 A 
ATOM     11  C   UNL     1       5.220  -4.534  24.511  0.00  0.00    +0.013 A 
ATOM     12  C   UNL     1       4.943  -3.698  23.435  0.00  0.00    +0.001 A 
ATOM     13  C   UNL     1       5.977  -3.006  22.806  0.00  0.00    +0.003 A 
ENDROOT
TORSDOF 0
ENDMDL
MODEL 5
REMARK VINA RESULT:      -4.8      1.602      2.865
REMARK  Name = 
REMARK  1 active torsions:
REMARK  status: ('A' for Active; 'I' for Inactive)
REMARK    1  A    between atoms: C_1  and  C_2
REMARK                            x       y       z     vdW  Elec       q    Type
REMARK                         _______ _______ _______ _____ _____    ______ ____
ROOT
ATOM      1  C   UNL     1       4.087  -6.337  24.602  0.00  0.00    +0.044 C 
ATOM      2  C   UNL     1       5.376  -5.888  23.968  0.00  0.00    -0.047 A 
ATOM      3  C   UNL     1       6.451  -5.397  24.738  0.00  0.00    -0.031 A 
ATOM      4  C   UNL     1       6.361  -5.286  26.244  0.00  0.00    +0.055 C 
ATOM      5  C   UNL     1       7.744  -5.245  26.887  0.00  0.00    +0.109 C 
ATOM      6  N   UNL     1       8.618  -4.314  26.221  0.00  0.00    -0.311 N 
ATOM      7  H   UNL     1       9.440  -3.963  26.697  0.00  0.00    +0.149 HD
ATOM      8  C   UNL     1       8.718  -4.290  24.850  0.00  0.00    +0.244 C 
ATOM      9  O   UNL     1       9.674  -3.758  24.298  0.00  0.00    -0.270 OA
ATOM     10  C   UNL     1       7.607  -4.920  24.083  0.00  0.00    +0.040 A 
ATOM     11  C   UNL     1       7.714  -4.990  22.688  0.00  0.00    +0.013 A 
ATOM     12  C   UNL     1       6.666  -5.510  21.935  0.00  0.00    +0.001 A 
ATOM     13  C   UNL     1       5.504  -5.948  22.569  0.00  0.00    +0.003 A 
ENDROOT
TORSDOF 0
ENDMDL
MODEL 6
REMARK VINA RESULT:      -4.7      2.372      3.667
REMARK  Name = 
REMARK  1 active torsions:
REMARK  status: ('A' for Active; 'I' for Inactive)
REMARK    1  A    between atoms: C_1  and  C_2
REMARK                            x       y       z     vdW  Elec       q    Type
REMARK                         _______ _______ _______ _____ _____    ______ ____
ROOT
ATOM      1  C   UNL     1       8.888  -2.787  23.750  0.00  0.00    +0.044 C 
ATOM      2  C   UNL     1       8.005  -3.807  24.417  0.00  0.00    -0.047 A 
ATOM      3  C   UNL     1       7.170  -4.667  23.673  0.00  0.00    -0.031 A 
ATOM      4  C   UNL     1       7.111  -4.604  22.163  0.00  0.00    +0.055 C 
ATOM      5  C   UNL     1       6.588  -5.906  21.565  0.00  0.00    +0.109 C 
ATOM      6  N   UNL     1       5.401  -6.366  22.240  0.00  0.00    -0.311 N 
ATOM      7  H   UNL     1       4.784  -7.028  21.785  0.00  0.00    +0.149 HD
ATOM      8  C   UNL     1       5.331  -6.397  23.613  0.00  0.00    +0.244 C 
ATOM      9  O   UNL     1       4.489  -7.079  24.185  0.00  0.00    -0.270 OA
ATOM     10  C   UNL     1       6.308  -5.552  24.356  0.00  0.00    +0.040 A 
ATOM     11  C   UNL     1       6.324  -5.622  25.755  0.00  0.00    +0.013 A 
ATOM     12  C   UNL     1       7.176  -4.798  26.483  0.00  0.00    +0.001 A 
ATOM     13  C   UNL     1       8.004  -3.893  25.820  0.00  0.00    +0.003 A 
ENDROOT
TORSDOF 0
ENDMDL
MODEL 7
REMARK VINA RESULT:      -4.7      2.707      4.535
REMARK  Name = 
REMARK  1 active torsions:
REMARK  status: ('A' for Active; 'I' for Inactive)
REMARK    1  A    between atoms: C_1  and  C_2
REMARK                            x       y       z     vdW  Elec       q    Type
REMARK                         _______ _______ _______ _____ _____    ______ ____
ROOT
ATOM      1  C   UNL     1       5.615  -5.916  27.328  0.00  0.00    +0.044 C 
ATOM      2  C   UNL     1       6.460  -5.571  26.132  0.00  0.00    -0.047 A 
ATOM      3  C   UNL     1       5.982  -5.732  24.814  0.00  0.00    -0.031 A 
ATOM      4  C   UNL     1       4.597  -6.269  24.533  0.00  0.00    +0.055 C 
ATOM      5  C   UNL     1       4.112  -5.874  23.142  0.00  0.00    +0.109 C 
ATOM      6  N   UNL     1       5.115  -6.115  22.136  0.00  0.00    -0.311 N 
ATOM      7  H   UNL     1       4.848  -6.187  21.162  0.00  0.00    +0.149 HD
ATOM      8  C   UNL     1       6.420  -5.725  22.327  0.00  0.00    +0.244 C 
ATOM      9  O   UNL     1       7.189  -5.618  21.379  0.00  0.00    -0.270 OA
ATOM     10  C   UNL     1       6.846  -5.462  23.730  0.00  0.00    +0.040 A 
ATOM     11  C   UNL     1       8.142  -4.982  23.956  0.00  0.00    +0.013 A 
ATOM     12  C   UNL     1       8.596  -4.789  25.257  0.00  0.00    +0.001 A 
ATOM     13  C   UNL     1       7.764  -5.089  26.336  0.00  0.00    +0.003 A 
ENDROOT
TORSDOF 0
ENDMDL
MODEL 8
REMARK VINA RESULT:      -4.6      4.646      6.091
REMARK  Name = 
REMARK  1 active torsions:
REMARK  status: ('A' for Active; 'I' for Inactive)
REMARK    1  A    between atoms: C_1  and  C_2
REMARK                            x       y       z     vdW  Elec       q    Type
REMARK                         _______ _______ _______ _____ _____    ______ ____
ROOT
ATOM      1  C   UNL     1       8.552  -3.986  24.064  0.00  0.00    +0.044 C 
ATOM      2  C   UNL     1       8.754  -2.604  24.626  0.00  0.00    -0.047 A 
ATOM      3  C   UNL     1       9.193  -1.532  23.821  0.00  0.00    -0.031 A 
ATOM      4  C   UNL     1       9.493  -1.717  22.350  0.00  0.00    +0.055 C 
ATOM      5  C   UNL     1       9.433  -0.393  21.594  0.00  0.00    +0.109 C 
ATOM      6  N   UNL     1      10.158   0.648  22.277  0.00  0.00    -0.311 N 
ATOM      7  H   UNL     1      10.457   1.473  21.770  0.00  0.00    +0.149 HD
ATOM      8  C   UNL     1      10.007   0.851  23.628  0.00  0.00    +0.244 C 
ATOM      9  O   UNL     1      10.343   1.909  24.146  0.00  0.00    -0.270 OA
ATOM     10  C   UNL     1       9.436  -0.276  24.418  0.00  0.00    +0.040 A 
ATOM     11  C   UNL     1       9.188  -0.077  25.782  0.00  0.00    +0.013 A 
ATOM     12  C   UNL     1       8.720  -1.128  26.564  0.00  0.00    +0.001 A 
ATOM     13  C   UNL     1       8.512  -2.383  25.993  0.00  0.00    +0.003 A 
ENDROOT
TORSDOF 0
ENDMDL
MODEL 9
REMARK VINA RESULT:      -4.6      1.532      3.125
REMARK  Name = 
REMARK  1 active torsions:
REMARK  status: ('A' for Active; 'I' for Inactive)
REMARK    1  A    between atoms: C_1  and  C_2
REMARK                            x       y       z     vdW  Elec       q    Type
REMARK                         _______ _______ _______ _____ _____    ______ ____
ROOT
ATOM      1  C   UNL     1       6.148  -3.341  22.117  0.00  0.00    +0.044 C 
ATOM      2  C   UNL     1       7.029  -3.703  23.282  0.00  0.00    -0.047 A 
ATOM      3  C   UNL     1       6.587  -4.563  24.309  0.00  0.00    -0.031 A 
ATOM      4  C   UNL     1       5.198  -5.161  24.299  0.00  0.00    +0.055 C 
ATOM      5  C   UNL     1       5.120  -6.416  25.163  0.00  0.00    +0.109 C 
ATOM      6  N   UNL     1       5.729  -6.216  26.454  0.00  0.00    -0.311 N 
ATOM      7  H   UNL     1       5.497  -6.833  27.223  0.00  0.00    +0.149 HD
ATOM      8  C   UNL     1       6.961  -5.618  26.573  0.00  0.00    +0.244 C 
ATOM      9  O   UNL     1       7.624  -5.742  27.596  0.00  0.00    -0.270 OA
ATOM     10  C   UNL     1       7.431  -4.808  25.414  0.00  0.00    +0.040 A 
ATOM     11  C   UNL     1       8.716  -4.253  25.465  0.00  0.00    +0.013 A 
ATOM     12  C   UNL     1       9.161  -3.435  24.431  0.00  0.00    +0.001 A 
ATOM     13  C   UNL     1       8.322  -3.156  23.353  0.00  0.00    +0.003 A 
ENDROOT
TORSDOF 0
ENDMDL
