MODEL 1
REMARK VINA RESULT:      -3.1      0.000      0.000
REMARK  Name = 
REMARK  5 active torsions:
REMARK  status: ('A' for Active; 'I' for Inactive)
REMARK    1  A    between atoms: C_1  and  C_2
REMARK    2  A    between atoms: C_2  and  O_4
REMARK    3  A    between atoms: C_2  and  C_5
REMARK    4  A    between atoms: C_5  and  C_6
REMARK    5  A    between atoms: C_6  and  O_7
REMARK                            x       y       z     vdW  Elec       q    Type
REMARK                         _______ _______ _______ _____ _____    ______ ____
ROOT
ATOM      1  C   UNL     1       8.209  -4.987  24.082  0.00  0.00    +0.037 C 
ATOM      2  C   UNL     1       9.314  -4.687  25.084  0.00  0.00    +0.114 C 
ENDROOT
BRANCH   2   3
ATOM      3  O   UNL     1      10.028  -5.899  25.330  0.00  0.00    -0.392 OA
ATOM      4  H   UNL     1       9.511  -6.409  25.981  0.00  0.00    +0.210 HD
ENDBRANCH   2   3
BRANCH   2   5
ATOM      5  C   UNL     1       8.796  -4.108  26.406  0.00  0.00    +0.059 C 
BRANCH   5   6
ATOM      6  C   UNL     1       7.540  -4.788  26.949  0.00  0.00    +0.158 C 
BRANCH   6   7
ATOM      7  O   UNL     1       7.853  -6.020  27.582  0.00  0.00    -0.395 OA
ATOM      8  H   UNL     1       8.503  -5.817  28.288  0.00  0.00    +0.209 HD
ENDBRANCH   6   7
ENDBRANCH   5   6
ENDBRANCH   2   5
TORSDOF 4
ENDMDL
MODEL 2
REMARK VINA RESULT:      -3.0      6.476      7.248
REMARK  Name = 
REMARK  5 active torsions:
REMARK  status: ('A' for Active; 'I' for Inactive)
REMARK    1  A    between atoms: C_1  and  C_2
REMARK    2  A    between atoms: C_2  and  O_4
REMARK    3  A    between atoms: C_2  and  C_5
REMARK    4  A    between atoms: C_5  and  C_6
REMARK    5  A    between atoms: C_6  and  O_7
REMARK                            x       y       z     vdW  Elec       q    Type
REMARK                         _______ _______ _______ _____ _____    ______ ____
ROOT
ATOM      1  C   UNL     1       9.615   1.404  23.664  0.00  0.00    +0.037 C 
ATOM      2  C   UNL     1      10.109   1.157  22.247  0.00  0.00    +0.114 C 
ENDROOT
BRANCH   2   3
ATOM      3  O   UNL     1      10.299   2.425  21.619  0.00  0.00    -0.392 OA
ATOM      4  H   UNL     1      11.116   2.809  21.989  0.00  0.00    +0.210 HD
ENDBRANCH   2   3
BRANCH   2   5
ATOM      5  C   UNL     1       9.153   0.298  21.410  0.00  0.00    +0.059 C 
BRANCH   5   6
ATOM      6  C   UNL     1       9.178  -1.192  21.746  0.00  0.00    +0.158 C 
BRANCH   6   7
ATOM      7  O   UNL     1      10.509  -1.681  21.825  0.00  0.00    -0.395 OA
ATOM      8  H   UNL     1      10.526  -2.334  22.556  0.00  0.00    +0.209 HD
ENDBRANCH   6   7
ENDBRANCH   5   6
ENDBRANCH   2   5
TORSDOF 4
ENDMDL
MODEL 3
REMARK VINA RESULT:      -3.0      5.883      6.591
REMARK  Name = 
REMARK  5 active torsions:
REMARK  status: ('A' for Active; 'I' for Inactive)
REMARK    1  A    between atoms: C_1  and  C_2
REMARK    2  A    between atoms: C_2  and  O_4
REMARK    3  A    between atoms: C_2  and  C_5
REMARK    4  A    between atoms: C_5  and  C_6
REMARK    5  A    between atoms: C_6  and  O_7
REMARK                            x       y       z     vdW  Elec       q    Type
REMARK                         _______ _______ _______ _____ _____    ______ ____
ROOT
ATOM      1  C   UNL     1       9.830  -2.112  23.691  0.00  0.00    +0.037 C 
ATOM      2  C   UNL     1       9.655  -1.039  22.627  0.00  0.00    +0.114 C 
ENDROOT
BRANCH   2   3
ATOM      3  O   UNL     1      10.215  -1.531  21.409  0.00  0.00    -0.392 OA
ATOM      4  H   UNL     1       9.562  -2.142  21.019  0.00  0.00    +0.210 HD
ENDBRANCH   2   3
BRANCH   2   5
ATOM      5  C   UNL     1      10.307   0.299  22.999  0.00  0.00    +0.059 C 
BRANCH   5   6
ATOM      6  C   UNL     1       9.912   1.469  22.099  0.00  0.00    +0.158 C 
BRANCH   6   7
ATOM      7  O   UNL     1       9.056   1.046  21.048  0.00  0.00    -0.395 OA
ATOM      8  H   UNL     1       8.204   0.795  21.463  0.00  0.00    +0.209 HD
ENDBRANCH   6   7
ENDBRANCH   5   6
ENDBRANCH   2   5
TORSDOF 4
ENDMDL
MODEL 4
REMARK VINA RESULT:      -2.9      6.726      7.032
REMARK  Name = 
REMARK  5 active torsions:
REMARK  status: ('A' for Active; 'I' for Inactive)
REMARK    1  A    between atoms: C_1  and  C_2
REMARK    2  A    between atoms: C_2  and  O_4
REMARK    3  A    between atoms: C_2  and  C_5
REMARK    4  A    between atoms: C_5  and  C_6
REMARK    5  A    between atoms: C_6  and  O_7
REMARK                            x       y       z     vdW  Elec       q    Type
REMARK                         _______ _______ _______ _____ _____    ______ ____
ROOT
ATOM      1  C   UNL     1       9.880   0.089  22.087  0.00  0.00    +0.037 C 
ATOM      2  C   UNL     1       9.773   1.528  22.569  0.00  0.00    +0.114 C 
ENDROOT
BRANCH   2   3
ATOM      3  O   UNL     1      10.303   2.376  21.549  0.00  0.00    -0.392 OA
ATOM      4  H   UNL     1       9.563   2.616  20.962  0.00  0.00    +0.210 HD
ENDBRANCH   2   3
BRANCH   2   5
ATOM      5  C   UNL     1      10.504   1.783  23.893  0.00  0.00    +0.059 C 
BRANCH   5   6
ATOM      6  C   UNL     1      10.862   0.520  24.674  0.00  0.00    +0.158 C 
BRANCH   6   7
ATOM      7  O   UNL     1       9.960   0.305  25.750  0.00  0.00    -0.395 OA
ATOM      8  H   UNL     1       9.742  -0.651  25.748  0.00  0.00    +0.209 HD
ENDBRANCH   6   7
ENDBRANCH   5   6
ENDBRANCH   2   5
TORSDOF 4
ENDMDL
MODEL 5
REMARK VINA RESULT:      -2.9      0.803      2.828
REMARK  Name = 
REMARK  5 active torsions:
REMARK  status: ('A' for Active; 'I' for Inactive)
REMARK    1  A    between atoms: C_1  and  C_2
REMARK    2  A    between atoms: C_2  and  O_4
REMARK    3  A    between atoms: C_2  and  C_5
REMARK    4  A    between atoms: C_5  and  C_6
REMARK    5  A    between atoms: C_6  and  O_7
REMARK                            x       y       z     vdW  Elec       q    Type
REMARK                         _______ _______ _______ _____ _____    ______ ____
ROOT
ATOM      1  C   UNL     1       6.449  -4.154  27.109  0.00  0.00    +0.037 C 
ATOM      2  C   UNL     1       7.140  -5.356  26.484  0.00  0.00    +0.114 C 
ENDROOT
BRANCH   2   3
ATOM      3  O   UNL     1       8.059  -5.884  27.441  0.00  0.00    -0.392 OA
ATOM      4  H   UNL     1       8.117  -6.845  27.282  0.00  0.00    +0.210 HD
ENDBRANCH   2   3
BRANCH   2   5
ATOM      5  C   UNL     1       7.876  -5.025  25.180  0.00  0.00    +0.059 C 
BRANCH   5   6
ATOM      6  C   UNL     1       9.335  -4.610  25.362  0.00  0.00    +0.158 C 
BRANCH   6   7
ATOM      7  O   UNL     1      10.199  -5.737  25.340  0.00  0.00    -0.395 OA
ATOM      8  H   UNL     1      10.197  -6.111  26.246  0.00  0.00    +0.209 HD
ENDBRANCH   6   7
ENDBRANCH   5   6
ENDBRANCH   2   5
TORSDOF 4
ENDMDL
MODEL 6
REMARK VINA RESULT:      -2.8      4.805      5.320
REMARK  Name = 
REMARK  5 active torsions:
REMARK  status: ('A' for Active; 'I' for Inactive)
REMARK    1  A    between atoms: C_1  and  C_2
REMARK    2  A    between atoms: C_2  and  O_4
REMARK    3  A    between atoms: C_2  and  C_5
REMARK    4  A    between atoms: C_5  and  C_6
REMARK    5  A    between atoms: C_6  and  O_7
REMARK                            x       y       z     vdW  Elec       q    Type
REMARK                         _______ _______ _______ _____ _____    ______ ____
ROOT
ATOM      1  C   UNL     1       8.979   0.544  21.658  0.00  0.00    +0.037 C 
ATOM      2  C   UNL     1      10.141  -0.311  22.137  0.00  0.00    +0.114 C 
ENDROOT
BRANCH   2   3
ATOM      3  O   UNL     1      10.139  -1.523  21.381  0.00  0.00    -0.392 OA
ATOM      4  H   UNL     1       9.957  -2.250  22.004  0.00  0.00    +0.210 HD
ENDBRANCH   2   3
BRANCH   2   5
ATOM      5  C   UNL     1      10.084  -0.632  23.636  0.00  0.00    +0.059 C 
BRANCH   5   6
ATOM      6  C   UNL     1       9.337  -1.919  23.983  0.00  0.00    +0.158 C 
BRANCH   6   7
ATOM      7  O   UNL     1      10.194  -3.049  23.905  0.00  0.00    -0.395 OA
ATOM      8  H   UNL     1      10.145  -3.499  24.775  0.00  0.00    +0.209 HD
ENDBRANCH   6   7
ENDBRANCH   5   6
ENDBRANCH   2   5
TORSDOF 4
ENDMDL
MODEL 7
REMARK VINA RESULT:      -2.8      7.985      8.422
REMARK  Name = 
REMARK  5 active torsions:
REMARK  status: ('A' for Active; 'I' for Inactive)
REMARK    1  A    between atoms: C_1  and  C_2
REMARK    2  A    between atoms: C_2  and  O_4
REMARK    3  A    between atoms: C_2  and  C_5
REMARK    4  A    between atoms: C_5  and  C_6
REMARK    5  A    between atoms: C_6  and  O_7
REMARK                            x       y       z     vdW  Elec       q    Type
REMARK                         _______ _______ _______ _____ _____    ______ ____
ROOT
ATOM      1  C   UNL     1      10.059   0.919  23.378  0.00  0.00    +0.037 C 
ATOM      2  C   UNL     1       9.791   1.282  21.926  0.00  0.00    +0.114 C 
ENDROOT
BRANCH   2   3
ATOM      3  O   UNL     1      10.522   2.471  21.625  0.00  0.00    -0.392 OA
ATOM      4  H   UNL     1      10.868   2.373  20.718  0.00  0.00    +0.210 HD
ENDBRANCH   2   3
BRANCH   2   5
ATOM      5  C   UNL     1       8.303   1.492  21.616  0.00  0.00    +0.059 C 
BRANCH   5   6
ATOM      6  C   UNL     1       7.626   2.575  22.454  0.00  0.00    +0.158 C 
BRANCH   6   7
ATOM      7  O   UNL     1       8.089   3.869  22.097  0.00  0.00    -0.395 OA
ATOM      8  H   UNL     1       7.557   4.511  22.613  0.00  0.00    +0.209 HD
ENDBRANCH   6   7
ENDBRANCH   5   6
ENDBRANCH   2   5
TORSDOF 4
ENDMDL
MODEL 8
REMARK VINA RESULT:      -2.7      1.836      2.445
REMARK  Name = 
REMARK  5 active torsions:
REMARK  status: ('A' for Active; 'I' for Inactive)
REMARK    1  A    between atoms: C_1  and  C_2
REMARK    2  A    between atoms: C_2  and  O_4
REMARK    3  A    between atoms: C_2  and  C_5
REMARK    4  A    between atoms: C_5  and  C_6
REMARK    5  A    between atoms: C_6  and  O_7
REMARK                            x       y       z     vdW  Elec       q    Type
REMARK                         _______ _______ _______ _____ _____    ______ ____
ROOT
ATOM      1  C   UNL     1       8.021  -3.396  23.089  0.00  0.00    +0.037 C 
ATOM      2  C   UNL     1       8.895  -2.995  24.267  0.00  0.00    +0.114 C 
ENDROOT
BRANCH   2   3
ATOM      3  O   UNL     1      10.257  -3.041  23.842  0.00  0.00    -0.392 OA
ATOM      4  H   UNL     1      10.441  -2.204  23.378  0.00  0.00    +0.210 HD
ENDBRANCH   2   3
BRANCH   2   5
ATOM      5  C   UNL     1       8.701  -3.887  25.500  0.00  0.00    +0.059 C 
BRANCH   5   6
ATOM      6  C   UNL     1       9.085  -5.351  25.292  0.00  0.00    +0.158 C 
BRANCH   6   7
ATOM      7  O   UNL     1      10.486  -5.540  25.421  0.00  0.00    -0.395 OA
ATOM      8  H   UNL     1      10.820  -4.802  25.974  0.00  0.00    +0.209 HD
ENDBRANCH   6   7
ENDBRANCH   5   6
ENDBRANCH   2   5
TORSDOF 4
ENDMDL
MODEL 9
REMARK VINA RESULT:      -2.7      2.248      3.262
REMARK  Name = 
REMARK  5 active torsions:
REMARK  status: ('A' for Active; 'I' for Inactive)
REMARK    1  A    between atoms: C_1  and  C_2
REMARK    2  A    between atoms: C_2  and  O_4
REMARK    3  A    between atoms: C_2  and  C_5
REMARK    4  A    between atoms: C_5  and  C_6
REMARK    5  A    between atoms: C_6  and  O_7
REMARK                            x       y       z     vdW  Elec       q    Type
REMARK                         _______ _______ _______ _____ _____    ______ ____
ROOT
ATOM      1  C   UNL     1       7.188  -3.838  26.707  0.00  0.00    +0.037 C 
ATOM      2  C   UNL     1       6.748  -5.139  27.361  0.00  0.00    +0.114 C 
ENDROOT
BRANCH   2   3
ATOM      3  O   UNL     1       7.910  -5.941  27.574  0.00  0.00    -0.392 OA
ATOM      4  H   UNL     1       8.659  -5.477  27.156  0.00  0.00    +0.210 HD
ENDBRANCH   2   3
BRANCH   2   5
ATOM      5  C   UNL     1       5.718  -5.919  26.534  0.00  0.00    +0.059 C 
BRANCH   5   6
ATOM      6  C   UNL     1       4.777  -6.797  27.356  0.00  0.00    +0.158 C 
BRANCH   6   7
ATOM      7  O   UNL     1       5.492  -7.565  28.313  0.00  0.00    -0.395 OA
ATOM      8  H   UNL     1       4.824  -8.055  28.837  0.00  0.00    +0.209 HD
ENDBRANCH   6   7
ENDBRANCH   5   6
ENDBRANCH   2   5
TORSDOF 4
ENDMDL
