MODEL 1
REMARK VINA RESULT:      -6.5      0.000      0.000
REMARK  Name = 
REMARK  3 active torsions:
REMARK  status: ('A' for Active; 'I' for Inactive)
REMARK    1  A    between atoms: O_1  and  C_2
REMARK    2  A    between atoms: C_5  and  C_8
REMARK    3  A    between atoms: C_14  and  O_15
REMARK                            x       y       z     vdW  Elec       q    Type
REMARK                         _______ _______ _______ _____ _____    ______ ____
ROOT
ATOM      1  C   UNL     1       7.048  -2.469  23.129  0.00  0.00    +0.020 A 
ATOM      2  S   UNL     1       6.152  -3.446  22.040  0.00  0.00    -0.088 S 
ATOM      3  C   UNL     1       5.728  -4.589  23.245  0.00  0.00    +0.023 A 
ATOM      4  C   UNL     1       4.948  -5.749  23.065  0.00  0.00    +0.061 A 
ATOM      5  C   UNL     1       4.724  -6.567  24.167  0.00  0.00    +0.118 A 
ATOM      6  C   UNL     1       5.246  -6.259  25.413  0.00  0.00    +0.046 A 
ATOM      7  C   UNL     1       6.013  -5.102  25.583  0.00  0.00    +0.012 A 
ATOM      8  C   UNL     1       6.265  -4.243  24.485  0.00  0.00    -0.010 A 
ATOM      9  C   UNL     1       7.015  -3.017  24.400  0.00  0.00    +0.024 A 
ENDROOT
BRANCH   1  13
ATOM     10  C   UNL     1       9.155   1.038  21.849  0.00  0.00    +0.117 A 
ATOM     11  C   UNL     1       9.666  -0.215  21.545  0.00  0.00    +0.046 A 
ATOM     12  C   UNL     1       8.967  -1.361  21.933  0.00  0.00    +0.012 A 
ATOM     13  C   UNL     1       7.755  -1.269  22.640  0.00  0.00    -0.011 A 
ATOM     14  C   UNL     1       7.244   0.014  22.904  0.00  0.00    +0.012 A 
ATOM     15  C   UNL     1       7.942   1.164  22.513  0.00  0.00    +0.046 A 
BRANCH  10  16
ATOM     16  O   UNL     1       9.888   2.127  21.486  0.00  0.00    -0.507 OA
ATOM     17  H   UNL     1      10.553   1.852  20.832  0.00  0.00    +0.292 HD
ENDBRANCH  10  16
ENDBRANCH   1  13
BRANCH   5  18
ATOM     18  O   UNL     1       3.982  -7.709  24.054  0.00  0.00    -0.507 OA
ATOM     19  H   UNL     1       3.568  -7.724  23.175  0.00  0.00    +0.292 HD
ENDBRANCH   5  18
TORSDOF 3
ENDMDL
MODEL 2
REMARK VINA RESULT:      -6.4      1.930      7.254
REMARK  Name = 
REMARK  3 active torsions:
REMARK  status: ('A' for Active; 'I' for Inactive)
REMARK    1  A    between atoms: O_1  and  C_2
REMARK    2  A    between atoms: C_5  and  C_8
REMARK    3  A    between atoms: C_14  and  O_15
REMARK                            x       y       z     vdW  Elec       q    Type
REMARK                         _______ _______ _______ _____ _____    ______ ____
ROOT
ATOM      1  C   UNL     1       8.160  -2.524  24.720  0.00  0.00    +0.020 A 
ATOM      2  S   UNL     1       7.903  -2.069  23.086  0.00  0.00    -0.088 S 
ATOM      3  C   UNL     1       8.887  -0.670  23.208  0.00  0.00    +0.023 A 
ATOM      4  C   UNL     1       9.156   0.259  22.184  0.00  0.00    +0.061 A 
ATOM      5  C   UNL     1       9.970   1.346  22.481  0.00  0.00    +0.118 A 
ATOM      6  C   UNL     1      10.511   1.520  23.745  0.00  0.00    +0.046 A 
ATOM      7  C   UNL     1      10.244   0.588  24.753  0.00  0.00    +0.012 A 
ATOM      8  C   UNL     1       9.417  -0.533  24.491  0.00  0.00    -0.010 A 
ATOM      9  C   UNL     1       8.993  -1.612  25.344  0.00  0.00    +0.024 A 
ENDROOT
BRANCH   1  13
ATOM     10  C   UNL     1       6.096  -5.882  26.405  0.00  0.00    +0.117 A 
ATOM     11  C   UNL     1       5.867  -5.533  25.082  0.00  0.00    +0.046 A 
ATOM     12  C   UNL     1       6.561  -4.459  24.520  0.00  0.00    +0.012 A 
ATOM     13  C   UNL     1       7.482  -3.712  25.275  0.00  0.00    -0.011 A 
ATOM     14  C   UNL     1       7.720  -4.110  26.602  0.00  0.00    +0.012 A 
ATOM     15  C   UNL     1       7.028  -5.190  27.167  0.00  0.00    +0.046 A 
BRANCH  10  16
ATOM     16  O   UNL     1       5.371  -6.912  26.924  0.00  0.00    -0.507 OA
ATOM     17  H   UNL     1       5.078  -7.486  26.195  0.00  0.00    +0.292 HD
ENDBRANCH  10  16
ENDBRANCH   1  13
BRANCH   5  18
ATOM     18  O   UNL     1      10.262   2.285  21.531  0.00  0.00    -0.507 OA
ATOM     19  H   UNL     1       9.640   2.183  20.792  0.00  0.00    +0.292 HD
ENDBRANCH   5  18
TORSDOF 3
ENDMDL
MODEL 3
REMARK VINA RESULT:      -6.3      1.801      2.330
REMARK  Name = 
REMARK  3 active torsions:
REMARK  status: ('A' for Active; 'I' for Inactive)
REMARK    1  A    between atoms: O_1  and  C_2
REMARK    2  A    between atoms: C_5  and  C_8
REMARK    3  A    between atoms: C_14  and  O_15
REMARK                            x       y       z     vdW  Elec       q    Type
REMARK                         _______ _______ _______ _____ _____    ______ ____
ROOT
ATOM      1  C   UNL     1       8.095  -1.578  22.902  0.00  0.00    +0.020 A 
ATOM      2  S   UNL     1       6.392  -1.541  23.105  0.00  0.00    -0.088 S 
ATOM      3  C   UNL     1       6.217  -3.227  22.851  0.00  0.00    +0.023 A 
ATOM      4  C   UNL     1       5.013  -3.959  22.869  0.00  0.00    +0.061 A 
ATOM      5  C   UNL     1       5.071  -5.326  22.625  0.00  0.00    +0.118 A 
ATOM      6  C   UNL     1       6.275  -5.964  22.373  0.00  0.00    +0.046 A 
ATOM      7  C   UNL     1       7.466  -5.231  22.364  0.00  0.00    +0.012 A 
ATOM      8  C   UNL     1       7.449  -3.835  22.607  0.00  0.00    -0.010 A 
ATOM      9  C   UNL     1       8.518  -2.872  22.647  0.00  0.00    +0.024 A 
ENDROOT
BRANCH   1  13
ATOM     10  C   UNL     1      10.237   2.132  23.054  0.00  0.00    +0.117 A 
ATOM     11  C   UNL     1      10.021   1.420  24.224  0.00  0.00    +0.046 A 
ATOM     12  C   UNL     1       9.351   0.195  24.175  0.00  0.00    +0.012 A 
ATOM     13  C   UNL     1       8.877  -0.327  22.959  0.00  0.00    -0.011 A 
ATOM     14  C   UNL     1       9.142   0.399  21.784  0.00  0.00    +0.012 A 
ATOM     15  C   UNL     1       9.816   1.626  21.831  0.00  0.00    +0.046 A 
BRANCH  10  16
ATOM     16  O   UNL     1      10.861   3.339  23.152  0.00  0.00    -0.507 OA
ATOM     17  H   UNL     1      10.208   4.041  22.994  0.00  0.00    +0.292 HD
ENDBRANCH  10  16
ENDBRANCH   1  13
BRANCH   5  18
ATOM     18  O   UNL     1       3.936  -6.088  22.622  0.00  0.00    -0.507 OA
ATOM     19  H   UNL     1       3.729  -6.334  21.705  0.00  0.00    +0.292 HD
ENDBRANCH   5  18
TORSDOF 3
ENDMDL
MODEL 4
REMARK VINA RESULT:      -6.2      3.086      7.722
REMARK  Name = 
REMARK  3 active torsions:
REMARK  status: ('A' for Active; 'I' for Inactive)
REMARK    1  A    between atoms: O_1  and  C_2
REMARK    2  A    between atoms: C_5  and  C_8
REMARK    3  A    between atoms: C_14  and  O_15
REMARK                            x       y       z     vdW  Elec       q    Type
REMARK                         _______ _______ _______ _____ _____    ______ ____
ROOT
ATOM      1  C   UNL     1       8.708  -1.625  24.817  0.00  0.00    +0.020 A 
ATOM      2  S   UNL     1       9.111  -0.213  25.703  0.00  0.00    -0.088 S 
ATOM      3  C   UNL     1       9.519   0.682  24.298  0.00  0.00    +0.023 A 
ATOM      4  C   UNL     1       9.971   2.016  24.255  0.00  0.00    +0.061 A 
ATOM      5  C   UNL     1      10.268   2.568  23.014  0.00  0.00    +0.118 A 
ATOM      6  C   UNL     1      10.124   1.838  21.845  0.00  0.00    +0.046 A 
ATOM      7  C   UNL     1       9.668   0.516  21.898  0.00  0.00    +0.012 A 
ATOM      8  C   UNL     1       9.356  -0.083  23.144  0.00  0.00    -0.010 A 
ATOM      9  C   UNL     1       8.882  -1.405  23.461  0.00  0.00    +0.024 A 
ENDROOT
BRANCH   1  13
ATOM     10  C   UNL     1       7.632  -5.169  26.975  0.00  0.00    +0.117 A 
ATOM     11  C   UNL     1       6.850  -4.031  27.099  0.00  0.00    +0.046 A 
ATOM     12  C   UNL     1       7.179  -2.883  26.373  0.00  0.00    +0.012 A 
ATOM     13  C   UNL     1       8.300  -2.855  25.525  0.00  0.00    -0.011 A 
ATOM     14  C   UNL     1       9.054  -4.034  25.393  0.00  0.00    +0.012 A 
ATOM     15  C   UNL     1       8.724  -5.188  26.117  0.00  0.00    +0.046 A 
BRANCH  10  16
ATOM     16  O   UNL     1       7.298  -6.253  27.730  0.00  0.00    -0.507 OA
ATOM     17  H   UNL     1       7.080  -5.953  28.628  0.00  0.00    +0.292 HD
ENDBRANCH  10  16
ENDBRANCH   1  13
BRANCH   5  18
ATOM     18  O   UNL     1      10.717   3.854  22.907  0.00  0.00    -0.507 OA
ATOM     19  H   UNL     1      11.522   3.948  23.443  0.00  0.00    +0.292 HD
ENDBRANCH   5  18
TORSDOF 3
ENDMDL
MODEL 5
REMARK VINA RESULT:      -6.2      1.133      7.099
REMARK  Name = 
REMARK  3 active torsions:
REMARK  status: ('A' for Active; 'I' for Inactive)
REMARK    1  A    between atoms: O_1  and  C_2
REMARK    2  A    between atoms: C_5  and  C_8
REMARK    3  A    between atoms: C_14  and  O_15
REMARK                            x       y       z     vdW  Elec       q    Type
REMARK                         _______ _______ _______ _____ _____    ______ ____
ROOT
ATOM      1  C   UNL     1       7.181  -2.540  22.913  0.00  0.00    +0.020 A 
ATOM      2  S   UNL     1       6.484  -1.113  23.560  0.00  0.00    -0.088 S 
ATOM      3  C   UNL     1       7.725  -0.100  22.949  0.00  0.00    +0.023 A 
ATOM      4  C   UNL     1       7.822   1.297  23.105  0.00  0.00    +0.061 A 
ATOM      5  C   UNL     1       8.918   1.945  22.547  0.00  0.00    +0.118 A 
ATOM      6  C   UNL     1       9.893   1.248  21.851  0.00  0.00    +0.046 A 
ATOM      7  C   UNL     1       9.784  -0.138  21.695  0.00  0.00    +0.012 A 
ATOM      8  C   UNL     1       8.682  -0.836  22.251  0.00  0.00    -0.010 A 
ATOM      9  C   UNL     1       8.349  -2.236  22.234  0.00  0.00    +0.024 A 
ENDROOT
BRANCH   1  13
ATOM     10  C   UNL     1       5.226  -6.282  23.652  0.00  0.00    +0.117 A 
ATOM     11  C   UNL     1       5.627  -5.964  22.363  0.00  0.00    +0.046 A 
ATOM     12  C   UNL     1       6.292  -4.759  22.123  0.00  0.00    +0.012 A 
ATOM     13  C   UNL     1       6.554  -3.853  23.164  0.00  0.00    -0.011 A 
ATOM     14  C   UNL     1       6.168  -4.218  24.466  0.00  0.00    +0.012 A 
ATOM     15  C   UNL     1       5.504  -5.427  24.710  0.00  0.00    +0.046 A 
BRANCH  10  16
ATOM     16  O   UNL     1       4.547  -7.450  23.835  0.00  0.00    -0.507 OA
ATOM     17  H   UNL     1       4.646  -7.996  23.037  0.00  0.00    +0.292 HD
ENDBRANCH  10  16
ENDBRANCH   1  13
BRANCH   5  18
ATOM     18  O   UNL     1       9.071   3.298  22.670  0.00  0.00    -0.507 OA
ATOM     19  H   UNL     1       9.946   3.544  22.327  0.00  0.00    +0.292 HD
ENDBRANCH   5  18
TORSDOF 3
ENDMDL
MODEL 6
REMARK VINA RESULT:      -6.2      2.190      7.148
REMARK  Name = 
REMARK  3 active torsions:
REMARK  status: ('A' for Active; 'I' for Inactive)
REMARK    1  A    between atoms: O_1  and  C_2
REMARK    2  A    between atoms: C_5  and  C_8
REMARK    3  A    between atoms: C_14  and  O_15
REMARK                            x       y       z     vdW  Elec       q    Type
REMARK                         _______ _______ _______ _____ _____    ______ ____
ROOT
ATOM      1  C   UNL     1       8.174  -1.664  23.062  0.00  0.00    +0.020 A 
ATOM      2  S   UNL     1       9.266  -1.013  21.912  0.00  0.00    -0.088 S 
ATOM      3  C   UNL     1       9.427   0.476  22.748  0.00  0.00    +0.023 A 
ATOM      4  C   UNL     1      10.219   1.575  22.360  0.00  0.00    +0.061 A 
ATOM      5  C   UNL     1      10.207   2.709  23.165  0.00  0.00    +0.118 A 
ATOM      6  C   UNL     1       9.444   2.767  24.320  0.00  0.00    +0.046 A 
ATOM      7  C   UNL     1       8.666   1.668  24.700  0.00  0.00    +0.012 A 
ATOM      8  C   UNL     1       8.650   0.494  23.906  0.00  0.00    -0.010 A 
ATOM      9  C   UNL     1       7.942  -0.748  24.074  0.00  0.00    +0.024 A 
ENDROOT
BRANCH   1  13
ATOM     10  C   UNL     1       6.555  -5.565  22.332  0.00  0.00    +0.117 A 
ATOM     11  C   UNL     1       7.590  -5.415  23.242  0.00  0.00    +0.046 A 
ATOM     12  C   UNL     1       8.099  -4.141  23.507  0.00  0.00    +0.012 A 
ATOM     13  C   UNL     1       7.590  -3.004  22.856  0.00  0.00    -0.011 A 
ATOM     14  C   UNL     1       6.517  -3.182  21.965  0.00  0.00    +0.012 A 
ATOM     15  C   UNL     1       6.002  -4.459  21.700  0.00  0.00    +0.046 A 
BRANCH  10  16
ATOM     16  O   UNL     1       6.113  -6.829  22.076  0.00  0.00    -0.507 OA
ATOM     17  H   UNL     1       6.127  -7.338  22.903  0.00  0.00    +0.292 HD
ENDBRANCH  10  16
ENDBRANCH   1  13
BRANCH   5  18
ATOM     18  O   UNL     1      10.949   3.810  22.838  0.00  0.00    -0.507 OA
ATOM     19  H   UNL     1      11.375   4.147  23.644  0.00  0.00    +0.292 HD
ENDBRANCH   5  18
TORSDOF 3
ENDMDL
MODEL 7
REMARK VINA RESULT:      -6.1      1.793      2.360
REMARK  Name = 
REMARK  3 active torsions:
REMARK  status: ('A' for Active; 'I' for Inactive)
REMARK    1  A    between atoms: O_1  and  C_2
REMARK    2  A    between atoms: C_5  and  C_8
REMARK    3  A    between atoms: C_14  and  O_15
REMARK                            x       y       z     vdW  Elec       q    Type
REMARK                         _______ _______ _______ _____ _____    ______ ____
ROOT
ATOM      1  C   UNL     1       7.827  -0.916  22.919  0.00  0.00    +0.020 A 
ATOM      2  S   UNL     1       8.553  -2.297  22.206  0.00  0.00    -0.088 S 
ATOM      3  C   UNL     1       7.210  -3.309  22.543  0.00  0.00    +0.023 A 
ATOM      4  C   UNL     1       7.089  -4.677  22.224  0.00  0.00    +0.061 A 
ATOM      5  C   UNL     1       5.923  -5.336  22.596  0.00  0.00    +0.118 A 
ATOM      6  C   UNL     1       4.900  -4.677  23.257  0.00  0.00    +0.046 A 
ATOM      7  C   UNL     1       5.026  -3.318  23.562  0.00  0.00    +0.012 A 
ATOM      8  C   UNL     1       6.200  -2.610  23.203  0.00  0.00    -0.010 A 
ATOM      9  C   UNL     1       6.570  -1.234  23.404  0.00  0.00    +0.024 A 
ENDROOT
BRANCH   1  13
ATOM     10  C   UNL     1      10.086   2.715  23.216  0.00  0.00    +0.117 A 
ATOM     11  C   UNL     1      10.137   1.973  22.045  0.00  0.00    +0.046 A 
ATOM     12  C   UNL     1       9.378   0.806  21.933  0.00  0.00    +0.012 A 
ATOM     13  C   UNL     1       8.568   0.358  22.992  0.00  0.00    -0.011 A 
ATOM     14  C   UNL     1       8.509   1.150  24.153  0.00  0.00    +0.012 A 
ATOM     15  C   UNL     1       9.267   2.323  24.267  0.00  0.00    +0.046 A 
BRANCH  10  16
ATOM     16  O   UNL     1      10.870   3.826  23.297  0.00  0.00    -0.507 OA
ATOM     17  H   UNL     1      10.465   4.449  23.923  0.00  0.00    +0.292 HD
ENDBRANCH  10  16
ENDBRANCH   1  13
BRANCH   5  18
ATOM     18  O   UNL     1       5.750  -6.664  22.321  0.00  0.00    -0.507 OA
ATOM     19  H   UNL     1       5.464  -6.755  21.397  0.00  0.00    +0.292 HD
ENDBRANCH   5  18
TORSDOF 3
ENDMDL
MODEL 8
REMARK VINA RESULT:      -6.1      3.684      8.037
REMARK  Name = 
REMARK  3 active torsions:
REMARK  status: ('A' for Active; 'I' for Inactive)
REMARK    1  A    between atoms: O_1  and  C_2
REMARK    2  A    between atoms: C_5  and  C_8
REMARK    3  A    between atoms: C_14  and  O_15
REMARK                            x       y       z     vdW  Elec       q    Type
REMARK                         _______ _______ _______ _____ _____    ______ ____
ROOT
ATOM      1  C   UNL     1       9.172  -0.370  24.961  0.00  0.00    +0.020 A 
ATOM      2  S   UNL     1      10.536   0.147  24.059  0.00  0.00    -0.088 S 
ATOM      3  C   UNL     1      10.072   1.797  24.101  0.00  0.00    +0.023 A 
ATOM      4  C   UNL     1      10.765   2.879  23.521  0.00  0.00    +0.061 A 
ATOM      5  C   UNL     1      10.220   4.152  23.649  0.00  0.00    +0.118 A 
ATOM      6  C   UNL     1       9.030   4.364  24.327  0.00  0.00    +0.046 A 
ATOM      7  C   UNL     1       8.354   3.284  24.905  0.00  0.00    +0.012 A 
ATOM      8  C   UNL     1       8.876   1.971  24.796  0.00  0.00    -0.010 A 
ATOM      9  C   UNL     1       8.377   0.714  25.289  0.00  0.00    +0.024 A 
ENDROOT
BRANCH   1  13
ATOM     10  C   UNL     1       8.705  -4.549  25.796  0.00  0.00    +0.117 A 
ATOM     11  C   UNL     1       8.163  -3.614  26.665  0.00  0.00    +0.046 A 
ATOM     12  C   UNL     1       8.285  -2.252  26.380  0.00  0.00    +0.012 A 
ATOM     13  C   UNL     1       8.962  -1.806  25.231  0.00  0.00    -0.011 A 
ATOM     14  C   UNL     1       9.471  -2.777  24.351  0.00  0.00    +0.012 A 
ATOM     15  C   UNL     1       9.346  -4.144  24.632  0.00  0.00    +0.046 A 
BRANCH  10  16
ATOM     16  O   UNL     1       8.596  -5.865  26.131  0.00  0.00    -0.507 OA
ATOM     17  H   UNL     1       8.010  -6.302  25.491  0.00  0.00    +0.292 HD
ENDBRANCH  10  16
ENDBRANCH   1  13
BRANCH   5  18
ATOM     18  O   UNL     1      10.841   5.240  23.102  0.00  0.00    -0.507 OA
ATOM     19  H   UNL     1      10.163   5.861  22.791  0.00  0.00    +0.292 HD
ENDBRANCH   5  18
TORSDOF 3
ENDMDL
MODEL 9
REMARK VINA RESULT:      -6.0      1.492      7.109
REMARK  Name = 
REMARK  3 active torsions:
REMARK  status: ('A' for Active; 'I' for Inactive)
REMARK    1  A    between atoms: O_1  and  C_2
REMARK    2  A    between atoms: C_5  and  C_8
REMARK    3  A    between atoms: C_14  and  O_15
REMARK                            x       y       z     vdW  Elec       q    Type
REMARK                         _______ _______ _______ _____ _____    ______ ____
ROOT
ATOM      1  C   UNL     1       7.183  -3.029  24.333  0.00  0.00    +0.020 A 
ATOM      2  S   UNL     1       6.438  -1.485  24.264  0.00  0.00    -0.088 S 
ATOM      3  C   UNL     1       7.634  -0.836  23.221  0.00  0.00    +0.023 A 
ATOM      4  C   UNL     1       7.679   0.476  22.709  0.00  0.00    +0.061 A 
ATOM      5  C   UNL     1       8.744   0.824  21.886  0.00  0.00    +0.118 A 
ATOM      6  C   UNL     1       9.737  -0.088  21.566  0.00  0.00    +0.046 A 
ATOM      7  C   UNL     1       9.679  -1.391  22.073  0.00  0.00    +0.012 A 
ATOM      8  C   UNL     1       8.611  -1.783  22.917  0.00  0.00    -0.010 A 
ATOM      9  C   UNL     1       8.331  -3.040  23.560  0.00  0.00    +0.024 A 
ENDROOT
BRANCH   1  13
ATOM     10  C   UNL     1       5.614  -6.216  26.732  0.00  0.00    +0.117 A 
ATOM     11  C   UNL     1       6.475  -5.292  27.303  0.00  0.00    +0.046 A 
ATOM     12  C   UNL     1       6.964  -4.234  26.533  0.00  0.00    +0.012 A 
ATOM     13  C   UNL     1       6.609  -4.093  25.180  0.00  0.00    -0.011 A 
ATOM     14  C   UNL     1       5.707  -5.025  24.638  0.00  0.00    +0.012 A 
ATOM     15  C   UNL     1       5.212  -6.085  25.409  0.00  0.00    +0.046 A 
BRANCH  10  16
ATOM     16  O   UNL     1       5.191  -7.254  27.508  0.00  0.00    -0.507 OA
ATOM     17  H   UNL     1       5.543  -8.082  27.140  0.00  0.00    +0.292 HD
ENDBRANCH  10  16
ENDBRANCH   1  13
BRANCH   5  18
ATOM     18  O   UNL     1       8.846   2.083  21.364  0.00  0.00    -0.507 OA
ATOM     19  H   UNL     1       9.655   2.132  20.828  0.00  0.00    +0.292 HD
ENDBRANCH   5  18
TORSDOF 3
ENDMDL
