MODEL 1
REMARK VINA RESULT:      -5.7      0.000      0.000
REMARK  Name = 
REMARK  9 active torsions:
REMARK  status: ('A' for Active; 'I' for Inactive)
REMARK    1  A    between atoms: C_1  and  C_2
REMARK    2  A    between atoms: C_5  and  S_8
REMARK    3  A    between atoms: S_8  and  N_11
REMARK    4  A    between atoms: N_11  and  C_12
REMARK    5  A    between atoms: C_12  and  C_13
REMARK    6  A    between atoms: C_13  and  C_14
REMARK    7  A    between atoms: C_14  and  O_15
REMARK    8  A    between atoms: O_15  and  C_16
REMARK    9  A    between atoms: N_18  and  C_19
REMARK                            x       y       z     vdW  Elec       q    Type
REMARK                         _______ _______ _______ _____ _____    ______ ____
ROOT
ATOM      1  C   UNL     1       7.561  -3.476  25.023  0.00  0.00    +0.109 C 
ENDROOT
BRANCH   1   2
ATOM      2  N   UNL     1       8.155  -2.192  24.627  0.00  0.00    -0.190 NA
ATOM      3  H   UNL     1       7.513  -1.402  24.551  0.00  0.00    +0.148 HD
BRANCH   2   4
ATOM      4  S   UNL     1       9.243  -2.228  23.330  0.00  0.00    +0.058 S 
ATOM      5  O   UNL     1      10.337  -3.084  23.734  0.00  0.00    -0.153 OA
ATOM      6  O   UNL     1       8.499  -2.463  22.114  0.00  0.00    -0.153 OA
BRANCH   4  11
ATOM      7  C   UNL     1      10.893   3.613  23.287  0.00  0.00    +0.044 C 
ATOM      8  C   UNL     1      10.585   2.144  23.267  0.00  0.00    -0.050 A 
ATOM      9  C   UNL     1      10.703   1.388  24.443  0.00  0.00    +0.005 A 
ATOM     10  C   UNL     1      10.333   0.041  24.461  0.00  0.00    +0.029 A 
ATOM     11  C   UNL     1       9.860  -0.558  23.291  0.00  0.00    +0.105 A 
ATOM     12  C   UNL     1       9.761   0.178  22.106  0.00  0.00    +0.029 A 
ATOM     13  C   UNL     1      10.126   1.525  22.097  0.00  0.00    +0.005 A 
ENDBRANCH   4  11
ENDBRANCH   2   4
ENDBRANCH   1   2
BRANCH   1  14
ATOM     14  C   UNL     1       6.097  -3.528  24.605  0.00  0.00    +0.058 C 
BRANCH  14  15
ATOM     15  C   UNL     1       5.600  -2.120  24.282  0.00  0.00    +0.235 C 
BRANCH  15  16
ATOM     16  O   UNL     1       5.493  -1.323  25.477  0.00  0.00    -0.450 OA
BRANCH  16  17
ATOM     17  C   UNL     1       5.441   0.019  25.239  0.00  0.00    +0.405 C 
ATOM     18  N   UNL     1       6.499   0.379  24.456  0.00  0.00    -0.251 N 
ATOM     19  H   UNL     1       7.139  -0.371  24.237  0.00  0.00    +0.158 HD
ATOM     20  O   UNL     1       4.557   0.736  25.679  0.00  0.00    -0.226 OA
BRANCH  18  21
ATOM     21  C   UNL     1       6.752   1.664  23.929  0.00  0.00    +0.039 A 
ATOM     22  C   UNL     1       6.535   1.875  22.569  0.00  0.00    +0.043 A 
ATOM     23  C   UNL     1       6.759   3.143  22.053  0.00  0.00    +0.112 A 
ATOM     24  N   UNL     1       7.176   4.193  22.790  0.00  0.00    -0.263 NA
ATOM     25  C   UNL     1       7.384   3.962  24.102  0.00  0.00    +0.112 A 
ATOM     26  C   UNL     1       7.191   2.733  24.707  0.00  0.00    +0.043 A 
ENDBRANCH  18  21
ENDBRANCH  16  17
ENDBRANCH  15  16
ENDBRANCH  14  15
ENDBRANCH   1  14
TORSDOF 8
ENDMDL
MODEL 2
REMARK VINA RESULT:      -5.6      3.389      6.757
REMARK  Name = 
REMARK  9 active torsions:
REMARK  status: ('A' for Active; 'I' for Inactive)
REMARK    1  A    between atoms: C_1  and  C_2
REMARK    2  A    between atoms: C_5  and  S_8
REMARK    3  A    between atoms: S_8  and  N_11
REMARK    4  A    between atoms: N_11  and  C_12
REMARK    5  A    between atoms: C_12  and  C_13
REMARK    6  A    between atoms: C_13  and  C_14
REMARK    7  A    between atoms: C_14  and  O_15
REMARK    8  A    between atoms: O_15  and  C_16
REMARK    9  A    between atoms: N_18  and  C_19
REMARK                            x       y       z     vdW  Elec       q    Type
REMARK                         _______ _______ _______ _____ _____    ______ ____
ROOT
ATOM      1  C   UNL     1       7.961  -4.942  26.781  0.00  0.00    +0.109 C 
ENDROOT
BRANCH   1   2
ATOM      2  N   UNL     1       7.590  -6.050  27.669  0.00  0.00    -0.190 NA
ATOM      3  H   UNL     1       7.888  -6.982  27.378  0.00  0.00    +0.148 HD
BRANCH   2   4
ATOM      4  S   UNL     1       5.995  -6.065  28.238  0.00  0.00    +0.058 S 
ATOM      5  O   UNL     1       5.716  -7.425  28.646  0.00  0.00    -0.153 OA
ATOM      6  O   UNL     1       5.819  -4.948  29.137  0.00  0.00    -0.153 OA
BRANCH   4  11
ATOM      7  C   UNL     1       2.398  -5.208  23.425  0.00  0.00    +0.044 C 
ATOM      8  C   UNL     1       3.369  -5.379  24.557  0.00  0.00    -0.050 A 
ATOM      9  C   UNL     1       3.490  -4.377  25.532  0.00  0.00    +0.005 A 
ATOM     10  C   UNL     1       4.321  -4.562  26.640  0.00  0.00    +0.029 A 
ATOM     11  C   UNL     1       5.050  -5.748  26.763  0.00  0.00    +0.105 A 
ATOM     12  C   UNL     1       4.957  -6.743  25.786  0.00  0.00    +0.029 A 
ATOM     13  C   UNL     1       4.118  -6.555  24.686  0.00  0.00    +0.005 A 
ENDBRANCH   4  11
ENDBRANCH   2   4
ENDBRANCH   1   2
BRANCH   1  14
ATOM     14  C   UNL     1       8.779  -5.461  25.606  0.00  0.00    +0.058 C 
BRANCH  14  15
ATOM     15  C   UNL     1       8.540  -4.582  24.380  0.00  0.00    +0.235 C 
BRANCH  15  16
ATOM     16  O   UNL     1       9.672  -3.729  24.126  0.00  0.00    -0.450 OA
BRANCH  16  17
ATOM     17  C   UNL     1       9.388  -2.398  24.215  0.00  0.00    +0.405 C 
ATOM     18  N   UNL     1      10.260  -1.698  23.431  0.00  0.00    -0.251 N 
ATOM     19  H   UNL     1      10.967  -2.260  22.978  0.00  0.00    +0.158 HD
ATOM     20  O   UNL     1       8.479  -1.959  24.900  0.00  0.00    -0.226 OA
BRANCH  18  21
ATOM     21  C   UNL     1      10.242  -0.307  23.195  0.00  0.00    +0.039 A 
ATOM     22  C   UNL     1      10.721   0.538  24.194  0.00  0.00    +0.043 A 
ATOM     23  C   UNL     1      10.729   1.904  23.955  0.00  0.00    +0.112 A 
ATOM     24  N   UNL     1      10.300   2.472  22.808  0.00  0.00    -0.263 NA
ATOM     25  C   UNL     1       9.837   1.633  21.860  0.00  0.00    +0.112 A 
ATOM     26  C   UNL     1       9.786   0.258  22.006  0.00  0.00    +0.043 A 
ENDBRANCH  18  21
ENDBRANCH  16  17
ENDBRANCH  15  16
ENDBRANCH  14  15
ENDBRANCH   1  14
TORSDOF 8
ENDMDL
MODEL 3
REMARK VINA RESULT:      -5.5      2.958      5.391
REMARK  Name = 
REMARK  9 active torsions:
REMARK  status: ('A' for Active; 'I' for Inactive)
REMARK    1  A    between atoms: C_1  and  C_2
REMARK    2  A    between atoms: C_5  and  S_8
REMARK    3  A    between atoms: S_8  and  N_11
REMARK    4  A    between atoms: N_11  and  C_12
REMARK    5  A    between atoms: C_12  and  C_13
REMARK    6  A    between atoms: C_13  and  C_14
REMARK    7  A    between atoms: C_14  and  O_15
REMARK    8  A    between atoms: O_15  and  C_16
REMARK    9  A    between atoms: N_18  and  C_19
REMARK                            x       y       z     vdW  Elec       q    Type
REMARK                         _______ _______ _______ _____ _____    ______ ____
ROOT
ATOM      1  C   UNL     1       4.827  -3.911  27.825  0.00  0.00    +0.109 C 
ENDROOT
BRANCH   1   2
ATOM      2  N   UNL     1       6.215  -3.742  27.378  0.00  0.00    -0.190 NA
ATOM      3  H   UNL     1       6.391  -2.972  26.732  0.00  0.00    +0.148 HD
BRANCH   2   4
ATOM      4  S   UNL     1       7.035  -5.144  26.901  0.00  0.00    +0.058 S 
ATOM      5  O   UNL     1       8.446  -4.880  27.087  0.00  0.00    -0.153 OA
ATOM      6  O   UNL     1       6.386  -6.283  27.507  0.00  0.00    -0.153 OA
BRANCH   4  11
ATOM      7  C   UNL     1       6.208  -5.768  20.920  0.00  0.00    +0.044 C 
ATOM      8  C   UNL     1       6.375  -5.513  22.391  0.00  0.00    -0.050 A 
ATOM      9  C   UNL     1       5.352  -5.867  23.283  0.00  0.00    +0.005 A 
ATOM     10  C   UNL     1       5.530  -5.721  24.661  0.00  0.00    +0.029 A 
ATOM     11  C   UNL     1       6.731  -5.198  25.148  0.00  0.00    +0.105 A 
ATOM     12  C   UNL     1       7.749  -4.818  24.267  0.00  0.00    +0.029 A 
ATOM     13  C   UNL     1       7.567  -4.975  22.892  0.00  0.00    +0.005 A 
ENDBRANCH   4  11
ENDBRANCH   2   4
ENDBRANCH   1   2
BRANCH   1  14
ATOM     14  C   UNL     1       3.873  -3.260  26.833  0.00  0.00    +0.058 C 
BRANCH  14  15
ATOM     15  C   UNL     1       4.453  -1.931  26.353  0.00  0.00    +0.235 C 
BRANCH  15  16
ATOM     16  O   UNL     1       4.832  -2.002  24.965  0.00  0.00    -0.450 OA
BRANCH  16  17
ATOM     17  C   UNL     1       6.098  -1.562  24.718  0.00  0.00    +0.405 C 
ATOM     18  N   UNL     1       6.209  -1.226  23.400  0.00  0.00    -0.251 N 
ATOM     19  H   UNL     1       5.382  -1.401  22.847  0.00  0.00    +0.158 HD
ATOM     20  O   UNL     1       6.957  -1.494  25.582  0.00  0.00    -0.226 OA
BRANCH  18  21
ATOM     21  C   UNL     1       7.339  -0.657  22.772  0.00  0.00    +0.039 A 
ATOM     22  C   UNL     1       7.363   0.723  22.583  0.00  0.00    +0.043 A 
ATOM     23  C   UNL     1       8.482   1.289  21.990  0.00  0.00    +0.112 A 
ATOM     24  N   UNL     1       9.556   0.582  21.581  0.00  0.00    -0.263 NA
ATOM     25  C   UNL     1       9.506  -0.751  21.771  0.00  0.00    +0.112 A 
ATOM     26  C   UNL     1       8.434  -1.407  22.350  0.00  0.00    +0.043 A 
ENDBRANCH  18  21
ENDBRANCH  16  17
ENDBRANCH  15  16
ENDBRANCH  14  15
ENDBRANCH   1  14
TORSDOF 8
ENDMDL
MODEL 4
REMARK VINA RESULT:      -5.4      3.283      4.781
REMARK  Name = 
REMARK  9 active torsions:
REMARK  status: ('A' for Active; 'I' for Inactive)
REMARK    1  A    between atoms: C_1  and  C_2
REMARK    2  A    between atoms: C_5  and  S_8
REMARK    3  A    between atoms: S_8  and  N_11
REMARK    4  A    between atoms: N_11  and  C_12
REMARK    5  A    between atoms: C_12  and  C_13
REMARK    6  A    between atoms: C_13  and  C_14
REMARK    7  A    between atoms: C_14  and  O_15
REMARK    8  A    between atoms: O_15  and  C_16
REMARK    9  A    between atoms: N_18  and  C_19
REMARK                            x       y       z     vdW  Elec       q    Type
REMARK                         _______ _______ _______ _____ _____    ______ ____
ROOT
ATOM      1  C   UNL     1       4.382  -6.035  23.433  0.00  0.00    +0.109 C 
ENDROOT
BRANCH   1   2
ATOM      2  N   UNL     1       5.269  -4.876  23.592  0.00  0.00    -0.190 NA
ATOM      3  H   UNL     1       4.824  -4.002  23.874  0.00  0.00    +0.148 HD
BRANCH   2   4
ATOM      4  S   UNL     1       6.407  -4.619  22.365  0.00  0.00    +0.058 S 
ATOM      5  O   UNL     1       7.462  -5.588  22.573  0.00  0.00    -0.153 OA
ATOM      6  O   UNL     1       5.708  -4.510  21.106  0.00  0.00    -0.153 OA
BRANCH   4  11
ATOM      7  C   UNL     1       8.637   0.951  23.288  0.00  0.00    +0.044 C 
ATOM      8  C   UNL     1       8.104  -0.447  23.164  0.00  0.00    -0.050 A 
ATOM      9  C   UNL     1       6.730  -0.688  23.312  0.00  0.00    +0.005 A 
ATOM     10  C   UNL     1       6.208  -1.968  23.109  0.00  0.00    +0.029 A 
ATOM     11  C   UNL     1       7.069  -3.017  22.775  0.00  0.00    +0.105 A 
ATOM     12  C   UNL     1       8.444  -2.795  22.649  0.00  0.00    +0.029 A 
ATOM     13  C   UNL     1       8.957  -1.511  22.845  0.00  0.00    +0.005 A 
ENDBRANCH   4  11
ENDBRANCH   2   4
ENDBRANCH   1   2
BRANCH   1  14
ATOM     14  C   UNL     1       4.545  -6.986  24.613  0.00  0.00    +0.058 C 
BRANCH  14  15
ATOM     15  C   UNL     1       4.802  -6.187  25.889  0.00  0.00    +0.235 C 
BRANCH  15  16
ATOM     16  O   UNL     1       6.180  -6.290  26.296  0.00  0.00    -0.450 OA
BRANCH  16  17
ATOM     17  C   UNL     1       6.636  -5.198  26.972  0.00  0.00    +0.405 C 
ATOM     18  N   UNL     1       6.679  -4.129  26.124  0.00  0.00    -0.251 N 
ATOM     19  H   UNL     1       6.422  -4.335  25.169  0.00  0.00    +0.158 HD
ATOM     20  O   UNL     1       6.940  -5.228  28.153  0.00  0.00    -0.226 OA
BRANCH  18  21
ATOM     21  C   UNL     1       7.021  -2.802  26.465  0.00  0.00    +0.039 A 
ATOM     22  C   UNL     1       8.363  -2.432  26.409  0.00  0.00    +0.043 A 
ATOM     23  C   UNL     1       8.700  -1.123  26.718  0.00  0.00    +0.112 A 
ATOM     24  N   UNL     1       7.805  -0.178  27.072  0.00  0.00    -0.263 NA
ATOM     25  C   UNL     1       6.514  -0.562  27.123  0.00  0.00    +0.112 A 
ATOM     26  C   UNL     1       6.080  -1.844  26.836  0.00  0.00    +0.043 A 
ENDBRANCH  18  21
ENDBRANCH  16  17
ENDBRANCH  15  16
ENDBRANCH  14  15
ENDBRANCH   1  14
TORSDOF 8
ENDMDL
MODEL 5
REMARK VINA RESULT:      -5.3      2.905      6.008
REMARK  Name = 
REMARK  9 active torsions:
REMARK  status: ('A' for Active; 'I' for Inactive)
REMARK    1  A    between atoms: C_1  and  C_2
REMARK    2  A    between atoms: C_5  and  S_8
REMARK    3  A    between atoms: S_8  and  N_11
REMARK    4  A    between atoms: N_11  and  C_12
REMARK    5  A    between atoms: C_12  and  C_13
REMARK    6  A    between atoms: C_13  and  C_14
REMARK    7  A    between atoms: C_14  and  O_15
REMARK    8  A    between atoms: O_15  and  C_16
REMARK    9  A    between atoms: N_18  and  C_19
REMARK                            x       y       z     vdW  Elec       q    Type
REMARK                         _______ _______ _______ _____ _____    ______ ____
ROOT
ATOM      1  C   UNL     1       9.963   1.073  21.865  0.00  0.00    +0.109 C 
ENDROOT
BRANCH   1   2
ATOM      2  N   UNL     1       8.994   2.141  21.593  0.00  0.00    -0.190 NA
ATOM      3  H   UNL     1       9.188   2.733  20.784  0.00  0.00    +0.148 HD
BRANCH   2   4
ATOM      4  S   UNL     1       8.485   3.061  22.920  0.00  0.00    +0.058 S 
ATOM      5  O   UNL     1       9.684   3.565  23.555  0.00  0.00    -0.153 OA
ATOM      6  O   UNL     1       7.423   3.940  22.488  0.00  0.00    -0.153 OA
BRANCH   4  11
ATOM      7  C   UNL     1       6.328  -1.462  26.344  0.00  0.00    +0.044 C 
ATOM      8  C   UNL     1       6.800  -0.276  25.554  0.00  0.00    -0.050 A 
ATOM      9  C   UNL     1       7.971   0.397  25.934  0.00  0.00    +0.005 A 
ATOM     10  C   UNL     1       8.472   1.444  25.156  0.00  0.00    +0.029 A 
ATOM     11  C   UNL     1       7.785   1.833  24.003  0.00  0.00    +0.105 A 
ATOM     12  C   UNL     1       6.603   1.187  23.628  0.00  0.00    +0.029 A 
ATOM     13  C   UNL     1       6.114   0.137  24.405  0.00  0.00    +0.005 A 
ENDBRANCH   4  11
ENDBRANCH   2   4
ENDBRANCH   1   2
BRANCH   1  14
ATOM     14  C   UNL     1       9.380  -0.279  21.474  0.00  0.00    +0.058 C 
BRANCH  14  15
ATOM     15  C   UNL     1      10.107  -1.393  22.225  0.00  0.00    +0.235 C 
BRANCH  15  16
ATOM     16  O   UNL     1       9.503  -1.630  23.511  0.00  0.00    -0.450 OA
BRANCH  16  17
ATOM     17  C   UNL     1       8.802  -2.797  23.582  0.00  0.00    +0.405 C 
ATOM     18  N   UNL     1       7.594  -2.635  22.967  0.00  0.00    -0.251 N 
ATOM     19  H   UNL     1       7.415  -1.701  22.623  0.00  0.00    +0.158 HD
ATOM     20  O   UNL     1       9.239  -3.801  24.119  0.00  0.00    -0.226 OA
BRANCH  18  21
ATOM     21  C   UNL     1       6.617  -3.633  22.763  0.00  0.00    +0.039 A 
ATOM     22  C   UNL     1       6.924  -4.694  21.915  0.00  0.00    +0.043 A 
ATOM     23  C   UNL     1       5.976  -5.690  21.732  0.00  0.00    +0.112 A 
ATOM     24  N   UNL     1       4.765  -5.696  22.328  0.00  0.00    -0.263 NA
ATOM     25  C   UNL     1       4.490  -4.656  23.140  0.00  0.00    +0.112 A 
ATOM     26  C   UNL     1       5.369  -3.615  23.383  0.00  0.00    +0.043 A 
ENDBRANCH  18  21
ENDBRANCH  16  17
ENDBRANCH  15  16
ENDBRANCH  14  15
ENDBRANCH   1  14
TORSDOF 8
ENDMDL
MODEL 6
REMARK VINA RESULT:      -5.3      3.244      4.641
REMARK  Name = 
REMARK  9 active torsions:
REMARK  status: ('A' for Active; 'I' for Inactive)
REMARK    1  A    between atoms: C_1  and  C_2
REMARK    2  A    between atoms: C_5  and  S_8
REMARK    3  A    between atoms: S_8  and  N_11
REMARK    4  A    between atoms: N_11  and  C_12
REMARK    5  A    between atoms: C_12  and  C_13
REMARK    6  A    between atoms: C_13  and  C_14
REMARK    7  A    between atoms: C_14  and  O_15
REMARK    8  A    between atoms: O_15  and  C_16
REMARK    9  A    between atoms: N_18  and  C_19
REMARK                            x       y       z     vdW  Elec       q    Type
REMARK                         _______ _______ _______ _____ _____    ______ ____
ROOT
ATOM      1  C   UNL     1       5.674  -6.075  25.646  0.00  0.00    +0.109 C 
ENDROOT
BRANCH   1   2
ATOM      2  N   UNL     1       6.717  -5.095  25.319  0.00  0.00    -0.190 NA
ATOM      3  H   UNL     1       7.278  -5.293  24.490  0.00  0.00    +0.148 HD
BRANCH   2   4
ATOM      4  S   UNL     1       7.683  -4.557  26.601  0.00  0.00    +0.058 S 
ATOM      5  O   UNL     1       7.033  -4.996  27.818  0.00  0.00    -0.153 OA
ATOM      6  O   UNL     1       9.058  -4.888  26.309  0.00  0.00    -0.153 OA
BRANCH   4  11
ATOM      7  C   UNL     1       7.091   1.481  26.780  0.00  0.00    +0.044 C 
ATOM      8  C   UNL     1       7.222  -0.007  26.629  0.00  0.00    -0.050 A 
ATOM      9  C   UNL     1       8.490  -0.585  26.468  0.00  0.00    +0.005 A 
ATOM     10  C   UNL     1       8.636  -1.973  26.419  0.00  0.00    +0.029 A 
ATOM     11  C   UNL     1       7.504  -2.788  26.511  0.00  0.00    +0.105 A 
ATOM     12  C   UNL     1       6.232  -2.223  26.646  0.00  0.00    +0.029 A 
ATOM     13  C   UNL     1       6.095  -0.835  26.702  0.00  0.00    +0.005 A 
ENDBRANCH   4  11
ENDBRANCH   2   4
ENDBRANCH   1   2
BRANCH   1  14
ATOM     14  C   UNL     1       4.446  -5.847  24.774  0.00  0.00    +0.058 C 
BRANCH  14  15
ATOM     15  C   UNL     1       4.557  -4.497  24.068  0.00  0.00    +0.235 C 
BRANCH  15  16
ATOM     16  O   UNL     1       4.817  -4.669  22.661  0.00  0.00    -0.450 OA
BRANCH  16  17
ATOM     17  C   UNL     1       5.603  -3.693  22.125  0.00  0.00    +0.405 C 
ATOM     18  N   UNL     1       6.344  -3.115  23.116  0.00  0.00    -0.251 N 
ATOM     19  H   UNL     1       6.152  -3.462  24.045  0.00  0.00    +0.158 HD
ATOM     20  O   UNL     1       5.608  -3.425  20.934  0.00  0.00    -0.226 OA
BRANCH  18  21
ATOM     21  C   UNL     1       7.332  -2.121  22.952  0.00  0.00    +0.039 A 
ATOM     22  C   UNL     1       6.939  -0.785  22.998  0.00  0.00    +0.043 A 
ATOM     23  C   UNL     1       7.912   0.194  22.863  0.00  0.00    +0.112 A 
ATOM     24  N   UNL     1       9.224  -0.066  22.688  0.00  0.00    -0.263 NA
ATOM     25  C   UNL     1       9.578  -1.366  22.641  0.00  0.00    +0.112 A 
ATOM     26  C   UNL     1       8.682  -2.413  22.764  0.00  0.00    +0.043 A 
ENDBRANCH  18  21
ENDBRANCH  16  17
ENDBRANCH  15  16
ENDBRANCH  14  15
ENDBRANCH   1  14
TORSDOF 8
ENDMDL
MODEL 7
REMARK VINA RESULT:      -5.2      3.239      5.586
REMARK  Name = 
REMARK  9 active torsions:
REMARK  status: ('A' for Active; 'I' for Inactive)
REMARK    1  A    between atoms: C_1  and  C_2
REMARK    2  A    between atoms: C_5  and  S_8
REMARK    3  A    between atoms: S_8  and  N_11
REMARK    4  A    between atoms: N_11  and  C_12
REMARK    5  A    between atoms: C_12  and  C_13
REMARK    6  A    between atoms: C_13  and  C_14
REMARK    7  A    between atoms: C_14  and  O_15
REMARK    8  A    between atoms: O_15  and  C_16
REMARK    9  A    between atoms: N_18  and  C_19
REMARK                            x       y       z     vdW  Elec       q    Type
REMARK                         _______ _______ _______ _____ _____    ______ ____
ROOT
ATOM      1  C   UNL     1       2.629  -3.932  25.038  0.00  0.00    +0.109 C 
ENDROOT
BRANCH   1   2
ATOM      2  N   UNL     1       3.175  -5.270  25.296  0.00  0.00    -0.190 NA
ATOM      3  H   UNL     1       3.633  -5.405  26.198  0.00  0.00    +0.148 HD
BRANCH   2   4
ATOM      4  S   UNL     1       4.065  -5.981  24.043  0.00  0.00    +0.058 S 
ATOM      5  O   UNL     1       3.936  -7.413  24.209  0.00  0.00    -0.153 OA
ATOM      6  O   UNL     1       3.720  -5.323  22.805  0.00  0.00    -0.153 OA
BRANCH   4  11
ATOM      7  C   UNL     1       9.880  -4.975  25.461  0.00  0.00    +0.044 C 
ATOM      8  C   UNL     1       8.425  -5.118  25.121  0.00  0.00    -0.050 A 
ATOM      9  C   UNL     1       8.015  -5.101  23.780  0.00  0.00    +0.005 A 
ATOM     10  C   UNL     1       6.677  -5.325  23.444  0.00  0.00    +0.029 A 
ATOM     11  C   UNL     1       5.741  -5.547  24.457  0.00  0.00    +0.105 A 
ATOM     12  C   UNL     1       6.132  -5.541  25.799  0.00  0.00    +0.029 A 
ATOM     13  C   UNL     1       7.472  -5.325  26.127  0.00  0.00    +0.005 A 
ENDBRANCH   4  11
ENDBRANCH   2   4
ENDBRANCH   1   2
BRANCH   1  14
ATOM     14  C   UNL     1       2.855  -3.030  26.245  0.00  0.00    +0.058 C 
BRANCH  14  15
ATOM     15  C   UNL     1       4.217  -2.347  26.132  0.00  0.00    +0.235 C 
BRANCH  15  16
ATOM     16  O   UNL     1       4.644  -2.268  24.758  0.00  0.00    -0.450 OA
BRANCH  16  17
ATOM     17  C   UNL     1       5.946  -1.891  24.609  0.00  0.00    +0.405 C 
ATOM     18  N   UNL     1       6.161  -1.520  23.313  0.00  0.00    -0.251 N 
ATOM     19  H   UNL     1       5.364  -1.632  22.702  0.00  0.00    +0.158 HD
ATOM     20  O   UNL     1       6.748  -1.898  25.528  0.00  0.00    -0.226 OA
BRANCH  18  21
ATOM     21  C   UNL     1       7.358  -0.995  22.779  0.00  0.00    +0.039 A 
ATOM     22  C   UNL     1       7.505   0.390  22.726  0.00  0.00    +0.043 A 
ATOM     23  C   UNL     1       8.689   0.909  22.226  0.00  0.00    +0.112 A 
ATOM     24  N   UNL     1       9.717   0.154  21.785  0.00  0.00    -0.263 NA
ATOM     25  C   UNL     1       9.548  -1.182  21.842  0.00  0.00    +0.112 A 
ATOM     26  C   UNL     1       8.403  -1.794  22.321  0.00  0.00    +0.043 A 
ENDBRANCH  18  21
ENDBRANCH  16  17
ENDBRANCH  15  16
ENDBRANCH  14  15
ENDBRANCH   1  14
TORSDOF 8
ENDMDL
MODEL 8
REMARK VINA RESULT:      -5.2      2.699      5.606
REMARK  Name = 
REMARK  9 active torsions:
REMARK  status: ('A' for Active; 'I' for Inactive)
REMARK    1  A    between atoms: C_1  and  C_2
REMARK    2  A    between atoms: C_5  and  S_8
REMARK    3  A    between atoms: S_8  and  N_11
REMARK    4  A    between atoms: N_11  and  C_12
REMARK    5  A    between atoms: C_12  and  C_13
REMARK    6  A    between atoms: C_13  and  C_14
REMARK    7  A    between atoms: C_14  and  O_15
REMARK    8  A    between atoms: O_15  and  C_16
REMARK    9  A    between atoms: N_18  and  C_19
REMARK                            x       y       z     vdW  Elec       q    Type
REMARK                         _______ _______ _______ _____ _____    ______ ____
ROOT
ATOM      1  C   UNL     1       6.966   4.855  23.032  0.00  0.00    +0.109 C 
ENDROOT
BRANCH   1   2
ATOM      2  N   UNL     1       8.363   4.624  22.646  0.00  0.00    -0.190 NA
ATOM      3  H   UNL     1       8.513   4.074  21.800  0.00  0.00    +0.148 HD
BRANCH   2   4
ATOM      4  S   UNL     1       9.424   4.155  23.881  0.00  0.00    +0.058 S 
ATOM      5  O   UNL     1      10.635   4.926  23.698  0.00  0.00    -0.153 OA
ATOM      6  O   UNL     1       8.700   4.156  25.131  0.00  0.00    -0.153 OA
BRANCH   4  11
ATOM      7  C   UNL     1      10.230  -1.702  22.511  0.00  0.00    +0.044 C 
ATOM      8  C   UNL     1      10.137  -0.241  22.841  0.00  0.00    -0.050 A 
ATOM      9  C   UNL     1       9.888   0.692  21.823  0.00  0.00    +0.005 A 
ATOM     10  C   UNL     1       9.708   2.043  22.127  0.00  0.00    +0.029 A 
ATOM     11  C   UNL     1       9.798   2.468  23.456  0.00  0.00    +0.105 A 
ATOM     12  C   UNL     1      10.070   1.552  24.476  0.00  0.00    +0.029 A 
ATOM     13  C   UNL     1      10.241   0.201  24.165  0.00  0.00    +0.005 A 
ENDBRANCH   4  11
ENDBRANCH   2   4
ENDBRANCH   1   2
BRANCH   1  14
ATOM     14  C   UNL     1       6.079   3.746  22.481  0.00  0.00    +0.058 C 
BRANCH  14  15
ATOM     15  C   UNL     1       5.941   2.631  23.516  0.00  0.00    +0.235 C 
BRANCH  15  16
ATOM     16  O   UNL     1       6.504   1.399  23.027  0.00  0.00    -0.450 OA
BRANCH  16  17
ATOM     17  C   UNL     1       6.119   0.300  23.736  0.00  0.00    +0.405 C 
ATOM     18  N   UNL     1       6.607  -0.821  23.129  0.00  0.00    -0.251 N 
ATOM     19  H   UNL     1       7.108  -0.653  22.267  0.00  0.00    +0.158 HD
ATOM     20  O   UNL     1       5.446   0.368  24.752  0.00  0.00    -0.226 OA
BRANCH  18  21
ATOM     21  C   UNL     1       6.491  -2.147  23.599  0.00  0.00    +0.039 A 
ATOM     22  C   UNL     1       7.359  -2.570  24.603  0.00  0.00    +0.043 A 
ATOM     23  C   UNL     1       7.231  -3.864  25.085  0.00  0.00    +0.112 A 
ATOM     24  N   UNL     1       6.311  -4.746  24.641  0.00  0.00    -0.263 NA
ATOM     25  C   UNL     1       5.486  -4.314  23.666  0.00  0.00    +0.112 A 
ATOM     26  C   UNL     1       5.538  -3.044  23.120  0.00  0.00    +0.043 A 
ENDBRANCH  18  21
ENDBRANCH  16  17
ENDBRANCH  15  16
ENDBRANCH  14  15
ENDBRANCH   1  14
TORSDOF 8
ENDMDL
MODEL 9
REMARK VINA RESULT:      -5.1      2.744      6.147
REMARK  Name = 
REMARK  9 active torsions:
REMARK  status: ('A' for Active; 'I' for Inactive)
REMARK    1  A    between atoms: C_1  and  C_2
REMARK    2  A    between atoms: C_5  and  S_8
REMARK    3  A    between atoms: S_8  and  N_11
REMARK    4  A    between atoms: N_11  and  C_12
REMARK    5  A    between atoms: C_12  and  C_13
REMARK    6  A    between atoms: C_13  and  C_14
REMARK    7  A    between atoms: C_14  and  O_15
REMARK    8  A    between atoms: O_15  and  C_16
REMARK    9  A    between atoms: N_18  and  C_19
REMARK                            x       y       z     vdW  Elec       q    Type
REMARK                         _______ _______ _______ _____ _____    ______ ____
ROOT
ATOM      1  C   UNL     1       8.957   1.301  21.865  0.00  0.00    +0.109 C 
ENDROOT
BRANCH   1   2
ATOM      2  N   UNL     1      10.174   2.123  21.897  0.00  0.00    -0.190 NA
ATOM      3  H   UNL     1      10.984   1.750  21.401  0.00  0.00    +0.148 HD
BRANCH   2   4
ATOM      4  S   UNL     1      10.615   2.766  23.400  0.00  0.00    +0.058 S 
ATOM      5  O   UNL     1      10.934   1.641  24.252  0.00  0.00    -0.153 OA
ATOM      6  O   UNL     1      11.549   3.846  23.180  0.00  0.00    -0.153 OA
BRANCH   4  11
ATOM      7  C   UNL     1       5.669   5.387  25.747  0.00  0.00    +0.044 C 
ATOM      8  C   UNL     1       6.827   4.681  25.103  0.00  0.00    -0.050 A 
ATOM      9  C   UNL     1       7.468   5.254  23.995  0.00  0.00    +0.005 A 
ATOM     10  C   UNL     1       8.603   4.654  23.443  0.00  0.00    +0.029 A 
ATOM     11  C   UNL     1       9.087   3.464  23.991  0.00  0.00    +0.105 A 
ATOM     12  C   UNL     1       8.443   2.870  25.080  0.00  0.00    +0.029 A 
ATOM     13  C   UNL     1       7.314   3.479  25.632  0.00  0.00    +0.005 A 
ENDBRANCH   4  11
ENDBRANCH   2   4
ENDBRANCH   1   2
BRANCH   1  14
ATOM     14  C   UNL     1       9.226  -0.006  21.131  0.00  0.00    +0.058 C 
BRANCH  14  15
ATOM     15  C   UNL     1      10.011  -0.955  22.034  0.00  0.00    +0.235 C 
BRANCH  15  16
ATOM     16  O   UNL     1       9.468  -0.969  23.367  0.00  0.00    -0.450 OA
BRANCH  16  17
ATOM     17  C   UNL     1       9.391  -2.214  23.917  0.00  0.00    +0.405 C 
ATOM     18  N   UNL     1       8.210  -2.337  24.591  0.00  0.00    -0.251 N 
ATOM     19  H   UNL     1       7.643  -1.501  24.608  0.00  0.00    +0.158 HD
ATOM     20  O   UNL     1      10.269  -3.051  23.787  0.00  0.00    -0.226 OA
BRANCH  18  21
ATOM     21  C   UNL     1       7.726  -3.500  25.228  0.00  0.00    +0.039 A 
ATOM     22  C   UNL     1       6.771  -4.267  24.565  0.00  0.00    +0.043 A 
ATOM     23  C   UNL     1       6.311  -5.424  25.177  0.00  0.00    +0.112 A 
ATOM     24  N   UNL     1       6.735  -5.857  26.383  0.00  0.00    -0.263 NA
ATOM     25  C   UNL     1       7.656  -5.096  27.006  0.00  0.00    +0.112 A 
ATOM     26  C   UNL     1       8.172  -3.925  26.478  0.00  0.00    +0.043 A 
ENDBRANCH  18  21
ENDBRANCH  16  17
ENDBRANCH  15  16
ENDBRANCH  14  15
ENDBRANCH   1  14
TORSDOF 8
ENDMDL
