MODEL 1
REMARK VINA RESULT:      -6.0      0.000      0.000
REMARK  Name = 
REMARK  10 active torsions:
REMARK  status: ('A' for Active; 'I' for Inactive)
REMARK    1  A    between atoms: C_1  and  S_2
REMARK    2  A    between atoms: S_2  and  C_3
REMARK    3  A    between atoms: C_3  and  C_4
REMARK    4  A    between atoms: C_4  and  C_5
REMARK    5  A    between atoms: C_5  and  N_7
REMARK    6  A    between atoms: C_5  and  C_8
REMARK    7  A    between atoms: C_11  and  C_12
REMARK    8  A    between atoms: C_15  and  O_16
REMARK    9  A    between atoms: N_21  and  C_22
REMARK   10  A    between atoms: C_22  and  C_23
REMARK                            x       y       z     vdW  Elec       q    Type
REMARK                         _______ _______ _______ _____ _____    ______ ____
ROOT
ATOM      1  C   UNL     1       6.814  -3.074  25.647  0.00  0.00    +0.314 C 
ATOM      2  N   UNL     1       7.160  -4.383  25.695  0.00  0.00    -0.145 N 
ATOM      3  C   UNL     1       8.444  -4.492  25.234  0.00  0.00    +0.379 C 
ATOM      4  O   UNL     1       9.154  -5.476  25.164  0.00  0.00    -0.237 OA
ATOM      5  C   UNL     1       8.744  -3.108  24.773  0.00  0.00    +0.263 C 
ATOM      6  C   UNL     1       9.799  -2.801  24.006  0.00  0.00    +0.071 C 
ATOM      7  N   UNL     1       7.704  -2.284  25.122  0.00  0.00    -0.037 NA
ENDROOT
BRANCH   6   8
ATOM      8  C   UNL     1       9.911  -1.495  23.347  0.00  0.00    -0.020 A 
ATOM      9  C   UNL     1       9.479  -1.362  22.019  0.00  0.00    +0.011 A 
ATOM     10  C   UNL     1       9.479  -0.112  21.396  0.00  0.00    +0.046 A 
ATOM     11  C   UNL     1       9.906   1.004  22.104  0.00  0.00    +0.117 A 
ATOM     12  C   UNL     1      10.370   0.886  23.411  0.00  0.00    +0.046 A 
ATOM     13  C   UNL     1      10.374  -0.367  24.033  0.00  0.00    +0.011 A 
BRANCH  11  14
ATOM     14  O   UNL     1       9.836   2.214  21.480  0.00  0.00    -0.507 OA
ATOM     15  H   UNL     1       9.977   2.077  20.530  0.00  0.00    +0.292 HD
ENDBRANCH  11  14
ENDBRANCH   6   8
BRANCH   1  16
ATOM     16  C   UNL     1       5.490  -2.502  26.148  0.00  0.00    +0.169 C 
BRANCH  16  17
ATOM     17  N   UNL     1       4.535  -2.387  25.031  0.00  0.00    -0.318 NA
ATOM     18  H   UNL     1       4.662  -1.467  24.603  0.00  0.00    +0.119 HD
ATOM     19  H   UNL     1       4.820  -3.037  24.295  0.00  0.00    +0.119 HD
ENDBRANCH  16  17
BRANCH  16  20
ATOM     20  C   UNL     1       5.716  -1.182  26.901  0.00  0.00    +0.041 C 
BRANCH  20  21
ATOM     21  C   UNL     1       5.109   0.060  26.239  0.00  0.00    +0.071 C 
BRANCH  21  23
ATOM     22  C   UNL     1       6.457   0.754  23.923  0.00  0.00    +0.084 C 
ATOM     23  S   UNL     1       6.392   1.225  25.666  0.00  0.00    -0.164 S 
ENDBRANCH  21  23
ENDBRANCH  20  21
ENDBRANCH  16  20
ENDBRANCH   1  16
BRANCH   2  24
ATOM     24  C   UNL     1       6.330  -5.552  25.952  0.00  0.00    +0.306 C 
BRANCH  24  25
ATOM     25  C   UNL     1       6.173  -5.888  27.416  0.00  0.00    +0.267 C 
ATOM     26  O   UNL     1       7.133  -6.049  28.169  0.00  0.00    -0.297 OA
ENDBRANCH  24  25
ENDBRANCH   2  24
TORSDOF 9
ENDMDL
MODEL 2
REMARK VINA RESULT:      -5.9      1.075      1.239
REMARK  Name = 
REMARK  10 active torsions:
REMARK  status: ('A' for Active; 'I' for Inactive)
REMARK    1  A    between atoms: C_1  and  S_2
REMARK    2  A    between atoms: S_2  and  C_3
REMARK    3  A    between atoms: C_3  and  C_4
REMARK    4  A    between atoms: C_4  and  C_5
REMARK    5  A    between atoms: C_5  and  N_7
REMARK    6  A    between atoms: C_5  and  C_8
REMARK    7  A    between atoms: C_11  and  C_12
REMARK    8  A    between atoms: C_15  and  O_16
REMARK    9  A    between atoms: N_21  and  C_22
REMARK   10  A    between atoms: C_22  and  C_23
REMARK                            x       y       z     vdW  Elec       q    Type
REMARK                         _______ _______ _______ _____ _____    ______ ____
ROOT
ATOM      1  C   UNL     1       6.857  -3.061  25.480  0.00  0.00    +0.314 C 
ATOM      2  N   UNL     1       7.180  -4.375  25.421  0.00  0.00    -0.145 N 
ATOM      3  C   UNL     1       8.451  -4.470  24.923  0.00  0.00    +0.379 C 
ATOM      4  O   UNL     1       9.142  -5.457  24.762  0.00  0.00    -0.237 OA
ATOM      5  C   UNL     1       8.766  -3.060  24.561  0.00  0.00    +0.263 C 
ATOM      6  C   UNL     1       9.808  -2.712  23.795  0.00  0.00    +0.071 C 
ATOM      7  N   UNL     1       7.749  -2.247  24.997  0.00  0.00    -0.037 NA
ENDROOT
BRANCH   6   8
ATOM      8  C   UNL     1       9.930  -1.361  23.234  0.00  0.00    -0.020 A 
ATOM      9  C   UNL     1       9.480  -1.123  21.927  0.00  0.00    +0.011 A 
ATOM     10  C   UNL     1       9.488   0.170  21.400  0.00  0.00    +0.046 A 
ATOM     11  C   UNL     1       9.941   1.224  22.183  0.00  0.00    +0.117 A 
ATOM     12  C   UNL     1      10.423   1.002  23.470  0.00  0.00    +0.046 A 
ATOM     13  C   UNL     1      10.418  -0.295  23.996  0.00  0.00    +0.011 A 
BRANCH  11  14
ATOM     14  O   UNL     1       9.879   2.478  21.654  0.00  0.00    -0.507 OA
ATOM     15  H   UNL     1       8.963   2.792  21.716  0.00  0.00    +0.292 HD
ENDBRANCH  11  14
ENDBRANCH   6   8
BRANCH   1  16
ATOM     16  C   UNL     1       5.555  -2.507  26.055  0.00  0.00    +0.169 C 
BRANCH  16  17
ATOM     17  N   UNL     1       4.542  -2.393  24.990  0.00  0.00    -0.318 NA
ATOM     18  H   UNL     1       4.086  -1.483  25.088  0.00  0.00    +0.119 HD
ATOM     19  H   UNL     1       5.024  -2.327  24.091  0.00  0.00    +0.119 HD
ENDBRANCH  16  17
BRANCH  16  20
ATOM     20  C   UNL     1       5.807  -1.191  26.807  0.00  0.00    +0.041 C 
BRANCH  20  21
ATOM     21  C   UNL     1       5.146   0.048  26.194  0.00  0.00    +0.071 C 
BRANCH  21  23
ATOM     22  C   UNL     1       6.503   0.788  23.898  0.00  0.00    +0.084 C 
ATOM     23  S   UNL     1       6.377   1.273  25.634  0.00  0.00    -0.164 S 
ENDBRANCH  21  23
ENDBRANCH  20  21
ENDBRANCH  16  20
ENDBRANCH   1  16
BRANCH   2  24
ATOM     24  C   UNL     1       6.335  -5.547  25.608  0.00  0.00    +0.306 C 
BRANCH  24  25
ATOM     25  C   UNL     1       5.520  -5.920  24.392  0.00  0.00    +0.267 C 
ATOM     26  O   UNL     1       4.587  -5.232  23.978  0.00  0.00    -0.297 OA
ENDBRANCH  24  25
ENDBRANCH   2  24
TORSDOF 9
ENDMDL
MODEL 3
REMARK VINA RESULT:      -5.8      2.175      3.057
REMARK  Name = 
REMARK  10 active torsions:
REMARK  status: ('A' for Active; 'I' for Inactive)
REMARK    1  A    between atoms: C_1  and  S_2
REMARK    2  A    between atoms: S_2  and  C_3
REMARK    3  A    between atoms: C_3  and  C_4
REMARK    4  A    between atoms: C_4  and  C_5
REMARK    5  A    between atoms: C_5  and  N_7
REMARK    6  A    between atoms: C_5  and  C_8
REMARK    7  A    between atoms: C_11  and  C_12
REMARK    8  A    between atoms: C_15  and  O_16
REMARK    9  A    between atoms: N_21  and  C_22
REMARK   10  A    between atoms: C_22  and  C_23
REMARK                            x       y       z     vdW  Elec       q    Type
REMARK                         _______ _______ _______ _____ _____    ______ ____
ROOT
ATOM      1  C   UNL     1       6.660  -2.921  24.827  0.00  0.00    +0.314 C 
ATOM      2  N   UNL     1       6.972  -4.209  24.546  0.00  0.00    -0.145 N 
ATOM      3  C   UNL     1       8.302  -4.257  24.228  0.00  0.00    +0.379 C 
ATOM      4  O   UNL     1       8.996  -5.221  23.969  0.00  0.00    -0.237 OA
ATOM      5  C   UNL     1       8.687  -2.818  24.213  0.00  0.00    +0.263 C 
ATOM      6  C   UNL     1       9.836  -2.370  23.694  0.00  0.00    +0.071 C 
ATOM      7  N   UNL     1       7.626  -2.067  24.655  0.00  0.00    -0.037 NA
ENDROOT
BRANCH   6   8
ATOM      8  C   UNL     1      10.058  -0.940  23.447  0.00  0.00    -0.020 A 
ATOM      9  C   UNL     1       9.803  -0.421  22.169  0.00  0.00    +0.011 A 
ATOM     10  C   UNL     1       9.907   0.950  21.927  0.00  0.00    +0.046 A 
ATOM     11  C   UNL     1      10.262   1.801  22.965  0.00  0.00    +0.117 A 
ATOM     12  C   UNL     1      10.552   1.301  24.232  0.00  0.00    +0.046 A 
ATOM     13  C   UNL     1      10.451  -0.073  24.473  0.00  0.00    +0.011 A 
BRANCH  11  14
ATOM     14  O   UNL     1      10.297   3.139  22.704  0.00  0.00    -0.507 OA
ATOM     15  H   UNL     1      11.179   3.362  22.367  0.00  0.00    +0.292 HD
ENDBRANCH  11  14
ENDBRANCH   6   8
BRANCH   1  16
ATOM     16  C   UNL     1       5.295  -2.438  25.309  0.00  0.00    +0.169 C 
BRANCH  16  17
ATOM     17  N   UNL     1       5.049  -1.064  24.834  0.00  0.00    -0.318 NA
ATOM     18  H   UNL     1       5.386  -1.002  23.870  0.00  0.00    +0.119 HD
ATOM     19  H   UNL     1       4.040  -0.929  24.746  0.00  0.00    +0.119 HD
ENDBRANCH  16  17
BRANCH  16  20
ATOM     20  C   UNL     1       5.166  -2.594  26.832  0.00  0.00    +0.041 C 
BRANCH  20  21
ATOM     21  C   UNL     1       4.505  -3.895  27.300  0.00  0.00    +0.071 C 
BRANCH  21  23
ATOM     22  C   UNL     1       5.012  -6.583  27.723  0.00  0.00    +0.084 C 
ATOM     23  S   UNL     1       5.674  -4.971  28.199  0.00  0.00    -0.164 S 
ENDBRANCH  21  23
ENDBRANCH  20  21
ENDBRANCH  16  20
ENDBRANCH   1  16
BRANCH   2  24
ATOM     24  C   UNL     1       6.093  -5.356  24.363  0.00  0.00    +0.306 C 
BRANCH  24  25
ATOM     25  C   UNL     1       5.575  -5.518  22.954  0.00  0.00    +0.267 C 
ATOM     26  O   UNL     1       4.771  -4.737  22.445  0.00  0.00    -0.297 OA
ENDBRANCH  24  25
ENDBRANCH   2  24
TORSDOF 9
ENDMDL
MODEL 4
REMARK VINA RESULT:      -5.5      1.949      2.436
REMARK  Name = 
REMARK  10 active torsions:
REMARK  status: ('A' for Active; 'I' for Inactive)
REMARK    1  A    between atoms: C_1  and  S_2
REMARK    2  A    between atoms: S_2  and  C_3
REMARK    3  A    between atoms: C_3  and  C_4
REMARK    4  A    between atoms: C_4  and  C_5
REMARK    5  A    between atoms: C_5  and  N_7
REMARK    6  A    between atoms: C_5  and  C_8
REMARK    7  A    between atoms: C_11  and  C_12
REMARK    8  A    between atoms: C_15  and  O_16
REMARK    9  A    between atoms: N_21  and  C_22
REMARK   10  A    between atoms: C_22  and  C_23
REMARK                            x       y       z     vdW  Elec       q    Type
REMARK                         _______ _______ _______ _____ _____    ______ ____
ROOT
ATOM      1  C   UNL     1       6.738  -3.027  25.585  0.00  0.00    +0.314 C 
ATOM      2  N   UNL     1       7.119  -4.321  25.703  0.00  0.00    -0.145 N 
ATOM      3  C   UNL     1       8.426  -4.410  25.307  0.00  0.00    +0.379 C 
ATOM      4  O   UNL     1       9.167  -5.374  25.310  0.00  0.00    -0.237 OA
ATOM      5  C   UNL     1       8.709  -3.037  24.803  0.00  0.00    +0.263 C 
ATOM      6  C   UNL     1       9.789  -2.728  24.075  0.00  0.00    +0.071 C 
ATOM      7  N   UNL     1       7.630  -2.231  25.070  0.00  0.00    -0.037 NA
ENDROOT
BRANCH   6   8
ATOM      8  C   UNL     1       9.895  -1.446  23.368  0.00  0.00    -0.020 A 
ATOM      9  C   UNL     1       9.459  -1.363  22.037  0.00  0.00    +0.011 A 
ATOM     10  C   UNL     1       9.452  -0.137  21.370  0.00  0.00    +0.046 A 
ATOM     11  C   UNL     1       9.877   1.005  22.035  0.00  0.00    +0.117 A 
ATOM     12  C   UNL     1      10.346   0.937  23.345  0.00  0.00    +0.046 A 
ATOM     13  C   UNL     1      10.356  -0.293  24.012  0.00  0.00    +0.011 A 
BRANCH  11  14
ATOM     14  O   UNL     1       9.802   2.192  21.369  0.00  0.00    -0.507 OA
ATOM     15  H   UNL     1       8.877   2.345  21.119  0.00  0.00    +0.292 HD
ENDBRANCH  11  14
ENDBRANCH   6   8
BRANCH   1  16
ATOM     16  C   UNL     1       5.377  -2.476  26.000  0.00  0.00    +0.169 C 
BRANCH  16  17
ATOM     17  N   UNL     1       5.129  -2.764  27.424  0.00  0.00    -0.318 NA
ATOM     18  H   UNL     1       5.223  -1.886  27.942  0.00  0.00    +0.119 HD
ATOM     19  H   UNL     1       4.142  -3.005  27.537  0.00  0.00    +0.119 HD
ENDBRANCH  16  17
BRANCH  16  20
ATOM     20  C   UNL     1       4.271  -2.991  25.066  0.00  0.00    +0.041 C 
BRANCH  20  21
ATOM     21  C   UNL     1       3.169  -3.809  25.749  0.00  0.00    +0.071 C 
BRANCH  21  23
ATOM     22  C   UNL     1       3.203  -5.317  23.428  0.00  0.00    +0.084 C 
ATOM     23  S   UNL     1       2.011  -4.539  24.542  0.00  0.00    -0.164 S 
ENDBRANCH  21  23
ENDBRANCH  20  21
ENDBRANCH  16  20
ENDBRANCH   1  16
BRANCH   2  24
ATOM     24  C   UNL     1       6.311  -5.504  25.969  0.00  0.00    +0.306 C 
BRANCH  24  25
ATOM     25  C   UNL     1       6.390  -5.998  27.394  0.00  0.00    +0.267 C 
ATOM     26  O   UNL     1       6.625  -5.252  28.346  0.00  0.00    -0.297 OA
ENDBRANCH  24  25
ENDBRANCH   2  24
TORSDOF 9
ENDMDL
MODEL 5
REMARK VINA RESULT:      -5.4      1.967      5.917
REMARK  Name = 
REMARK  10 active torsions:
REMARK  status: ('A' for Active; 'I' for Inactive)
REMARK    1  A    between atoms: C_1  and  S_2
REMARK    2  A    between atoms: S_2  and  C_3
REMARK    3  A    between atoms: C_3  and  C_4
REMARK    4  A    between atoms: C_4  and  C_5
REMARK    5  A    between atoms: C_5  and  N_7
REMARK    6  A    between atoms: C_5  and  C_8
REMARK    7  A    between atoms: C_11  and  C_12
REMARK    8  A    between atoms: C_15  and  O_16
REMARK    9  A    between atoms: N_21  and  C_22
REMARK   10  A    between atoms: C_22  and  C_23
REMARK                            x       y       z     vdW  Elec       q    Type
REMARK                         _______ _______ _______ _____ _____    ______ ____
ROOT
ATOM      1  C   UNL     1       7.722   0.394  23.871  0.00  0.00    +0.314 C 
ATOM      2  N   UNL     1       8.421   0.682  22.748  0.00  0.00    -0.145 N 
ATOM      3  C   UNL     1       8.744  -0.501  22.142  0.00  0.00    +0.379 C 
ATOM      4  O   UNL     1       9.316  -0.694  21.086  0.00  0.00    -0.237 OA
ATOM      5  C   UNL     1       8.276  -1.513  23.130  0.00  0.00    +0.263 C 
ATOM      6  C   UNL     1       8.620  -2.806  23.078  0.00  0.00    +0.071 C 
ATOM      7  N   UNL     1       7.601  -0.873  24.140  0.00  0.00    -0.037 NA
ENDROOT
BRANCH   6   8
ATOM      8  C   UNL     1       8.373  -3.709  24.208  0.00  0.00    -0.020 A 
ATOM      9  C   UNL     1       9.332  -3.803  25.228  0.00  0.00    +0.011 A 
ATOM     10  C   UNL     1       9.084  -4.575  26.364  0.00  0.00    +0.046 A 
ATOM     11  C   UNL     1       7.875  -5.248  26.482  0.00  0.00    +0.117 A 
ATOM     12  C   UNL     1       6.925  -5.195  25.465  0.00  0.00    +0.046 A 
ATOM     13  C   UNL     1       7.176  -4.424  24.325  0.00  0.00    +0.011 A 
BRANCH  11  14
ATOM     14  O   UNL     1       7.647  -5.945  27.632  0.00  0.00    -0.507 OA
ATOM     15  H   UNL     1       8.263  -6.693  27.664  0.00  0.00    +0.292 HD
ENDBRANCH  11  14
ENDBRANCH   6   8
BRANCH   1  16
ATOM     16  C   UNL     1       7.098   1.431  24.802  0.00  0.00    +0.169 C 
BRANCH  16  17
ATOM     17  N   UNL     1       7.962   1.638  25.978  0.00  0.00    -0.318 NA
ATOM     18  H   UNL     1       8.255   2.618  25.982  0.00  0.00    +0.119 HD
ATOM     19  H   UNL     1       7.388   1.554  26.819  0.00  0.00    +0.119 HD
ENDBRANCH  16  17
BRANCH  16  20
ATOM     20  C   UNL     1       5.654   1.046  25.159  0.00  0.00    +0.041 C 
BRANCH  20  21
ATOM     21  C   UNL     1       5.417   0.701  26.634  0.00  0.00    +0.071 C 
BRANCH  21  23
ATOM     22  C   UNL     1       5.879  -2.006  26.985  0.00  0.00    +0.084 C 
ATOM     23  S   UNL     1       4.491  -0.859  26.830  0.00  0.00    -0.164 S 
ENDBRANCH  21  23
ENDBRANCH  20  21
ENDBRANCH  16  20
ENDBRANCH   1  16
BRANCH   2  24
ATOM     24  C   UNL     1       8.974   1.954  22.301  0.00  0.00    +0.306 C 
BRANCH  24  25
ATOM     25  C   UNL     1      10.272   2.333  22.974  0.00  0.00    +0.267 C 
ATOM     26  O   UNL     1      10.578   1.941  24.101  0.00  0.00    -0.297 OA
ENDBRANCH  24  25
ENDBRANCH   2  24
TORSDOF 9
ENDMDL
MODEL 6
REMARK VINA RESULT:      -5.4      2.546      3.505
REMARK  Name = 
REMARK  10 active torsions:
REMARK  status: ('A' for Active; 'I' for Inactive)
REMARK    1  A    between atoms: C_1  and  S_2
REMARK    2  A    between atoms: S_2  and  C_3
REMARK    3  A    between atoms: C_3  and  C_4
REMARK    4  A    between atoms: C_4  and  C_5
REMARK    5  A    between atoms: C_5  and  N_7
REMARK    6  A    between atoms: C_5  and  C_8
REMARK    7  A    between atoms: C_11  and  C_12
REMARK    8  A    between atoms: C_15  and  O_16
REMARK    9  A    between atoms: N_21  and  C_22
REMARK   10  A    between atoms: C_22  and  C_23
REMARK                            x       y       z     vdW  Elec       q    Type
REMARK                         _______ _______ _______ _____ _____    ______ ____
ROOT
ATOM      1  C   UNL     1       7.112  -3.255  23.735  0.00  0.00    +0.314 C 
ATOM      2  N   UNL     1       7.962  -4.294  23.917  0.00  0.00    -0.145 N 
ATOM      3  C   UNL     1       9.173  -3.781  24.295  0.00  0.00    +0.379 C 
ATOM      4  O   UNL     1      10.191  -4.366  24.611  0.00  0.00    -0.237 OA
ATOM      5  C   UNL     1       8.962  -2.313  24.164  0.00  0.00    +0.263 C 
ATOM      6  C   UNL     1       9.961  -1.421  24.181  0.00  0.00    +0.071 C 
ATOM      7  N   UNL     1       7.641  -2.074  23.873  0.00  0.00    -0.037 NA
ENDROOT
BRANCH   6   8
ATOM      8  C   UNL     1       9.749  -0.026  23.776  0.00  0.00    -0.020 A 
ATOM      9  C   UNL     1       9.394   0.920  24.750  0.00  0.00    +0.011 A 
ATOM     10  C   UNL     1       9.284   2.271  24.417  0.00  0.00    +0.046 A 
ATOM     11  C   UNL     1       9.532   2.676  23.113  0.00  0.00    +0.117 A 
ATOM     12  C   UNL     1       9.851   1.747  22.125  0.00  0.00    +0.046 A 
ATOM     13  C   UNL     1       9.958   0.393  22.458  0.00  0.00    +0.011 A 
BRANCH  11  14
ATOM     14  O   UNL     1       9.470   4.010  22.840  0.00  0.00    -0.507 OA
ATOM     15  H   UNL     1      10.304   4.276  22.422  0.00  0.00    +0.292 HD
ENDBRANCH  11  14
ENDBRANCH   6   8
BRANCH   1  16
ATOM     16  C   UNL     1       5.632  -3.388  23.387  0.00  0.00    +0.169 C 
BRANCH  16  17
ATOM     17  N   UNL     1       5.382  -2.859  22.034  0.00  0.00    -0.318 NA
ATOM     18  H   UNL     1       4.847  -1.992  22.132  0.00  0.00    +0.119 HD
ATOM     19  H   UNL     1       6.272  -2.550  21.639  0.00  0.00    +0.119 HD
ENDBRANCH  16  17
BRANCH  16  20
ATOM     20  C   UNL     1       4.756  -2.742  24.472  0.00  0.00    +0.041 C 
BRANCH  20  21
ATOM     21  C   UNL     1       3.663  -3.647  25.052  0.00  0.00    +0.071 C 
BRANCH  21  23
ATOM     22  C   UNL     1       5.321  -5.303  26.525  0.00  0.00    +0.084 C 
ATOM     23  S   UNL     1       4.187  -5.394  25.121  0.00  0.00    -0.164 S 
ENDBRANCH  21  23
ENDBRANCH  20  21
ENDBRANCH  16  20
ENDBRANCH   1  16
BRANCH   2  24
ATOM     24  C   UNL     1       7.791  -5.701  23.580  0.00  0.00    +0.306 C 
BRANCH  24  25
ATOM     25  C   UNL     1       6.934  -5.943  22.360  0.00  0.00    +0.267 C 
ATOM     26  O   UNL     1       7.264  -5.580  21.231  0.00  0.00    -0.297 OA
ENDBRANCH  24  25
ENDBRANCH   2  24
TORSDOF 9
ENDMDL
MODEL 7
REMARK VINA RESULT:      -5.3      2.155      6.119
REMARK  Name = 
REMARK  10 active torsions:
REMARK  status: ('A' for Active; 'I' for Inactive)
REMARK    1  A    between atoms: C_1  and  S_2
REMARK    2  A    between atoms: S_2  and  C_3
REMARK    3  A    between atoms: C_3  and  C_4
REMARK    4  A    between atoms: C_4  and  C_5
REMARK    5  A    between atoms: C_5  and  N_7
REMARK    6  A    between atoms: C_5  and  C_8
REMARK    7  A    between atoms: C_11  and  C_12
REMARK    8  A    between atoms: C_15  and  O_16
REMARK    9  A    between atoms: N_21  and  C_22
REMARK   10  A    between atoms: C_22  and  C_23
REMARK                            x       y       z     vdW  Elec       q    Type
REMARK                         _______ _______ _______ _____ _____    ______ ____
ROOT
ATOM      1  C   UNL     1       8.400  -0.221  24.452  0.00  0.00    +0.314 C 
ATOM      2  N   UNL     1       9.499  -0.185  23.661  0.00  0.00    -0.145 N 
ATOM      3  C   UNL     1       9.717  -1.452  23.191  0.00  0.00    +0.379 C 
ATOM      4  O   UNL     1      10.559  -1.848  22.409  0.00  0.00    -0.237 OA
ATOM      5  C   UNL     1       8.699  -2.252  23.927  0.00  0.00    +0.263 C 
ATOM      6  C   UNL     1       8.713  -3.590  23.980  0.00  0.00    +0.071 C 
ATOM      7  N   UNL     1       7.888  -1.402  24.638  0.00  0.00    -0.037 NA
ENDROOT
BRANCH   6   8
ATOM      8  C   UNL     1       7.871  -4.328  24.929  0.00  0.00    -0.020 A 
ATOM      9  C   UNL     1       6.642  -4.845  24.491  0.00  0.00    +0.011 A 
ATOM     10  C   UNL     1       5.865  -5.636  25.339  0.00  0.00    +0.046 A 
ATOM     11  C   UNL     1       6.319  -5.913  26.622  0.00  0.00    +0.117 A 
ATOM     12  C   UNL     1       7.519  -5.380  27.085  0.00  0.00    +0.046 A 
ATOM     13  C   UNL     1       8.296  -4.585  26.237  0.00  0.00    +0.011 A 
BRANCH  11  14
ATOM     14  O   UNL     1       5.559  -6.736  27.399  0.00  0.00    -0.507 OA
ATOM     15  H   UNL     1       5.478  -6.336  28.280  0.00  0.00    +0.292 HD
ENDBRANCH  11  14
ENDBRANCH   6   8
BRANCH   1  16
ATOM     16  C   UNL     1       7.761   0.997  25.115  0.00  0.00    +0.169 C 
BRANCH  16  17
ATOM     17  N   UNL     1       7.183   0.618  26.416  0.00  0.00    -0.318 NA
ATOM     18  H   UNL     1       7.195  -0.403  26.478  0.00  0.00    +0.119 HD
ATOM     19  H   UNL     1       7.827   0.912  27.153  0.00  0.00    +0.119 HD
ENDBRANCH  16  17
BRANCH  16  20
ATOM     20  C   UNL     1       6.756   1.669  24.167  0.00  0.00    +0.041 C 
BRANCH  20  21
ATOM     21  C   UNL     1       6.813   3.201  24.136  0.00  0.00    +0.071 C 
BRANCH  21  23
ATOM     22  C   UNL     1       8.927   4.932  23.692  0.00  0.00    +0.084 C 
ATOM     23  S   UNL     1       8.291   3.848  24.989  0.00  0.00    -0.164 S 
ENDBRANCH  21  23
ENDBRANCH  20  21
ENDBRANCH  16  20
ENDBRANCH   1  16
BRANCH   2  24
ATOM     24  C   UNL     1      10.466   0.887  23.465  0.00  0.00    +0.306 C 
BRANCH  24  25
ATOM     25  C   UNL     1      10.168   1.779  22.283  0.00  0.00    +0.267 C 
ATOM     26  O   UNL     1       9.153   1.658  21.596  0.00  0.00    -0.297 OA
ENDBRANCH  24  25
ENDBRANCH   2  24
TORSDOF 9
ENDMDL
MODEL 8
REMARK VINA RESULT:      -5.3      2.345      6.132
REMARK  Name = 
REMARK  10 active torsions:
REMARK  status: ('A' for Active; 'I' for Inactive)
REMARK    1  A    between atoms: C_1  and  S_2
REMARK    2  A    between atoms: S_2  and  C_3
REMARK    3  A    between atoms: C_3  and  C_4
REMARK    4  A    between atoms: C_4  and  C_5
REMARK    5  A    between atoms: C_5  and  N_7
REMARK    6  A    between atoms: C_5  and  C_8
REMARK    7  A    between atoms: C_11  and  C_12
REMARK    8  A    between atoms: C_15  and  O_16
REMARK    9  A    between atoms: N_21  and  C_22
REMARK   10  A    between atoms: C_22  and  C_23
REMARK                            x       y       z     vdW  Elec       q    Type
REMARK                         _______ _______ _______ _____ _____    ______ ____
ROOT
ATOM      1  C   UNL     1       8.165   0.632  24.194  0.00  0.00    +0.314 C 
ATOM      2  N   UNL     1       8.768   0.978  23.032  0.00  0.00    -0.145 N 
ATOM      3  C   UNL     1       8.896  -0.155  22.275  0.00  0.00    +0.379 C 
ATOM      4  O   UNL     1       9.328  -0.281  21.145  0.00  0.00    -0.237 OA
ATOM      5  C   UNL     1       8.429  -1.222  23.202  0.00  0.00    +0.263 C 
ATOM      6  C   UNL     1       8.624  -2.528  22.979  0.00  0.00    +0.071 C 
ATOM      7  N   UNL     1       7.938  -0.640  24.345  0.00  0.00    -0.037 NA
ENDROOT
BRANCH   6   8
ATOM      8  C   UNL     1       8.402  -3.526  24.032  0.00  0.00    -0.020 A 
ATOM      9  C   UNL     1       9.477  -3.903  24.852  0.00  0.00    +0.011 A 
ATOM     10  C   UNL     1       9.278  -4.773  25.925  0.00  0.00    +0.046 A 
ATOM     11  C   UNL     1       8.004  -5.262  26.181  0.00  0.00    +0.117 A 
ATOM     12  C   UNL     1       6.931  -4.926  25.359  0.00  0.00    +0.046 A 
ATOM     13  C   UNL     1       7.132  -4.057  24.281  0.00  0.00    +0.011 A 
BRANCH  11  14
ATOM     14  O   UNL     1       7.839  -6.062  27.272  0.00  0.00    -0.507 OA
ATOM     15  H   UNL     1       8.009  -5.533  28.068  0.00  0.00    +0.292 HD
ENDBRANCH  11  14
ENDBRANCH   6   8
BRANCH   1  16
ATOM     16  C   UNL     1       7.760   1.612  25.293  0.00  0.00    +0.169 C 
BRANCH  16  17
ATOM     17  N   UNL     1       7.958   0.996  26.617  0.00  0.00    -0.318 NA
ATOM     18  H   UNL     1       7.097   1.124  27.153  0.00  0.00    +0.119 HD
ATOM     19  H   UNL     1       8.019  -0.017  26.496  0.00  0.00    +0.119 HD
ENDBRANCH  16  17
BRANCH  16  20
ATOM     20  C   UNL     1       6.331   2.129  25.063  0.00  0.00    +0.041 C 
BRANCH  20  21
ATOM     21  C   UNL     1       6.166   3.650  25.156  0.00  0.00    +0.071 C 
BRANCH  21  23
ATOM     22  C   UNL     1       5.715   3.145  22.472  0.00  0.00    +0.084 C 
ATOM     23  S   UNL     1       6.359   4.459  23.531  0.00  0.00    -0.164 S 
ENDBRANCH  21  23
ENDBRANCH  20  21
ENDBRANCH  16  20
ENDBRANCH   1  16
BRANCH   2  24
ATOM     24  C   UNL     1       9.405   2.233  22.655  0.00  0.00    +0.306 C 
BRANCH  24  25
ATOM     25  C   UNL     1      10.668   2.539  23.425  0.00  0.00    +0.267 C 
ATOM     26  O   UNL     1      11.213   3.643  23.400  0.00  0.00    -0.297 OA
ENDBRANCH  24  25
ENDBRANCH   2  24
TORSDOF 9
ENDMDL
MODEL 9
REMARK VINA RESULT:      -5.3      1.785      2.533
REMARK  Name = 
REMARK  10 active torsions:
REMARK  status: ('A' for Active; 'I' for Inactive)
REMARK    1  A    between atoms: C_1  and  S_2
REMARK    2  A    between atoms: S_2  and  C_3
REMARK    3  A    between atoms: C_3  and  C_4
REMARK    4  A    between atoms: C_4  and  C_5
REMARK    5  A    between atoms: C_5  and  N_7
REMARK    6  A    between atoms: C_5  and  C_8
REMARK    7  A    between atoms: C_11  and  C_12
REMARK    8  A    between atoms: C_15  and  O_16
REMARK    9  A    between atoms: N_21  and  C_22
REMARK   10  A    between atoms: C_22  and  C_23
REMARK                            x       y       z     vdW  Elec       q    Type
REMARK                         _______ _______ _______ _____ _____    ______ ____
ROOT
ATOM      1  C   UNL     1       6.646  -2.775  25.129  0.00  0.00    +0.314 C 
ATOM      2  N   UNL     1       6.952  -4.062  24.841  0.00  0.00    -0.145 N 
ATOM      3  C   UNL     1       8.247  -4.095  24.400  0.00  0.00    +0.379 C 
ATOM      4  O   UNL     1       8.931  -5.052  24.092  0.00  0.00    -0.237 OA
ATOM      5  C   UNL     1       8.604  -2.651  24.326  0.00  0.00    +0.263 C 
ATOM      6  C   UNL     1       9.692  -2.194  23.695  0.00  0.00    +0.071 C 
ATOM      7  N   UNL     1       7.577  -1.908  24.854  0.00  0.00    -0.037 NA
ENDROOT
BRANCH   6   8
ATOM      8  C   UNL     1       9.866  -0.765  23.405  0.00  0.00    -0.020 A 
ATOM      9  C   UNL     1      10.425   0.067  24.388  0.00  0.00    +0.011 A 
ATOM     10  C   UNL     1      10.696   1.407  24.109  0.00  0.00    +0.046 A 
ATOM     11  C   UNL     1      10.412   1.914  22.848  0.00  0.00    +0.117 A 
ATOM     12  C   UNL     1       9.826   1.113  21.872  0.00  0.00    +0.046 A 
ATOM     13  C   UNL     1       9.551  -0.229  22.152  0.00  0.00    +0.011 A 
BRANCH  11  14
ATOM     14  O   UNL     1      10.744   3.212  22.597  0.00  0.00    -0.507 OA
ATOM     15  H   UNL     1      11.682   3.336  22.815  0.00  0.00    +0.292 HD
ENDBRANCH  11  14
ENDBRANCH   6   8
BRANCH   1  16
ATOM     16  C   UNL     1       5.324  -2.305  25.729  0.00  0.00    +0.169 C 
BRANCH  16  17
ATOM     17  N   UNL     1       5.063  -0.906  25.342  0.00  0.00    -0.318 NA
ATOM     18  H   UNL     1       4.430  -0.502  26.037  0.00  0.00    +0.119 HD
ATOM     19  H   UNL     1       5.926  -0.372  25.461  0.00  0.00    +0.119 HD
ENDBRANCH  16  17
BRANCH  16  20
ATOM     20  C   UNL     1       5.299  -2.537  27.247  0.00  0.00    +0.041 C 
BRANCH  20  21
ATOM     21  C   UNL     1       3.903  -2.683  27.862  0.00  0.00    +0.071 C 
BRANCH  21  23
ATOM     22  C   UNL     1       2.253  -2.145  30.019  0.00  0.00    +0.084 C 
ATOM     23  S   UNL     1       3.524  -1.330  29.027  0.00  0.00    -0.164 S 
ENDBRANCH  21  23
ENDBRANCH  20  21
ENDBRANCH  16  20
ENDBRANCH   1  16
BRANCH   2  24
ATOM     24  C   UNL     1       6.080  -5.226  24.760  0.00  0.00    +0.306 C 
BRANCH  24  25
ATOM     25  C   UNL     1       5.976  -6.011  26.046  0.00  0.00    +0.267 C 
ATOM     26  O   UNL     1       6.734  -5.830  27.000  0.00  0.00    -0.297 OA
ENDBRANCH  24  25
ENDBRANCH   2  24
TORSDOF 9
ENDMDL
