MODEL 1
REMARK VINA RESULT:      -6.6      0.000      0.000
REMARK  Name = 
REMARK  7 active torsions:
REMARK  status: ('A' for Active; 'I' for Inactive)
REMARK    1  A    between atoms: C_1  and  O_2
REMARK    2  A    between atoms: O_2  and  C_3
REMARK    3  A    between atoms: C_8  and  C_10
REMARK    4  A    between atoms: C_17  and  C_18
REMARK    5  A    between atoms: C_19  and  C_20
REMARK    6  A    between atoms: C_20  and  C_21
REMARK    7  A    between atoms: C_21  and  O_22
REMARK                            x       y       z     vdW  Elec       q    Type
REMARK                         _______ _______ _______ _____ _____    ______ ____
ROOT
ATOM      1  C   UNL     1       7.036   1.200  26.809  0.00  0.00    +0.121 A 
ATOM      2  C   UNL     1       7.706   1.461  25.611  0.00  0.00    +0.056 A 
ATOM      3  C   UNL     1       8.464   0.451  24.981  0.00  0.00    +0.008 A 
ATOM      4  C   UNL     1       8.483  -0.830  25.533  0.00  0.00    +0.057 A 
ATOM      5  N   UNL     1       9.127  -1.682  24.624  0.00  0.00    -0.280 N 
ATOM      6  C   UNL     1       9.756  -0.864  23.668  0.00  0.00    +0.028 A 
ATOM      7  C   UNL     1      10.642  -1.373  22.568  0.00  0.00    +0.064 C 
ATOM      8  C   UNL     1       9.129  -3.110  24.667  0.00  0.00    +0.263 C 
ATOM      9  O   UNL     1      10.072  -3.695  24.135  0.00  0.00    -0.267 OA
ATOM     10  C   UNL     1       7.911  -1.063  26.799  0.00  0.00    +0.030 A 
ATOM     11  C   UNL     1       9.337   0.453  23.857  0.00  0.00    -0.008 A 
ATOM     12  C   UNL     1       7.174  -0.042  27.412  0.00  0.00    +0.048 A 
ENDROOT
BRANCH   8  13
ATOM     13  C   UNL     1       8.102  -3.973  25.324  0.00  0.00    +0.040 A 
ATOM     14  C   UNL     1       8.462  -4.669  26.489  0.00  0.00    +0.014 A 
ATOM     15  C   UNL     1       7.510  -5.400  27.206  0.00  0.00    +0.015 A 
ATOM     16  C   UNL     1       6.193  -5.445  26.755  0.00  0.00    +0.013 A 
ATOM     17  I   UNL     1       4.739  -6.376  27.910  0.00  0.00    -0.044 I 
ATOM     18  C   UNL     1       5.843  -4.840  25.548  0.00  0.00    +0.015 A 
ATOM     19  C   UNL     1       6.804  -4.131  24.816  0.00  0.00    +0.014 A 
ENDBRANCH   8  13
BRANCH   1  21
ATOM     20  C   UNL     1       6.873   2.979  28.378  0.00  0.00    +0.277 C 
ATOM     21  O   UNL     1       6.313   2.255  27.289  0.00  0.00    -0.495 OA
ENDBRANCH   1  21
BRANCH  11  22
ATOM     22  C   UNL     1       9.678   1.649  23.002  0.00  0.00    +0.158 C 
BRANCH  22  23
ATOM     23  C   UNL     1       8.698   2.066  21.921  0.00  0.00    +0.309 C 
ATOM     24  O   UNL     1       7.926   3.005  22.084  0.00  0.00    -0.251 OA
BRANCH  23  25
ATOM     25  O   UNL     1       8.675   1.351  20.779  0.00  0.00    -0.480 OA
ATOM     26  H   UNL     1       8.463   1.860  19.975  0.00  0.00    +0.295 HD
ENDBRANCH  23  25
ENDBRANCH  22  23
ENDBRANCH  11  22
TORSDOF 5
ENDMDL
MODEL 2
REMARK VINA RESULT:      -6.5      1.914      2.208
REMARK  Name = 
REMARK  7 active torsions:
REMARK  status: ('A' for Active; 'I' for Inactive)
REMARK    1  A    between atoms: C_1  and  O_2
REMARK    2  A    between atoms: O_2  and  C_3
REMARK    3  A    between atoms: C_8  and  C_10
REMARK    4  A    between atoms: C_17  and  C_18
REMARK    5  A    between atoms: C_19  and  C_20
REMARK    6  A    between atoms: C_20  and  C_21
REMARK    7  A    between atoms: C_21  and  O_22
REMARK                            x       y       z     vdW  Elec       q    Type
REMARK                         _______ _______ _______ _____ _____    ______ ____
ROOT
ATOM      1  C   UNL     1       5.367   0.340  25.371  0.00  0.00    +0.121 A 
ATOM      2  C   UNL     1       6.545   0.620  24.674  0.00  0.00    +0.056 A 
ATOM      3  C   UNL     1       7.510  -0.388  24.468  0.00  0.00    +0.008 A 
ATOM      4  C   UNL     1       7.247  -1.684  24.911  0.00  0.00    +0.057 A 
ATOM      5  N   UNL     1       8.253  -2.524  24.411  0.00  0.00    -0.280 N 
ATOM      6  C   UNL     1       9.278  -1.693  23.924  0.00  0.00    +0.028 A 
ATOM      7  C   UNL     1      10.591  -2.190  23.393  0.00  0.00    +0.064 C 
ATOM      8  C   UNL     1       8.226  -3.953  24.399  0.00  0.00    +0.263 C 
ATOM      9  O   UNL     1       9.306  -4.543  24.384  0.00  0.00    -0.267 OA
ATOM     10  C   UNL     1       6.120  -1.941  25.716  0.00  0.00    +0.030 A 
ATOM     11  C   UNL     1       8.827  -0.373  23.928  0.00  0.00    -0.008 A 
ATOM     12  C   UNL     1       5.180  -0.922  25.917  0.00  0.00    +0.048 A 
ENDROOT
BRANCH   8  13
ATOM     13  C   UNL     1       7.005  -4.811  24.427  0.00  0.00    +0.040 A 
ATOM     14  C   UNL     1       6.646  -5.422  25.639  0.00  0.00    +0.014 A 
ATOM     15  C   UNL     1       5.454  -6.142  25.750  0.00  0.00    +0.015 A 
ATOM     16  C   UNL     1       4.616  -6.263  24.644  0.00  0.00    +0.013 A 
ATOM     17  I   UNL     1       2.761  -7.175  24.849  0.00  0.00    -0.044 I 
ATOM     18  C   UNL     1       5.006  -5.746  23.408  0.00  0.00    +0.015 A 
ATOM     19  C   UNL     1       6.214  -5.048  23.292  0.00  0.00    +0.014 A 
ENDBRANCH   8  13
BRANCH   1  21
ATOM     20  C   UNL     1       4.644   2.431  24.501  0.00  0.00    +0.277 C 
ATOM     21  O   UNL     1       4.506   1.396  25.466  0.00  0.00    -0.495 OA
ENDBRANCH   1  21
BRANCH  11  22
ATOM     22  C   UNL     1       9.554   0.839  23.398  0.00  0.00    +0.158 C 
BRANCH  22  23
ATOM     23  C   UNL     1       9.560   1.079  21.900  0.00  0.00    +0.309 C 
ATOM     24  O   UNL     1       9.204   0.210  21.111  0.00  0.00    -0.251 OA
BRANCH  23  25
ATOM     25  O   UNL     1       9.997   2.273  21.452  0.00  0.00    -0.480 OA
ATOM     26  H   UNL     1      10.720   2.671  21.973  0.00  0.00    +0.295 HD
ENDBRANCH  23  25
ENDBRANCH  22  23
ENDBRANCH  11  22
TORSDOF 5
ENDMDL
MODEL 3
REMARK VINA RESULT:      -6.3      3.339      6.291
REMARK  Name = 
REMARK  7 active torsions:
REMARK  status: ('A' for Active; 'I' for Inactive)
REMARK    1  A    between atoms: C_1  and  O_2
REMARK    2  A    between atoms: O_2  and  C_3
REMARK    3  A    between atoms: C_8  and  C_10
REMARK    4  A    between atoms: C_17  and  C_18
REMARK    5  A    between atoms: C_19  and  C_20
REMARK    6  A    between atoms: C_20  and  C_21
REMARK    7  A    between atoms: C_21  and  O_22
REMARK                            x       y       z     vdW  Elec       q    Type
REMARK                         _______ _______ _______ _____ _____    ______ ____
ROOT
ATOM      1  C   UNL     1       5.839  -0.324  27.182  0.00  0.00    +0.121 A 
ATOM      2  C   UNL     1       5.979  -1.704  27.019  0.00  0.00    +0.056 A 
ATOM      3  C   UNL     1       6.576  -2.229  25.854  0.00  0.00    +0.008 A 
ATOM      4  C   UNL     1       7.086  -1.354  24.895  0.00  0.00    +0.057 A 
ATOM      5  N   UNL     1       7.797  -2.111  23.953  0.00  0.00    -0.280 N 
ATOM      6  C   UNL     1       7.466  -3.460  24.175  0.00  0.00    +0.028 A 
ATOM      7  C   UNL     1       7.932  -4.599  23.317  0.00  0.00    +0.064 C 
ATOM      8  C   UNL     1       8.691  -1.597  22.964  0.00  0.00    +0.263 C 
ATOM      9  O   UNL     1       8.864  -2.269  21.948  0.00  0.00    -0.267 OA
ATOM     10  C   UNL     1       6.839   0.029  24.999  0.00  0.00    +0.030 A 
ATOM     11  C   UNL     1       6.734  -3.554  25.358  0.00  0.00    -0.008 A 
ATOM     12  C   UNL     1       6.234   0.529  26.159  0.00  0.00    +0.048 A 
ENDROOT
BRANCH   8  13
ATOM     13  C   UNL     1       9.428  -0.300  23.032  0.00  0.00    +0.040 A 
ATOM     14  C   UNL     1       9.242   0.627  21.993  0.00  0.00    +0.014 A 
ATOM     15  C   UNL     1       9.818   1.899  22.061  0.00  0.00    +0.015 A 
ATOM     16  C   UNL     1      10.590   2.249  23.167  0.00  0.00    +0.013 A 
ATOM     17  I   UNL     1      11.294   4.193  23.360  0.00  0.00    -0.044 I 
ATOM     18  C   UNL     1      10.863   1.306  24.158  0.00  0.00    +0.015 A 
ATOM     19  C   UNL     1      10.309   0.022  24.075  0.00  0.00    +0.014 A 
ENDBRANCH   8  13
BRANCH   1  21
ATOM     20  C   UNL     1       5.557   1.363  28.833  0.00  0.00    +0.277 C 
ATOM     21  O   UNL     1       5.277   0.048  28.370  0.00  0.00    -0.495 OA
ENDBRANCH   1  21
BRANCH  11  22
ATOM     22  C   UNL     1       6.255  -4.816  26.036  0.00  0.00    +0.158 C 
BRANCH  22  23
ATOM     23  C   UNL     1       7.129  -5.432  27.112  0.00  0.00    +0.309 C 
ATOM     24  O   UNL     1       6.818  -5.380  28.298  0.00  0.00    -0.251 OA
BRANCH  23  25
ATOM     25  O   UNL     1       8.283  -6.017  26.733  0.00  0.00    -0.480 OA
ATOM     26  H   UNL     1       8.982  -5.403  26.440  0.00  0.00    +0.295 HD
ENDBRANCH  23  25
ENDBRANCH  22  23
ENDBRANCH  11  22
TORSDOF 5
ENDMDL
MODEL 4
REMARK VINA RESULT:      -6.2      2.119      2.438
REMARK  Name = 
REMARK  7 active torsions:
REMARK  status: ('A' for Active; 'I' for Inactive)
REMARK    1  A    between atoms: C_1  and  O_2
REMARK    2  A    between atoms: O_2  and  C_3
REMARK    3  A    between atoms: C_8  and  C_10
REMARK    4  A    between atoms: C_17  and  C_18
REMARK    5  A    between atoms: C_19  and  C_20
REMARK    6  A    between atoms: C_20  and  C_21
REMARK    7  A    between atoms: C_21  and  O_22
REMARK                            x       y       z     vdW  Elec       q    Type
REMARK                         _______ _______ _______ _____ _____    ______ ____
ROOT
ATOM      1  C   UNL     1       6.936   0.543  27.235  0.00  0.00    +0.121 A 
ATOM      2  C   UNL     1       7.471   1.472  26.339  0.00  0.00    +0.056 A 
ATOM      3  C   UNL     1       8.074   1.041  25.138  0.00  0.00    +0.008 A 
ATOM      4  C   UNL     1       8.070  -0.317  24.823  0.00  0.00    +0.057 A 
ATOM      5  N   UNL     1       8.536  -0.457  23.508  0.00  0.00    -0.280 N 
ATOM      6  C   UNL     1       9.100   0.777  23.138  0.00  0.00    +0.028 A 
ATOM      7  C   UNL     1       9.807   1.030  21.838  0.00  0.00    +0.064 C 
ATOM      8  C   UNL     1       8.443  -1.635  22.704  0.00  0.00    +0.263 C 
ATOM      9  O   UNL     1       9.270  -1.777  21.804  0.00  0.00    -0.267 OA
ATOM     10  C   UNL     1       7.642  -1.263  25.776  0.00  0.00    +0.030 A 
ATOM     11  C   UNL     1       8.802   1.720  24.120  0.00  0.00    -0.008 A 
ATOM     12  C   UNL     1       7.058  -0.813  26.967  0.00  0.00    +0.048 A 
ENDROOT
BRANCH   8  13
ATOM     13  C   UNL     1       7.445  -2.735  22.865  0.00  0.00    +0.040 A 
ATOM     14  C   UNL     1       7.898  -3.986  23.314  0.00  0.00    +0.014 A 
ATOM     15  C   UNL     1       6.994  -5.015  23.589  0.00  0.00    +0.015 A 
ATOM     16  C   UNL     1       5.629  -4.801  23.408  0.00  0.00    +0.013 A 
ATOM     17  I   UNL     1       4.270  -6.261  23.986  0.00  0.00    -0.044 I 
ATOM     18  C   UNL     1       5.173  -3.597  22.870  0.00  0.00    +0.015 A 
ATOM     19  C   UNL     1       6.083  -2.576  22.568  0.00  0.00    +0.014 A 
ENDBRANCH   8  13
BRANCH   1  21
ATOM     20  C   UNL     1       7.223   1.643  29.323  0.00  0.00    +0.277 C 
ATOM     21  O   UNL     1       6.353   1.099  28.338  0.00  0.00    -0.495 OA
ENDBRANCH   1  21
BRANCH  11  22
ATOM     22  C   UNL     1       9.119   3.196  24.093  0.00  0.00    +0.158 C 
BRANCH  22  23
ATOM     23  C   UNL     1       8.092   4.143  23.500  0.00  0.00    +0.309 C 
ATOM     24  O   UNL     1       7.306   4.762  24.211  0.00  0.00    -0.251 OA
BRANCH  23  25
ATOM     25  O   UNL     1       8.046   4.266  22.159  0.00  0.00    -0.480 OA
ATOM     26  H   UNL     1       8.532   5.029  21.795  0.00  0.00    +0.295 HD
ENDBRANCH  23  25
ENDBRANCH  22  23
ENDBRANCH  11  22
TORSDOF 5
ENDMDL
MODEL 5
REMARK VINA RESULT:      -6.1      3.554      6.434
REMARK  Name = 
REMARK  7 active torsions:
REMARK  status: ('A' for Active; 'I' for Inactive)
REMARK    1  A    between atoms: C_1  and  O_2
REMARK    2  A    between atoms: O_2  and  C_3
REMARK    3  A    between atoms: C_8  and  C_10
REMARK    4  A    between atoms: C_17  and  C_18
REMARK    5  A    between atoms: C_19  and  C_20
REMARK    6  A    between atoms: C_20  and  C_21
REMARK    7  A    between atoms: C_21  and  O_22
REMARK                            x       y       z     vdW  Elec       q    Type
REMARK                         _______ _______ _______ _____ _____    ______ ____
ROOT
ATOM      1  C   UNL     1       5.211  -0.805  27.049  0.00  0.00    +0.121 A 
ATOM      2  C   UNL     1       6.278  -1.706  27.045  0.00  0.00    +0.056 A 
ATOM      3  C   UNL     1       7.180  -1.741  25.961  0.00  0.00    +0.008 A 
ATOM      4  C   UNL     1       7.034  -0.821  24.923  0.00  0.00    +0.057 A 
ATOM      5  N   UNL     1       8.156  -0.928  24.088  0.00  0.00    -0.280 N 
ATOM      6  C   UNL     1       8.827  -2.109  24.452  0.00  0.00    +0.028 A 
ATOM      7  C   UNL     1      10.029  -2.655  23.738  0.00  0.00    +0.064 C 
ATOM      8  C   UNL     1       8.538  -0.001  23.070  0.00  0.00    +0.263 C 
ATOM      9  O   UNL     1       9.222  -0.427  22.140  0.00  0.00    -0.267 OA
ATOM     10  C   UNL     1       5.893   0.004  24.865  0.00  0.00    +0.030 A 
ATOM     11  C   UNL     1       8.254  -2.611  25.621  0.00  0.00    -0.008 A 
ATOM     12  C   UNL     1       5.004   0.014  25.947  0.00  0.00    +0.048 A 
ENDROOT
BRANCH   8  13
ATOM     13  C   UNL     1       8.166   1.444  23.010  0.00  0.00    +0.040 A 
ATOM     14  C   UNL     1       8.733   2.319  23.950  0.00  0.00    +0.014 A 
ATOM     15  C   UNL     1       8.508   3.696  23.870  0.00  0.00    +0.015 A 
ATOM     16  C   UNL     1       7.706   4.205  22.851  0.00  0.00    +0.013 A 
ATOM     17  I   UNL     1       7.515   6.260  22.617  0.00  0.00    -0.044 I 
ATOM     18  C   UNL     1       7.057   3.340  21.970  0.00  0.00    +0.015 A 
ATOM     19  C   UNL     1       7.261   1.958  22.069  0.00  0.00    +0.014 A 
ENDBRANCH   8  13
BRANCH   1  21
ATOM     20  C   UNL     1       4.500   0.264  29.049  0.00  0.00    +0.277 C 
ATOM     21  O   UNL     1       4.438  -0.855  28.174  0.00  0.00    -0.495 OA
ENDBRANCH   1  21
BRANCH  11  22
ATOM     22  C   UNL     1       8.717  -3.803  26.423  0.00  0.00    +0.158 C 
BRANCH  22  23
ATOM     23  C   UNL     1       7.841  -5.043  26.440  0.00  0.00    +0.309 C 
ATOM     24  O   UNL     1       7.078  -5.301  25.515  0.00  0.00    -0.251 OA
BRANCH  23  25
ATOM     25  O   UNL     1       7.903  -5.846  27.521  0.00  0.00    -0.480 OA
ATOM     26  H   UNL     1       7.136  -6.436  27.643  0.00  0.00    +0.295 HD
ENDBRANCH  23  25
ENDBRANCH  22  23
ENDBRANCH  11  22
TORSDOF 5
ENDMDL
MODEL 6
REMARK VINA RESULT:      -5.9      2.549      4.556
REMARK  Name = 
REMARK  7 active torsions:
REMARK  status: ('A' for Active; 'I' for Inactive)
REMARK    1  A    between atoms: C_1  and  O_2
REMARK    2  A    between atoms: O_2  and  C_3
REMARK    3  A    between atoms: C_8  and  C_10
REMARK    4  A    between atoms: C_17  and  C_18
REMARK    5  A    between atoms: C_19  and  C_20
REMARK    6  A    between atoms: C_20  and  C_21
REMARK    7  A    between atoms: C_21  and  O_22
REMARK                            x       y       z     vdW  Elec       q    Type
REMARK                         _______ _______ _______ _____ _____    ______ ____
ROOT
ATOM      1  C   UNL     1       6.015  -3.692  21.796  0.00  0.00    +0.121 A 
ATOM      2  C   UNL     1       7.187  -2.934  21.848  0.00  0.00    +0.056 A 
ATOM      3  C   UNL     1       7.483  -2.151  22.984  0.00  0.00    +0.008 A 
ATOM      4  C   UNL     1       6.624  -2.193  24.082  0.00  0.00    +0.057 A 
ATOM      5  N   UNL     1       7.237  -1.501  25.137  0.00  0.00    -0.280 N 
ATOM      6  C   UNL     1       8.321  -0.792  24.588  0.00  0.00    +0.028 A 
ATOM      7  C   UNL     1       9.187   0.161  25.359  0.00  0.00    +0.064 C 
ATOM      8  C   UNL     1       6.832  -1.527  26.507  0.00  0.00    +0.263 C 
ATOM      9  O   UNL     1       7.128  -0.559  27.207  0.00  0.00    -0.267 OA
ATOM     10  C   UNL     1       5.385  -2.857  23.986  0.00  0.00    +0.030 A 
ATOM     11  C   UNL     1       8.503  -1.200  23.267  0.00  0.00    -0.008 A 
ATOM     12  C   UNL     1       5.107  -3.619  22.844  0.00  0.00    +0.048 A 
ENDROOT
BRANCH   8  13
ATOM     13  C   UNL     1       6.055  -2.612  27.175  0.00  0.00    +0.040 A 
ATOM     14  C   UNL     1       6.619  -3.897  27.235  0.00  0.00    +0.014 A 
ATOM     15  C   UNL     1       5.988  -4.922  27.945  0.00  0.00    +0.015 A 
ATOM     16  C   UNL     1       4.782  -4.668  28.595  0.00  0.00    +0.013 A 
ATOM     17  I   UNL     1       3.932  -6.131  29.800  0.00  0.00    -0.044 I 
ATOM     18  C   UNL     1       4.161  -3.426  28.463  0.00  0.00    +0.015 A 
ATOM     19  C   UNL     1       4.781  -2.408  27.728  0.00  0.00    +0.014 A 
ENDBRANCH   8  13
BRANCH   1  21
ATOM     20  C   UNL     1       6.179  -5.814  20.739  0.00  0.00    +0.277 C 
ATOM     21  O   UNL     1       5.872  -4.429  20.655  0.00  0.00    -0.495 OA
ENDBRANCH   1  21
BRANCH  11  22
ATOM     22  C   UNL     1       9.607  -0.778  22.327  0.00  0.00    +0.158 C 
BRANCH  22  23
ATOM     23  C   UNL     1       9.601   0.646  21.802  0.00  0.00    +0.309 C 
ATOM     24  O   UNL     1      10.323   1.510  22.287  0.00  0.00    -0.251 OA
BRANCH  23  25
ATOM     25  O   UNL     1       8.753   0.945  20.798  0.00  0.00    -0.480 OA
ATOM     26  H   UNL     1       9.172   1.082  19.928  0.00  0.00    +0.295 HD
ENDBRANCH  23  25
ENDBRANCH  22  23
ENDBRANCH  11  22
TORSDOF 5
ENDMDL
MODEL 7
REMARK VINA RESULT:      -5.8      3.462      6.544
REMARK  Name = 
REMARK  7 active torsions:
REMARK  status: ('A' for Active; 'I' for Inactive)
REMARK    1  A    between atoms: C_1  and  O_2
REMARK    2  A    between atoms: O_2  and  C_3
REMARK    3  A    between atoms: C_8  and  C_10
REMARK    4  A    between atoms: C_17  and  C_18
REMARK    5  A    between atoms: C_19  and  C_20
REMARK    6  A    between atoms: C_20  and  C_21
REMARK    7  A    between atoms: C_21  and  O_22
REMARK                            x       y       z     vdW  Elec       q    Type
REMARK                         _______ _______ _______ _____ _____    ______ ____
ROOT
ATOM      1  C   UNL     1       5.717  -0.735  26.326  0.00  0.00    +0.121 A 
ATOM      2  C   UNL     1       6.767  -1.620  26.074  0.00  0.00    +0.056 A 
ATOM      3  C   UNL     1       7.648  -1.396  24.996  0.00  0.00    +0.008 A 
ATOM      4  C   UNL     1       7.500  -0.245  24.223  0.00  0.00    +0.057 A 
ATOM      5  N   UNL     1       8.604  -0.156  23.363  0.00  0.00    -0.280 N 
ATOM      6  C   UNL     1       9.260  -1.400  23.406  0.00  0.00    +0.028 A 
ATOM      7  C   UNL     1      10.438  -1.767  22.552  0.00  0.00    +0.064 C 
ATOM      8  C   UNL     1       8.985   0.990  22.599  0.00  0.00    +0.263 C 
ATOM      9  O   UNL     1       9.643   0.800  21.577  0.00  0.00    -0.267 OA
ATOM     10  C   UNL     1       6.374   0.584  24.398  0.00  0.00    +0.030 A 
ATOM     11  C   UNL     1       8.699  -2.169  24.426  0.00  0.00    -0.008 A 
ATOM     12  C   UNL     1       5.505   0.336  25.468  0.00  0.00    +0.048 A 
ENDROOT
BRANCH   8  13
ATOM     13  C   UNL     1       8.639   2.409  22.908  0.00  0.00    +0.040 A 
ATOM     14  C   UNL     1       7.690   3.056  22.100  0.00  0.00    +0.014 A 
ATOM     15  C   UNL     1       7.247   4.344  22.411  0.00  0.00    +0.015 A 
ATOM     16  C   UNL     1       7.757   4.997  23.531  0.00  0.00    +0.013 A 
ATOM     17  I   UNL     1       6.972   6.833  24.102  0.00  0.00    -0.044 I 
ATOM     18  C   UNL     1       8.771   4.407  24.287  0.00  0.00    +0.015 A 
ATOM     19  C   UNL     1       9.234   3.127  23.957  0.00  0.00    +0.014 A 
ENDBRANCH   8  13
BRANCH   1  21
ATOM     20  C   UNL     1       3.860  -0.205  27.713  0.00  0.00    +0.277 C 
ATOM     21  O   UNL     1       4.964  -1.052  27.421  0.00  0.00    -0.495 OA
ENDBRANCH   1  21
BRANCH  11  22
ATOM     22  C   UNL     1       9.154  -3.530  24.895  0.00  0.00    +0.158 C 
BRANCH  22  23
ATOM     23  C   UNL     1       8.284  -4.731  24.572  0.00  0.00    +0.309 C 
ATOM     24  O   UNL     1       8.335  -5.282  23.477  0.00  0.00    -0.251 OA
BRANCH  23  25
ATOM     25  O   UNL     1       7.426  -5.163  25.517  0.00  0.00    -0.480 OA
ATOM     26  H   UNL     1       6.607  -5.570  25.178  0.00  0.00    +0.295 HD
ENDBRANCH  23  25
ENDBRANCH  22  23
ENDBRANCH  11  22
TORSDOF 5
ENDMDL
MODEL 8
REMARK VINA RESULT:      -5.7      2.693      3.581
REMARK  Name = 
REMARK  7 active torsions:
REMARK  status: ('A' for Active; 'I' for Inactive)
REMARK    1  A    between atoms: C_1  and  O_2
REMARK    2  A    between atoms: O_2  and  C_3
REMARK    3  A    between atoms: C_8  and  C_10
REMARK    4  A    between atoms: C_17  and  C_18
REMARK    5  A    between atoms: C_19  and  C_20
REMARK    6  A    between atoms: C_20  and  C_21
REMARK    7  A    between atoms: C_21  and  O_22
REMARK                            x       y       z     vdW  Elec       q    Type
REMARK                         _______ _______ _______ _____ _____    ______ ____
ROOT
ATOM      1  C   UNL     1       5.111   1.921  25.479  0.00  0.00    +0.121 A 
ATOM      2  C   UNL     1       5.970   2.930  25.037  0.00  0.00    +0.056 A 
ATOM      3  C   UNL     1       7.310   2.636  24.709  0.00  0.00    +0.008 A 
ATOM      4  C   UNL     1       7.751   1.314  24.768  0.00  0.00    +0.057 A 
ATOM      5  N   UNL     1       9.035   1.262  24.207  0.00  0.00    -0.280 N 
ATOM      6  C   UNL     1       9.485   2.589  24.086  0.00  0.00    +0.028 A 
ATOM      7  C   UNL     1      10.858   2.979  23.621  0.00  0.00    +0.064 C 
ATOM      8  C   UNL     1       9.739   0.078  23.827  0.00  0.00    +0.263 C 
ATOM      9  O   UNL     1      10.969   0.129  23.803  0.00  0.00    -0.267 OA
ATOM     10  C   UNL     1       6.927   0.318  25.326  0.00  0.00    +0.030 A 
ATOM     11  C   UNL     1       8.426   3.451  24.367  0.00  0.00    -0.008 A 
ATOM     12  C   UNL     1       5.603   0.635  25.656  0.00  0.00    +0.048 A 
ENDROOT
BRANCH   8  13
ATOM     13  C   UNL     1       9.126  -1.237  23.475  0.00  0.00    +0.040 A 
ATOM     14  C   UNL     1       9.395  -2.341  24.300  0.00  0.00    +0.014 A 
ATOM     15  C   UNL     1       8.760  -3.567  24.083  0.00  0.00    +0.015 A 
ATOM     16  C   UNL     1       7.854  -3.696  23.032  0.00  0.00    +0.013 A 
ATOM     17  I   UNL     1       6.771  -5.456  22.814  0.00  0.00    -0.044 I 
ATOM     18  C   UNL     1       7.650  -2.638  22.146  0.00  0.00    +0.015 A 
ATOM     19  C   UNL     1       8.310  -1.419  22.348  0.00  0.00    +0.014 A 
ENDBRANCH   8  13
BRANCH   1  21
ATOM     20  C   UNL     1       3.592   3.738  25.680  0.00  0.00    +0.277 C 
ATOM     21  O   UNL     1       3.834   2.338  25.727  0.00  0.00    -0.495 OA
ENDBRANCH   1  21
BRANCH  11  22
ATOM     22  C   UNL     1       8.424   4.957  24.264  0.00  0.00    +0.158 C 
BRANCH  22  23
ATOM     23  C   UNL     1       8.009   5.589  22.949  0.00  0.00    +0.309 C 
ATOM     24  O   UNL     1       7.973   6.807  22.807  0.00  0.00    -0.251 OA
BRANCH  23  25
ATOM     25  O   UNL     1       7.648   4.771  21.941  0.00  0.00    -0.480 OA
ATOM     26  H   UNL     1       7.820   5.116  21.045  0.00  0.00    +0.295 HD
ENDBRANCH  23  25
ENDBRANCH  22  23
ENDBRANCH  11  22
TORSDOF 5
ENDMDL
MODEL 9
REMARK VINA RESULT:      -5.7      2.808      4.965
REMARK  Name = 
REMARK  7 active torsions:
REMARK  status: ('A' for Active; 'I' for Inactive)
REMARK    1  A    between atoms: C_1  and  O_2
REMARK    2  A    between atoms: O_2  and  C_3
REMARK    3  A    between atoms: C_8  and  C_10
REMARK    4  A    between atoms: C_17  and  C_18
REMARK    5  A    between atoms: C_19  and  C_20
REMARK    6  A    between atoms: C_20  and  C_21
REMARK    7  A    between atoms: C_21  and  O_22
REMARK                            x       y       z     vdW  Elec       q    Type
REMARK                         _______ _______ _______ _____ _____    ______ ____
ROOT
ATOM      1  C   UNL     1       5.687  -3.894  22.052  0.00  0.00    +0.121 A 
ATOM      2  C   UNL     1       6.628  -2.862  22.083  0.00  0.00    +0.056 A 
ATOM      3  C   UNL     1       6.699  -1.993  23.192  0.00  0.00    +0.008 A 
ATOM      4  C   UNL     1       5.863  -2.215  24.287  0.00  0.00    +0.057 A 
ATOM      5  N   UNL     1       6.266  -1.356  25.319  0.00  0.00    -0.280 N 
ATOM      6  C   UNL     1       7.142  -0.413  24.752  0.00  0.00    +0.028 A 
ATOM      7  C   UNL     1       7.728   0.753  25.493  0.00  0.00    +0.064 C 
ATOM      8  C   UNL     1       5.862  -1.439  26.687  0.00  0.00    +0.263 C 
ATOM      9  O   UNL     1       5.893  -0.405  27.354  0.00  0.00    -0.267 OA
ATOM     10  C   UNL     1       4.836  -3.175  24.208  0.00  0.00    +0.030 A 
ATOM     11  C   UNL     1       7.441  -0.805  23.447  0.00  0.00    -0.008 A 
ATOM     12  C   UNL     1       4.776  -4.020  23.092  0.00  0.00    +0.048 A 
ENDROOT
BRANCH   8  13
ATOM     13  C   UNL     1       5.377  -2.664  27.390  0.00  0.00    +0.040 A 
ATOM     14  C   UNL     1       4.105  -2.632  27.985  0.00  0.00    +0.014 A 
ATOM     15  C   UNL     1       3.556  -3.782  28.557  0.00  0.00    +0.015 A 
ATOM     16  C   UNL     1       4.281  -4.972  28.544  0.00  0.00    +0.013 A 
ATOM     17  I   UNL     1       3.399  -6.725  29.227  0.00  0.00    -0.044 I 
ATOM     18  C   UNL     1       5.583  -4.995  28.044  0.00  0.00    +0.015 A 
ATOM     19  C   UNL     1       6.143  -3.834  27.497  0.00  0.00    +0.014 A 
ENDBRANCH   8  13
BRANCH   1  21
ATOM     20  C   UNL     1       6.470  -5.902  21.049  0.00  0.00    +0.277 C 
ATOM     21  O   UNL     1       5.752  -4.680  20.937  0.00  0.00    -0.495 OA
ENDBRANCH   1  21
BRANCH  11  22
ATOM     22  C   UNL     1       8.414  -0.148  22.498  0.00  0.00    +0.158 C 
BRANCH  22  23
ATOM     23  C   UNL     1       9.845  -0.652  22.471  0.00  0.00    +0.309 C 
ATOM     24  O   UNL     1      10.672  -0.278  23.296  0.00  0.00    -0.251 OA
BRANCH  23  25
ATOM     25  O   UNL     1      10.195  -1.508  21.490  0.00  0.00    -0.480 OA
ATOM     26  H   UNL     1       9.872  -1.273  20.600  0.00  0.00    +0.295 HD
ENDBRANCH  23  25
ENDBRANCH  22  23
ENDBRANCH  11  22
TORSDOF 5
ENDMDL
