MODEL 1
REMARK VINA RESULT:      -6.1      0.000      0.000
REMARK  Name = 
REMARK  5 active torsions:
REMARK  status: ('A' for Active; 'I' for Inactive)
REMARK    1  A    between atoms: N_9  and  C_10
REMARK    2  A    between atoms: C_10  and  O_11
REMARK    3  A    between atoms: O_11  and  C_12
REMARK    4  A    between atoms: C_12  and  C_13
REMARK    5  A    between atoms: C_13  and  O_14
REMARK                            x       y       z     vdW  Elec       q    Type
REMARK                         _______ _______ _______ _____ _____    ______ ____
ROOT
ATOM      1  N   UNL     1       9.134  -0.562  27.049  0.00  0.00    -0.329 N 
ATOM      2  H   UNL     1       8.714   0.218  27.536  0.00  0.00    +0.145 HD
ATOM      3  H   UNL     1       8.728  -1.447  27.342  0.00  0.00    +0.145 HD
ATOM      4  C   UNL     1       9.161  -0.468  25.697  0.00  0.00    +0.195 A 
ATOM      5  N   UNL     1       9.473   0.793  25.249  0.00  0.00    -0.312 N 
ATOM      6  H   UNL     1       9.857   1.456  25.910  0.00  0.00    +0.170 HD
ATOM      7  C   UNL     1       9.609   0.931  23.921  0.00  0.00    +0.148 A 
ATOM      8  N   UNL     1       9.998   2.004  23.187  0.00  0.00    -0.292 N 
ATOM      9  C   UNL     1       9.981   1.593  21.876  0.00  0.00    +0.203 A 
ATOM     10  N   UNL     1       9.609   0.332  21.752  0.00  0.00    -0.229 NA
ATOM     11  C   UNL     1       9.382  -0.097  23.043  0.00  0.00    +0.172 A 
ATOM     12  C   UNL     1       8.982  -1.413  23.561  0.00  0.00    +0.302 A 
ATOM     13  O   UNL     1       8.727  -2.359  22.825  0.00  0.00    -0.263 OA
ATOM     14  N   UNL     1       8.917  -1.510  24.958  0.00  0.00    -0.176 NA
ENDROOT
BRANCH   8  15
ATOM     15  C   UNL     1      10.289   3.346  23.645  0.00  0.00    +0.287 C 
BRANCH  15  16
ATOM     16  O   UNL     1      11.652   3.647  23.341  0.00  0.00    -0.357 OA
BRANCH  16  17
ATOM     17  C   UNL     1      11.897   5.055  23.437  0.00  0.00    +0.190 C 
BRANCH  17  18
ATOM     18  C   UNL     1      13.076   5.414  22.538  0.00  0.00    +0.184 C 
BRANCH  18  19
ATOM     19  O   UNL     1      14.301   5.075  23.181  0.00  0.00    -0.393 OA
ATOM     20  H   UNL     1      14.084   4.932  24.122  0.00  0.00    +0.209 HD
ENDBRANCH  18  19
ENDBRANCH  17  18
ENDBRANCH  16  17
ENDBRANCH  15  16
ENDBRANCH   8  15
TORSDOF 5
ENDMDL
MODEL 2
REMARK VINA RESULT:      -5.8      6.984      8.348
REMARK  Name = 
REMARK  5 active torsions:
REMARK  status: ('A' for Active; 'I' for Inactive)
REMARK    1  A    between atoms: N_9  and  C_10
REMARK    2  A    between atoms: C_10  and  O_11
REMARK    3  A    between atoms: O_11  and  C_12
REMARK    4  A    between atoms: C_12  and  C_13
REMARK    5  A    between atoms: C_13  and  O_14
REMARK                            x       y       z     vdW  Elec       q    Type
REMARK                         _______ _______ _______ _____ _____    ______ ____
ROOT
ATOM      1  N   UNL     1       4.837  -7.151  26.622  0.00  0.00    -0.329 N 
ATOM      2  H   UNL     1       5.231  -6.639  27.399  0.00  0.00    +0.145 HD
ATOM      3  H   UNL     1       3.922  -7.531  26.853  0.00  0.00    +0.145 HD
ATOM      4  C   UNL     1       4.800  -6.491  25.439  0.00  0.00    +0.195 A 
ATOM      5  N   UNL     1       5.937  -5.757  25.195  0.00  0.00    -0.312 N 
ATOM      6  H   UNL     1       6.753  -5.932  25.767  0.00  0.00    +0.170 HD
ATOM      7  C   UNL     1       6.005  -5.156  23.997  0.00  0.00    +0.148 A 
ATOM      8  N   UNL     1       7.014  -4.452  23.426  0.00  0.00    -0.292 N 
ATOM      9  C   UNL     1       6.561  -4.077  22.184  0.00  0.00    +0.203 A 
ATOM     10  N   UNL     1       5.335  -4.507  21.949  0.00  0.00    -0.229 NA
ATOM     11  C   UNL     1       4.980  -5.201  23.087  0.00  0.00    +0.172 A 
ATOM     12  C   UNL     1       3.754  -5.940  23.417  0.00  0.00    +0.302 A 
ATOM     13  O   UNL     1       2.789  -5.982  22.663  0.00  0.00    -0.263 OA
ATOM     14  N   UNL     1       3.768  -6.597  24.655  0.00  0.00    -0.176 NA
ENDROOT
BRANCH   8  15
ATOM     15  C   UNL     1       8.285  -4.074  24.008  0.00  0.00    +0.287 C 
BRANCH  15  16
ATOM     16  O   UNL     1       9.037  -5.259  24.272  0.00  0.00    -0.357 OA
BRANCH  16  17
ATOM     17  C   UNL     1       9.763  -5.140  25.502  0.00  0.00    +0.190 C 
BRANCH  17  18
ATOM     18  C   UNL     1       8.835  -4.572  26.570  0.00  0.00    +0.184 C 
BRANCH  18  19
ATOM     19  O   UNL     1       8.165  -5.630  27.247  0.00  0.00    -0.393 OA
ATOM     20  H   UNL     1       8.489  -6.459  26.846  0.00  0.00    +0.209 HD
ENDBRANCH  18  19
ENDBRANCH  17  18
ENDBRANCH  16  17
ENDBRANCH  15  16
ENDBRANCH   8  15
TORSDOF 5
ENDMDL
MODEL 3
REMARK VINA RESULT:      -5.8      5.577      8.443
REMARK  Name = 
REMARK  5 active torsions:
REMARK  status: ('A' for Active; 'I' for Inactive)
REMARK    1  A    between atoms: N_9  and  C_10
REMARK    2  A    between atoms: C_10  and  O_11
REMARK    3  A    between atoms: O_11  and  C_12
REMARK    4  A    between atoms: C_12  and  C_13
REMARK    5  A    between atoms: C_13  and  O_14
REMARK                            x       y       z     vdW  Elec       q    Type
REMARK                         _______ _______ _______ _____ _____    ______ ____
ROOT
ATOM      1  N   UNL     1      10.245  -5.494  25.766  0.00  0.00    -0.329 N 
ATOM      2  H   UNL     1      10.177  -6.502  25.726  0.00  0.00    +0.145 HD
ATOM      3  H   UNL     1      11.186  -5.175  25.549  0.00  0.00    +0.145 HD
ATOM      4  C   UNL     1       9.325  -4.811  25.042  0.00  0.00    +0.195 A 
ATOM      5  N   UNL     1       8.067  -5.359  25.114  0.00  0.00    -0.312 N 
ATOM      6  H   UNL     1       7.883  -6.047  25.833  0.00  0.00    +0.170 HD
ATOM      7  C   UNL     1       7.090  -4.676  24.497  0.00  0.00    +0.148 A 
ATOM      8  N   UNL     1       5.752  -4.898  24.464  0.00  0.00    -0.292 N 
ATOM      9  C   UNL     1       5.217  -3.886  23.702  0.00  0.00    +0.203 A 
ATOM     10  N   UNL     1       6.141  -3.051  23.263  0.00  0.00    -0.229 NA
ATOM     11  C   UNL     1       7.327  -3.537  23.771  0.00  0.00    +0.172 A 
ATOM     12  C   UNL     1       8.700  -3.025  23.662  0.00  0.00    +0.302 A 
ATOM     13  O   UNL     1       8.981  -2.036  22.995  0.00  0.00    -0.263 OA
ATOM     14  N   UNL     1       9.665  -3.745  24.379  0.00  0.00    -0.176 NA
ENDROOT
BRANCH   8  15
ATOM     15  C   UNL     1       5.013  -6.009  25.026  0.00  0.00    +0.287 C 
BRANCH  15  16
ATOM     16  O   UNL     1       5.725  -6.504  26.160  0.00  0.00    -0.357 OA
BRANCH  16  17
ATOM     17  C   UNL     1       5.244  -5.902  27.368  0.00  0.00    +0.190 C 
BRANCH  17  18
ATOM     18  C   UNL     1       6.338  -5.980  28.429  0.00  0.00    +0.184 C 
BRANCH  18  19
ATOM     19  O   UNL     1       7.620  -5.991  27.808  0.00  0.00    -0.393 OA
ATOM     20  H   UNL     1       8.142  -6.672  28.273  0.00  0.00    +0.209 HD
ENDBRANCH  18  19
ENDBRANCH  17  18
ENDBRANCH  16  17
ENDBRANCH  15  16
ENDBRANCH   8  15
TORSDOF 5
ENDMDL
MODEL 4
REMARK VINA RESULT:      -5.8      3.534      4.899
REMARK  Name = 
REMARK  5 active torsions:
REMARK  status: ('A' for Active; 'I' for Inactive)
REMARK    1  A    between atoms: N_9  and  C_10
REMARK    2  A    between atoms: C_10  and  O_11
REMARK    3  A    between atoms: O_11  and  C_12
REMARK    4  A    between atoms: C_12  and  C_13
REMARK    5  A    between atoms: C_13  and  O_14
REMARK                            x       y       z     vdW  Elec       q    Type
REMARK                         _______ _______ _______ _____ _____    ______ ____
ROOT
ATOM      1  N   UNL     1      10.271  -5.484  25.713  0.00  0.00    -0.329 N 
ATOM      2  H   UNL     1      11.059  -4.874  25.881  0.00  0.00    +0.145 HD
ATOM      3  H   UNL     1      10.083  -6.079  26.517  0.00  0.00    +0.145 HD
ATOM      4  C   UNL     1       9.136  -4.878  25.286  0.00  0.00    +0.195 A 
ATOM      5  N   UNL     1       9.369  -3.885  24.365  0.00  0.00    -0.312 N 
ATOM      6  H   UNL     1      10.282  -3.836  23.931  0.00  0.00    +0.170 HD
ATOM      7  C   UNL     1       8.281  -3.309  23.830  0.00  0.00    +0.148 A 
ATOM      8  N   UNL     1       8.174  -2.384  22.844  0.00  0.00    -0.292 N 
ATOM      9  C   UNL     1       6.829  -2.159  22.677  0.00  0.00    +0.203 A 
ATOM     10  N   UNL     1       6.096  -2.890  23.496  0.00  0.00    -0.229 NA
ATOM     11  C   UNL     1       7.006  -3.629  24.222  0.00  0.00    +0.172 A 
ATOM     12  C   UNL     1       6.806  -4.648  25.261  0.00  0.00    +0.302 A 
ATOM     13  O   UNL     1       5.694  -4.948  25.681  0.00  0.00    -0.263 OA
ATOM     14  N   UNL     1       7.976  -5.256  25.736  0.00  0.00    -0.176 NA
ENDROOT
BRANCH   8  15
ATOM     15  C   UNL     1       9.236  -1.686  22.151  0.00  0.00    +0.287 C 
BRANCH  15  16
ATOM     16  O   UNL     1      10.136  -1.145  23.119  0.00  0.00    -0.357 OA
BRANCH  16  17
ATOM     17  C   UNL     1      10.081   0.287  23.124  0.00  0.00    +0.190 C 
BRANCH  17  18
ATOM     18  C   UNL     1       9.586   0.766  21.763  0.00  0.00    +0.184 C 
BRANCH  18  19
ATOM     19  O   UNL     1      10.035   2.096  21.521  0.00  0.00    -0.393 OA
ATOM     20  H   UNL     1       9.363   2.510  20.945  0.00  0.00    +0.209 HD
ENDBRANCH  18  19
ENDBRANCH  17  18
ENDBRANCH  16  17
ENDBRANCH  15  16
ENDBRANCH   8  15
TORSDOF 5
ENDMDL
MODEL 5
REMARK VINA RESULT:      -5.7      5.285      6.856
REMARK  Name = 
REMARK  5 active torsions:
REMARK  status: ('A' for Active; 'I' for Inactive)
REMARK    1  A    between atoms: N_9  and  C_10
REMARK    2  A    between atoms: C_10  and  O_11
REMARK    3  A    between atoms: O_11  and  C_12
REMARK    4  A    between atoms: C_12  and  C_13
REMARK    5  A    between atoms: C_13  and  O_14
REMARK                            x       y       z     vdW  Elec       q    Type
REMARK                         _______ _______ _______ _____ _____    ______ ____
ROOT
ATOM      1  N   UNL     1       9.479  -4.905  26.541  0.00  0.00    -0.329 N 
ATOM      2  H   UNL     1       9.846  -3.964  26.537  0.00  0.00    +0.145 HD
ATOM      3  H   UNL     1       9.618  -5.356  27.442  0.00  0.00    +0.145 HD
ATOM      4  C   UNL     1       8.196  -5.042  26.126  0.00  0.00    +0.195 A 
ATOM      5  N   UNL     1       7.893  -4.254  25.041  0.00  0.00    -0.312 N 
ATOM      6  H   UNL     1       8.655  -3.834  24.525  0.00  0.00    +0.170 HD
ATOM      7  C   UNL     1       6.666  -4.412  24.522  0.00  0.00    +0.148 A 
ATOM      8  N   UNL     1       6.106  -3.865  23.414  0.00  0.00    -0.292 N 
ATOM      9  C   UNL     1       4.834  -4.381  23.336  0.00  0.00    +0.203 A 
ATOM     10  N   UNL     1       4.574  -5.217  24.324  0.00  0.00    -0.229 NA
ATOM     11  C   UNL     1       5.731  -5.251  25.073  0.00  0.00    +0.172 A 
ATOM     12  C   UNL     1       6.074  -6.023  26.276  0.00  0.00    +0.302 A 
ATOM     13  O   UNL     1       5.270  -6.757  26.836  0.00  0.00    -0.263 OA
ATOM     14  N   UNL     1       7.390  -5.862  26.733  0.00  0.00    -0.176 NA
ENDROOT
BRANCH   8  15
ATOM     15  C   UNL     1       6.665  -2.868  22.526  0.00  0.00    +0.287 C 
BRANCH  15  16
ATOM     16  O   UNL     1       8.081  -3.049  22.470  0.00  0.00    -0.357 OA
BRANCH  16  17
ATOM     17  C   UNL     1       8.753  -1.788  22.365  0.00  0.00    +0.190 C 
BRANCH  17  18
ATOM     18  C   UNL     1      10.103  -1.888  23.068  0.00  0.00    +0.184 C 
BRANCH  18  19
ATOM     19  O   UNL     1      10.147  -3.058  23.878  0.00  0.00    -0.393 OA
ATOM     20  H   UNL     1       9.695  -2.829  24.713  0.00  0.00    +0.209 HD
ENDBRANCH  18  19
ENDBRANCH  17  18
ENDBRANCH  16  17
ENDBRANCH  15  16
ENDBRANCH   8  15
TORSDOF 5
ENDMDL
MODEL 6
REMARK VINA RESULT:      -5.7      2.230      3.305
REMARK  Name = 
REMARK  5 active torsions:
REMARK  status: ('A' for Active; 'I' for Inactive)
REMARK    1  A    between atoms: N_9  and  C_10
REMARK    2  A    between atoms: C_10  and  O_11
REMARK    3  A    between atoms: O_11  and  C_12
REMARK    4  A    between atoms: C_12  and  C_13
REMARK    5  A    between atoms: C_13  and  O_14
REMARK                            x       y       z     vdW  Elec       q    Type
REMARK                         _______ _______ _______ _____ _____    ______ ____
ROOT
ATOM      1  N   UNL     1       6.408   4.304  21.841  0.00  0.00    -0.329 N 
ATOM      2  H   UNL     1       6.898   4.727  21.065  0.00  0.00    +0.145 HD
ATOM      3  H   UNL     1       5.456   4.051  21.589  0.00  0.00    +0.145 HD
ATOM      4  C   UNL     1       7.040   3.265  22.441  0.00  0.00    +0.195 A 
ATOM      5  N   UNL     1       8.392   3.465  22.585  0.00  0.00    -0.312 N 
ATOM      6  H   UNL     1       8.756   4.400  22.451  0.00  0.00    +0.170 HD
ATOM      7  C   UNL     1       9.061   2.515  23.256  0.00  0.00    +0.148 A 
ATOM      8  N   UNL     1      10.360   2.466  23.642  0.00  0.00    -0.292 N 
ATOM      9  C   UNL     1      10.512   1.277  24.316  0.00  0.00    +0.203 A 
ATOM     10  N   UNL     1       9.386   0.589  24.374  0.00  0.00    -0.229 NA
ATOM     11  C   UNL     1       8.460   1.371  23.716  0.00  0.00    +0.172 A 
ATOM     12  C   UNL     1       7.025   1.165  23.479  0.00  0.00    +0.302 A 
ATOM     13  O   UNL     1       6.441   0.146  23.829  0.00  0.00    -0.263 OA
ATOM     14  N   UNL     1       6.370   2.219  22.827  0.00  0.00    -0.176 NA
ENDROOT
BRANCH   8  15
ATOM     15  C   UNL     1      11.420   3.406  23.345  0.00  0.00    +0.287 C 
BRANCH  15  16
ATOM     16  O   UNL     1      10.955   4.725  23.632  0.00  0.00    -0.357 OA
BRANCH  16  17
ATOM     17  C   UNL     1      12.048   5.650  23.693  0.00  0.00    +0.190 C 
BRANCH  17  18
ATOM     18  C   UNL     1      13.034   5.324  22.577  0.00  0.00    +0.184 C 
BRANCH  18  19
ATOM     19  O   UNL     1      14.343   5.160  23.114  0.00  0.00    -0.393 OA
ATOM     20  H   UNL     1      14.928   4.972  22.355  0.00  0.00    +0.209 HD
ENDBRANCH  18  19
ENDBRANCH  17  18
ENDBRANCH  16  17
ENDBRANCH  15  16
ENDBRANCH   8  15
TORSDOF 5
ENDMDL
MODEL 7
REMARK VINA RESULT:      -5.5      6.627      9.044
REMARK  Name = 
REMARK  5 active torsions:
REMARK  status: ('A' for Active; 'I' for Inactive)
REMARK    1  A    between atoms: N_9  and  C_10
REMARK    2  A    between atoms: C_10  and  O_11
REMARK    3  A    between atoms: O_11  and  C_12
REMARK    4  A    between atoms: C_12  and  C_13
REMARK    5  A    between atoms: C_13  and  O_14
REMARK                            x       y       z     vdW  Elec       q    Type
REMARK                         _______ _______ _______ _____ _____    ______ ____
ROOT
ATOM      1  N   UNL     1       4.006  -7.089  23.752  0.00  0.00    -0.329 N 
ATOM      2  H   UNL     1       3.616  -7.127  24.683  0.00  0.00    +0.145 HD
ATOM      3  H   UNL     1       3.278  -7.115  23.042  0.00  0.00    +0.145 HD
ATOM      4  C   UNL     1       4.873  -6.074  23.516  0.00  0.00    +0.195 A 
ATOM      5  N   UNL     1       5.730  -5.842  24.565  0.00  0.00    -0.312 N 
ATOM      6  H   UNL     1       5.799  -6.542  25.293  0.00  0.00    +0.170 HD
ATOM      7  C   UNL     1       6.676  -4.913  24.360  0.00  0.00    +0.148 A 
ATOM      8  N   UNL     1       7.712  -4.528  25.147  0.00  0.00    -0.292 N 
ATOM      9  C   UNL     1       8.381  -3.554  24.445  0.00  0.00    +0.203 A 
ATOM     10  N   UNL     1       7.827  -3.314  23.272  0.00  0.00    -0.229 NA
ATOM     11  C   UNL     1       6.754  -4.178  23.204  0.00  0.00    +0.172 A 
ATOM     12  C   UNL     1       5.774  -4.411  22.135  0.00  0.00    +0.302 A 
ATOM     13  O   UNL     1       5.767  -3.759  21.097  0.00  0.00    -0.263 OA
ATOM     14  N   UNL     1       4.849  -5.435  22.384  0.00  0.00    -0.176 NA
ENDROOT
BRANCH   8  15
ATOM     15  C   UNL     1       8.025  -4.963  26.492  0.00  0.00    +0.287 C 
BRANCH  15  16
ATOM     16  O   UNL     1       7.148  -6.034  26.842  0.00  0.00    -0.357 OA
BRANCH  16  17
ATOM     17  C   UNL     1       6.418  -5.725  28.036  0.00  0.00    +0.190 C 
BRANCH  17  18
ATOM     18  C   UNL     1       5.253  -6.701  28.168  0.00  0.00    +0.184 C 
BRANCH  18  19
ATOM     19  O   UNL     1       4.955  -7.280  26.901  0.00  0.00    -0.393 OA
ATOM     20  H   UNL     1       4.761  -8.222  27.070  0.00  0.00    +0.209 HD
ENDBRANCH  18  19
ENDBRANCH  17  18
ENDBRANCH  16  17
ENDBRANCH  15  16
ENDBRANCH   8  15
TORSDOF 5
ENDMDL
MODEL 8
REMARK VINA RESULT:      -5.5      6.233      9.035
REMARK  Name = 
REMARK  5 active torsions:
REMARK  status: ('A' for Active; 'I' for Inactive)
REMARK    1  A    between atoms: N_9  and  C_10
REMARK    2  A    between atoms: C_10  and  O_11
REMARK    3  A    between atoms: O_11  and  C_12
REMARK    4  A    between atoms: C_12  and  C_13
REMARK    5  A    between atoms: C_13  and  O_14
REMARK                            x       y       z     vdW  Elec       q    Type
REMARK                         _______ _______ _______ _____ _____    ______ ____
ROOT
ATOM      1  N   UNL     1       7.945  -5.836  27.374  0.00  0.00    -0.329 N 
ATOM      2  H   UNL     1       7.555  -6.767  27.425  0.00  0.00    +0.145 HD
ATOM      3  H   UNL     1       8.859  -5.789  27.818  0.00  0.00    +0.145 HD
ATOM      4  C   UNL     1       7.981  -5.278  26.139  0.00  0.00    +0.195 A 
ATOM      5  N   UNL     1       6.848  -5.526  25.402  0.00  0.00    -0.312 N 
ATOM      6  H   UNL     1       6.032  -5.885  25.881  0.00  0.00    +0.170 HD
ATOM      7  C   UNL     1       6.778  -4.922  24.205  0.00  0.00    +0.148 A 
ATOM      8  N   UNL     1       5.771  -4.889  23.298  0.00  0.00    -0.292 N 
ATOM      9  C   UNL     1       6.221  -4.112  22.257  0.00  0.00    +0.203 A 
ATOM     10  N   UNL     1       7.445  -3.661  22.465  0.00  0.00    -0.229 NA
ATOM     11  C   UNL     1       7.800  -4.159  23.701  0.00  0.00    +0.172 A 
ATOM     12  C   UNL     1       9.024  -3.978  24.494  0.00  0.00    +0.302 A 
ATOM     13  O   UNL     1       9.986  -3.341  24.080  0.00  0.00    -0.263 OA
ATOM     14  N   UNL     1       9.011  -4.581  25.759  0.00  0.00    -0.176 NA
ENDROOT
BRANCH   8  15
ATOM     15  C   UNL     1       4.504  -5.588  23.339  0.00  0.00    +0.287 C 
BRANCH  15  16
ATOM     16  O   UNL     1       4.717  -6.888  23.891  0.00  0.00    -0.357 OA
BRANCH  16  17
ATOM     17  C   UNL     1       3.638  -7.257  24.759  0.00  0.00    +0.190 C 
BRANCH  17  18
ATOM     18  C   UNL     1       3.859  -6.611  26.123  0.00  0.00    +0.184 C 
BRANCH  18  19
ATOM     19  O   UNL     1       4.956  -7.232  26.786  0.00  0.00    -0.393 OA
ATOM     20  H   UNL     1       5.051  -6.776  27.644  0.00  0.00    +0.209 HD
ENDBRANCH  18  19
ENDBRANCH  17  18
ENDBRANCH  16  17
ENDBRANCH  15  16
ENDBRANCH   8  15
TORSDOF 5
ENDMDL
MODEL 9
REMARK VINA RESULT:      -5.4      5.094      7.418
REMARK  Name = 
REMARK  5 active torsions:
REMARK  status: ('A' for Active; 'I' for Inactive)
REMARK    1  A    between atoms: N_9  and  C_10
REMARK    2  A    between atoms: C_10  and  O_11
REMARK    3  A    between atoms: O_11  and  C_12
REMARK    4  A    between atoms: C_12  and  C_13
REMARK    5  A    between atoms: C_13  and  O_14
REMARK                            x       y       z     vdW  Elec       q    Type
REMARK                         _______ _______ _______ _____ _____    ______ ____
ROOT
ATOM      1  N   UNL     1       3.973  -6.436  23.063  0.00  0.00    -0.329 N 
ATOM      2  H   UNL     1       4.412  -6.603  22.168  0.00  0.00    +0.145 HD
ATOM      3  H   UNL     1       3.284  -7.153  23.280  0.00  0.00    +0.145 HD
ATOM      4  C   UNL     1       4.815  -6.245  24.108  0.00  0.00    +0.195 A 
ATOM      5  N   UNL     1       5.904  -5.470  23.788  0.00  0.00    -0.312 N 
ATOM      6  H   UNL     1       5.883  -4.945  22.923  0.00  0.00    +0.170 HD
ATOM      7  C   UNL     1       6.728  -5.163  24.802  0.00  0.00    +0.148 A 
ATOM      8  N   UNL     1       7.816  -4.354  24.833  0.00  0.00    -0.292 N 
ATOM      9  C   UNL     1       8.275  -4.383  26.129  0.00  0.00    +0.203 A 
ATOM     10  N   UNL     1       7.537  -5.158  26.902  0.00  0.00    -0.229 NA
ATOM     11  C   UNL     1       6.549  -5.646  26.073  0.00  0.00    +0.172 A 
ATOM     12  C   UNL     1       5.409  -6.530  26.355  0.00  0.00    +0.302 A 
ATOM     13  O   UNL     1       5.220  -7.025  27.460  0.00  0.00    -0.263 OA
ATOM     14  N   UNL     1       4.551  -6.762  25.271  0.00  0.00    -0.176 NA
ENDROOT
BRANCH   8  15
ATOM     15  C   UNL     1       8.448  -3.659  23.732  0.00  0.00    +0.287 C 
BRANCH  15  16
ATOM     16  O   UNL     1       9.790  -3.341  24.102  0.00  0.00    -0.357 OA
BRANCH  16  17
ATOM     17  C   UNL     1      10.113  -1.992  23.742  0.00  0.00    +0.190 C 
BRANCH  17  18
ATOM     18  C   UNL     1       9.292  -1.597  22.519  0.00  0.00    +0.184 C 
BRANCH  18  19
ATOM     19  O   UNL     1      10.133  -1.507  21.373  0.00  0.00    -0.393 OA
ATOM     20  H   UNL     1      10.902  -2.082  21.554  0.00  0.00    +0.209 HD
ENDBRANCH  18  19
ENDBRANCH  17  18
ENDBRANCH  16  17
ENDBRANCH  15  16
ENDBRANCH   8  15
TORSDOF 5
ENDMDL
