MODEL 1
REMARK VINA RESULT:      -8.1      0.000      0.000
REMARK  Name = 
REMARK  9 active torsions:
REMARK  status: ('A' for Active; 'I' for Inactive)
REMARK    1  A    between atoms: O_1  and  C_2
REMARK    2  A    between atoms: C_5  and  C_8
REMARK    3  A    between atoms: C_9  and  C_10
REMARK    4  A    between atoms: C_10  and  C_12
REMARK    5  A    between atoms: C_15  and  O_16
REMARK    6  A    between atoms: O_16  and  C_17
REMARK    7  A    between atoms: C_17  and  C_18
REMARK    8  A    between atoms: C_18  and  N_19
REMARK    9  A    between atoms: C_31  and  O_32
REMARK                            x       y       z     vdW  Elec       q    Type
REMARK                         _______ _______ _______ _____ _____    ______ ____
ROOT
ATOM      1  C   UNL     1       7.525   3.811  23.756  0.00  0.00    +0.031 A 
ATOM      2  S   UNL     1       7.965   5.222  24.639  0.00  0.00    -0.087 S 
ATOM      3  C   UNL     1       9.612   5.112  24.228  0.00  0.00    +0.024 A 
ATOM      4  C   UNL     1      10.607   6.045  24.587  0.00  0.00    +0.061 A 
ATOM      5  C   UNL     1      11.910   5.809  24.169  0.00  0.00    +0.118 A 
ATOM      6  C   UNL     1      12.221   4.710  23.392  0.00  0.00    +0.046 A 
ATOM      7  C   UNL     1      11.219   3.802  23.026  0.00  0.00    +0.013 A 
ATOM      8  C   UNL     1       9.879   3.972  23.471  0.00  0.00    +0.001 A 
ATOM      9  C   UNL     1       8.672   3.175  23.258  0.00  0.00    +0.045 A 
ENDROOT
BRANCH   1  13
ATOM     10  C   UNL     1       3.270   3.049  23.694  0.00  0.00    +0.117 A 
ATOM     11  C   UNL     1       3.899   3.555  22.570  0.00  0.00    +0.046 A 
ATOM     12  C   UNL     1       5.285   3.748  22.581  0.00  0.00    +0.012 A 
ATOM     13  C   UNL     1       6.068   3.477  23.726  0.00  0.00    -0.010 A 
ATOM     14  C   UNL     1       5.399   2.936  24.836  0.00  0.00    +0.012 A 
ATOM     15  C   UNL     1       4.012   2.713  24.821  0.00  0.00    +0.046 A 
BRANCH  10  16
ATOM     16  O   UNL     1       1.917   2.900  23.652  0.00  0.00    -0.507 OA
ATOM     17  H   UNL     1       1.513   3.551  24.249  0.00  0.00    +0.292 HD
ENDBRANCH  10  16
ENDBRANCH   1  13
BRANCH   5  18
ATOM     18  O   UNL     1      12.920   6.663  24.506  0.00  0.00    -0.507 OA
ATOM     19  H   UNL     1      12.735   7.536  24.114  0.00  0.00    +0.292 HD
ENDBRANCH   5  18
BRANCH   9  20
ATOM     20  C   UNL     1       8.612   1.941  22.475  0.00  0.00    +0.195 C 
ATOM     21  O   UNL     1       8.170   1.955  21.327  0.00  0.00    -0.287 OA
BRANCH  20  22
ATOM     22  C   UNL     1       9.070   0.612  22.999  0.00  0.00    +0.023 A 
ATOM     23  C   UNL     1       8.827   0.087  24.281  0.00  0.00    +0.015 A 
ATOM     24  C   UNL     1       9.235  -1.234  24.606  0.00  0.00    +0.046 A 
ATOM     25  C   UNL     1       9.868  -2.038  23.657  0.00  0.00    +0.121 A 
ATOM     26  C   UNL     1      10.098  -1.504  22.385  0.00  0.00    +0.046 A 
ATOM     27  C   UNL     1       9.734  -0.196  22.074  0.00  0.00    +0.015 A 
BRANCH  25  28
ATOM     28  O   UNL     1      10.248  -3.322  24.033  0.00  0.00    -0.491 OA
BRANCH  28  29
ATOM     29  C   UNL     1       9.290  -3.910  24.930  0.00  0.00    +0.244 C 
BRANCH  29  30
ATOM     30  C   UNL     1       8.265  -4.888  24.336  0.00  0.00    +0.125 C 
BRANCH  30  31
ATOM     31  N   UNL     1       7.123  -4.145  23.728  0.00  0.00    -0.299 NA
ATOM     32  C   UNL     1       5.810  -4.674  24.125  0.00  0.00    +0.084 C 
ATOM     33  C   UNL     1       5.450  -6.019  23.481  0.00  0.00    +0.015 C 
ATOM     34  C   UNL     1       5.739  -6.085  21.978  0.00  0.00    +0.002 C 
ATOM     35  C   UNL     1       7.069  -5.442  21.608  0.00  0.00    +0.015 C 
ATOM     36  C   UNL     1       7.160  -4.063  22.257  0.00  0.00    +0.084 C 
ENDBRANCH  30  31
ENDBRANCH  29  30
ENDBRANCH  28  29
ENDBRANCH  25  28
ENDBRANCH  20  22
ENDBRANCH   9  20
TORSDOF 9
ENDMDL
MODEL 2
REMARK VINA RESULT:      -7.8      3.255      9.018
REMARK  Name = 
REMARK  9 active torsions:
REMARK  status: ('A' for Active; 'I' for Inactive)
REMARK    1  A    between atoms: O_1  and  C_2
REMARK    2  A    between atoms: C_5  and  C_8
REMARK    3  A    between atoms: C_9  and  C_10
REMARK    4  A    between atoms: C_10  and  C_12
REMARK    5  A    between atoms: C_15  and  O_16
REMARK    6  A    between atoms: O_16  and  C_17
REMARK    7  A    between atoms: C_17  and  C_18
REMARK    8  A    between atoms: C_18  and  N_19
REMARK    9  A    between atoms: C_31  and  O_32
REMARK                            x       y       z     vdW  Elec       q    Type
REMARK                         _______ _______ _______ _____ _____    ______ ____
ROOT
ATOM      1  C   UNL     1       7.137  -2.701  23.266  0.00  0.00    +0.031 A 
ATOM      2  S   UNL     1       6.361  -3.749  22.142  0.00  0.00    -0.087 S 
ATOM      3  C   UNL     1       5.806  -4.821  23.341  0.00  0.00    +0.024 A 
ATOM      4  C   UNL     1       4.991  -5.949  23.114  0.00  0.00    +0.061 A 
ATOM      5  C   UNL     1       4.623  -6.724  24.205  0.00  0.00    +0.118 A 
ATOM      6  C   UNL     1       5.011  -6.382  25.486  0.00  0.00    +0.046 A 
ATOM      7  C   UNL     1       5.804  -5.246  25.700  0.00  0.00    +0.013 A 
ATOM      8  C   UNL     1       6.250  -4.449  24.610  0.00  0.00    +0.001 A 
ATOM      9  C   UNL     1       7.088  -3.253  24.555  0.00  0.00    +0.045 A 
ENDROOT
BRANCH   1  13
ATOM     10  C   UNL     1       9.078   0.869  21.791  0.00  0.00    +0.117 A 
ATOM     11  C   UNL     1       9.720  -0.353  21.705  0.00  0.00    +0.046 A 
ATOM     12  C   UNL     1       9.062  -1.512  22.135  0.00  0.00    +0.012 A 
ATOM     13  C   UNL     1       7.766  -1.470  22.697  0.00  0.00    -0.010 A 
ATOM     14  C   UNL     1       7.135  -0.216  22.739  0.00  0.00    +0.012 A 
ATOM     15  C   UNL     1       7.779   0.946  22.282  0.00  0.00    +0.046 A 
BRANCH  10  16
ATOM     16  O   UNL     1       9.760   1.976  21.385  0.00  0.00    -0.507 OA
ATOM     17  H   UNL     1      10.648   1.955  21.779  0.00  0.00    +0.292 HD
ENDBRANCH  10  16
ENDBRANCH   1  13
BRANCH   5  18
ATOM     18  O   UNL     1       3.855  -7.842  24.046  0.00  0.00    -0.507 OA
ATOM     19  H   UNL     1       4.336  -8.606  24.414  0.00  0.00    +0.292 HD
ENDBRANCH   5  18
BRANCH   9  20
ATOM     20  C   UNL     1       7.678  -2.591  25.719  0.00  0.00    +0.195 C 
ATOM     21  O   UNL     1       8.450  -3.202  26.455  0.00  0.00    -0.287 OA
BRANCH  20  22
ATOM     22  C   UNL     1       7.391  -1.165  26.085  0.00  0.00    +0.023 A 
ATOM     23  C   UNL     1       8.318  -0.108  26.136  0.00  0.00    +0.015 A 
ATOM     24  C   UNL     1       7.882   1.218  26.399  0.00  0.00    +0.046 A 
ATOM     25  C   UNL     1       6.529   1.497  26.596  0.00  0.00    +0.121 A 
ATOM     26  C   UNL     1       5.619   0.437  26.537  0.00  0.00    +0.046 A 
ATOM     27  C   UNL     1       6.046  -0.869  26.317  0.00  0.00    +0.015 A 
BRANCH  25  28
ATOM     28  O   UNL     1       6.162   2.814  26.854  0.00  0.00    -0.491 OA
BRANCH  28  29
ATOM     29  C   UNL     1       7.115   3.741  26.304  0.00  0.00    +0.244 C 
BRANCH  29  30
ATOM     30  C   UNL     1       6.751   4.438  24.985  0.00  0.00    +0.125 C 
BRANCH  30  31
ATOM     31  N   UNL     1       7.710   4.056  23.907  0.00  0.00    -0.299 NA
ATOM     32  C   UNL     1       9.116   4.111  24.336  0.00  0.00    +0.084 C 
ATOM     33  C   UNL     1       9.668   5.532  24.505  0.00  0.00    +0.015 C 
ATOM     34  C   UNL     1       9.312   6.479  23.355  0.00  0.00    +0.002 C 
ATOM     35  C   UNL     1       7.871   6.317  22.888  0.00  0.00    +0.015 C 
ATOM     36  C   UNL     1       7.577   4.836  22.664  0.00  0.00    +0.084 C 
ENDBRANCH  30  31
ENDBRANCH  29  30
ENDBRANCH  28  29
ENDBRANCH  25  28
ENDBRANCH  20  22
ENDBRANCH   9  20
TORSDOF 9
ENDMDL
MODEL 3
REMARK VINA RESULT:      -7.6      3.325      5.985
REMARK  Name = 
REMARK  9 active torsions:
REMARK  status: ('A' for Active; 'I' for Inactive)
REMARK    1  A    between atoms: O_1  and  C_2
REMARK    2  A    between atoms: C_5  and  C_8
REMARK    3  A    between atoms: C_9  and  C_10
REMARK    4  A    between atoms: C_10  and  C_12
REMARK    5  A    between atoms: C_15  and  O_16
REMARK    6  A    between atoms: O_16  and  C_17
REMARK    7  A    between atoms: C_17  and  C_18
REMARK    8  A    between atoms: C_18  and  N_19
REMARK    9  A    between atoms: C_31  and  O_32
REMARK                            x       y       z     vdW  Elec       q    Type
REMARK                         _______ _______ _______ _____ _____    ______ ____
ROOT
ATOM      1  C   UNL     1       7.891  -1.444  22.955  0.00  0.00    +0.031 A 
ATOM      2  S   UNL     1       9.271  -0.884  22.091  0.00  0.00    -0.087 S 
ATOM      3  C   UNL     1       9.267   0.645  22.837  0.00  0.00    +0.024 A 
ATOM      4  C   UNL     1      10.226   1.658  22.629  0.00  0.00    +0.061 A 
ATOM      5  C   UNL     1      10.079   2.854  23.318  0.00  0.00    +0.118 A 
ATOM      6  C   UNL     1       9.042   3.039  24.212  0.00  0.00    +0.046 A 
ATOM      7  C   UNL     1       8.106   2.017  24.423  0.00  0.00    +0.013 A 
ATOM      8  C   UNL     1       8.185   0.793  23.704  0.00  0.00    +0.001 A 
ATOM      9  C   UNL     1       7.341  -0.401  23.717  0.00  0.00    +0.045 A 
ENDROOT
BRANCH   1  13
ATOM     10  C   UNL     1       6.548  -5.509  22.356  0.00  0.00    +0.117 A 
ATOM     11  C   UNL     1       5.968  -4.476  21.639  0.00  0.00    +0.046 A 
ATOM     12  C   UNL     1       6.447  -3.170  21.800  0.00  0.00    +0.012 A 
ATOM     13  C   UNL     1       7.486  -2.861  22.707  0.00  0.00    -0.010 A 
ATOM     14  C   UNL     1       8.069  -3.940  23.393  0.00  0.00    +0.012 A 
ATOM     15  C   UNL     1       7.612  -5.256  23.214  0.00  0.00    +0.046 A 
BRANCH  10  16
ATOM     16  O   UNL     1       6.038  -6.761  22.190  0.00  0.00    -0.507 OA
ATOM     17  H   UNL     1       5.696  -6.841  21.284  0.00  0.00    +0.292 HD
ENDBRANCH  10  16
ENDBRANCH   1  13
BRANCH   5  18
ATOM     18  O   UNL     1      10.962   3.879  23.141  0.00  0.00    -0.507 OA
ATOM     19  H   UNL     1      11.403   4.063  23.991  0.00  0.00    +0.292 HD
ENDBRANCH   5  18
BRANCH   9  20
ATOM     20  C   UNL     1       6.151  -0.576  24.549  0.00  0.00    +0.195 C 
ATOM     21  O   UNL     1       5.384   0.366  24.741  0.00  0.00    -0.287 OA
BRANCH  20  22
ATOM     22  C   UNL     1       5.793  -1.875  25.208  0.00  0.00    +0.023 A 
ATOM     23  C   UNL     1       4.741  -2.737  24.847  0.00  0.00    +0.015 A 
ATOM     24  C   UNL     1       4.584  -3.990  25.497  0.00  0.00    +0.046 A 
ATOM     25  C   UNL     1       5.478  -4.394  26.490  0.00  0.00    +0.121 A 
ATOM     26  C   UNL     1       6.522  -3.530  26.833  0.00  0.00    +0.046 A 
ATOM     27  C   UNL     1       6.656  -2.284  26.226  0.00  0.00    +0.015 A 
BRANCH  25  28
ATOM     28  O   UNL     1       5.272  -5.630  27.094  0.00  0.00    -0.491 OA
BRANCH  28  29
ATOM     29  C   UNL     1       4.956  -6.642  26.122  0.00  0.00    +0.244 C 
BRANCH  29  30
ATOM     30  C   UNL     1       3.561  -7.282  26.186  0.00  0.00    +0.125 C 
BRANCH  30  31
ATOM     31  N   UNL     1       3.188  -7.860  24.861  0.00  0.00    -0.299 NA
ATOM     32  C   UNL     1       3.021  -6.843  23.812  0.00  0.00    +0.084 C 
ATOM     33  C   UNL     1       1.748  -5.998  23.949  0.00  0.00    +0.015 C 
ATOM     34  C   UNL     1       0.489  -6.815  24.256  0.00  0.00    +0.002 C 
ATOM     35  C   UNL     1       0.739  -7.914  25.282  0.00  0.00    +0.015 C 
ATOM     36  C   UNL     1       1.981  -8.705  24.880  0.00  0.00    +0.084 C 
ENDBRANCH  30  31
ENDBRANCH  29  30
ENDBRANCH  28  29
ENDBRANCH  25  28
ENDBRANCH  20  22
ENDBRANCH   9  20
TORSDOF 9
ENDMDL
MODEL 4
REMARK VINA RESULT:      -7.5      3.444      8.966
REMARK  Name = 
REMARK  9 active torsions:
REMARK  status: ('A' for Active; 'I' for Inactive)
REMARK    1  A    between atoms: O_1  and  C_2
REMARK    2  A    between atoms: C_5  and  C_8
REMARK    3  A    between atoms: C_9  and  C_10
REMARK    4  A    between atoms: C_10  and  C_12
REMARK    5  A    between atoms: C_15  and  O_16
REMARK    6  A    between atoms: O_16  and  C_17
REMARK    7  A    between atoms: C_17  and  C_18
REMARK    8  A    between atoms: C_18  and  N_19
REMARK    9  A    between atoms: C_31  and  O_32
REMARK                            x       y       z     vdW  Elec       q    Type
REMARK                         _______ _______ _______ _____ _____    ______ ____
ROOT
ATOM      1  C   UNL     1       7.173  -2.779  23.365  0.00  0.00    +0.031 A 
ATOM      2  S   UNL     1       6.391  -3.815  22.233  0.00  0.00    -0.087 S 
ATOM      3  C   UNL     1       5.813  -4.881  23.426  0.00  0.00    +0.024 A 
ATOM      4  C   UNL     1       4.985  -5.998  23.191  0.00  0.00    +0.061 A 
ATOM      5  C   UNL     1       4.598  -6.771  24.278  0.00  0.00    +0.118 A 
ATOM      6  C   UNL     1       4.982  -6.436  25.562  0.00  0.00    +0.046 A 
ATOM      7  C   UNL     1       5.788  -5.312  25.784  0.00  0.00    +0.013 A 
ATOM      8  C   UNL     1       6.252  -4.518  24.699  0.00  0.00    +0.001 A 
ATOM      9  C   UNL     1       7.107  -3.333  24.653  0.00  0.00    +0.045 A 
ENDROOT
BRANCH   1  13
ATOM     10  C   UNL     1       9.189   0.751  21.897  0.00  0.00    +0.117 A 
ATOM     11  C   UNL     1       9.737  -0.500  21.676  0.00  0.00    +0.046 A 
ATOM     12  C   UNL     1       9.050  -1.641  22.108  0.00  0.00    +0.012 A 
ATOM     13  C   UNL     1       7.822  -1.556  22.803  0.00  0.00    -0.010 A 
ATOM     14  C   UNL     1       7.284  -0.271  22.981  0.00  0.00    +0.012 A 
ATOM     15  C   UNL     1       7.954   0.876  22.525  0.00  0.00    +0.046 A 
BRANCH  10  16
ATOM     16  O   UNL     1       9.900   1.838  21.485  0.00  0.00    -0.507 OA
ATOM     17  H   UNL     1       9.473   2.639  21.830  0.00  0.00    +0.292 HD
ENDBRANCH  10  16
ENDBRANCH   1  13
BRANCH   5  18
ATOM     18  O   UNL     1       3.817  -7.878  24.110  0.00  0.00    -0.507 OA
ATOM     19  H   UNL     1       3.076  -7.651  23.519  0.00  0.00    +0.292 HD
ENDBRANCH   5  18
BRANCH   9  20
ATOM     20  C   UNL     1       7.697  -2.681  25.822  0.00  0.00    +0.195 C 
ATOM     21  O   UNL     1       8.693  -3.158  26.362  0.00  0.00    -0.287 OA
BRANCH  20  22
ATOM     22  C   UNL     1       7.143  -1.425  26.428  0.00  0.00    +0.023 A 
ATOM     23  C   UNL     1       7.880  -0.389  27.030  0.00  0.00    +0.015 A 
ATOM     24  C   UNL     1       7.228   0.794  27.470  0.00  0.00    +0.046 A 
ATOM     25  C   UNL     1       5.853   0.955  27.298  0.00  0.00    +0.121 A 
ATOM     26  C   UNL     1       5.135  -0.081  26.692  0.00  0.00    +0.046 A 
ATOM     27  C   UNL     1       5.764  -1.258  26.295  0.00  0.00    +0.015 A 
BRANCH  25  28
ATOM     28  O   UNL     1       5.269   2.133  27.752  0.00  0.00    -0.491 OA
BRANCH  28  29
ATOM     29  C   UNL     1       5.979   3.289  27.273  0.00  0.00    +0.244 C 
BRANCH  29  30
ATOM     30  C   UNL     1       5.843   3.642  25.784  0.00  0.00    +0.125 C 
BRANCH  30  31
ATOM     31  N   UNL     1       6.503   4.948  25.493  0.00  0.00    -0.299 NA
ATOM     32  C   UNL     1       6.255   5.431  24.127  0.00  0.00    +0.084 C 
ATOM     33  C   UNL     1       7.010   4.658  23.038  0.00  0.00    +0.015 C 
ATOM     34  C   UNL     1       8.483   4.397  23.368  0.00  0.00    +0.002 C 
ATOM     35  C   UNL     1       8.694   3.989  24.820  0.00  0.00    +0.015 C 
ATOM     36  C   UNL     1       7.958   4.966  25.731  0.00  0.00    +0.084 C 
ENDBRANCH  30  31
ENDBRANCH  29  30
ENDBRANCH  28  29
ENDBRANCH  25  28
ENDBRANCH  20  22
ENDBRANCH   9  20
TORSDOF 9
ENDMDL
MODEL 5
REMARK VINA RESULT:      -7.4      3.357      8.178
REMARK  Name = 
REMARK  9 active torsions:
REMARK  status: ('A' for Active; 'I' for Inactive)
REMARK    1  A    between atoms: O_1  and  C_2
REMARK    2  A    between atoms: C_5  and  C_8
REMARK    3  A    between atoms: C_9  and  C_10
REMARK    4  A    between atoms: C_10  and  C_12
REMARK    5  A    between atoms: C_15  and  O_16
REMARK    6  A    between atoms: O_16  and  C_17
REMARK    7  A    between atoms: C_17  and  C_18
REMARK    8  A    between atoms: C_18  and  N_19
REMARK    9  A    between atoms: C_31  and  O_32
REMARK                            x       y       z     vdW  Elec       q    Type
REMARK                         _______ _______ _______ _____ _____    ______ ____
ROOT
ATOM      1  C   UNL     1       6.777  -1.604  24.768  0.00  0.00    +0.031 A 
ATOM      2  S   UNL     1       5.218  -2.292  24.518  0.00  0.00    -0.087 S 
ATOM      3  C   UNL     1       5.789  -3.508  23.475  0.00  0.00    +0.024 A 
ATOM      4  C   UNL     1       5.004  -4.533  22.909  0.00  0.00    +0.061 A 
ATOM      5  C   UNL     1       5.625  -5.453  22.075  0.00  0.00    +0.118 A 
ATOM      6  C   UNL     1       6.983  -5.391  21.833  0.00  0.00    +0.046 A 
ATOM      7  C   UNL     1       7.756  -4.378  22.417  0.00  0.00    +0.013 A 
ATOM      8  C   UNL     1       7.157  -3.383  23.238  0.00  0.00    +0.001 A 
ATOM      9  C   UNL     1       7.719  -2.227  23.935  0.00  0.00    +0.045 A 
ENDROOT
BRANCH   1  13
ATOM     10  C   UNL     1       7.164   1.755  27.461  0.00  0.00    +0.117 A 
ATOM     11  C   UNL     1       6.665   1.946  26.184  0.00  0.00    +0.046 A 
ATOM     12  C   UNL     1       6.493   0.844  25.338  0.00  0.00    +0.012 A 
ATOM     13  C   UNL     1       6.850  -0.465  25.733  0.00  0.00    -0.010 A 
ATOM     14  C   UNL     1       7.324  -0.622  27.046  0.00  0.00    +0.012 A 
ATOM     15  C   UNL     1       7.472   0.476  27.910  0.00  0.00    +0.046 A 
BRANCH  10  16
ATOM     16  O   UNL     1       7.341   2.855  28.244  0.00  0.00    -0.507 OA
ATOM     17  H   UNL     1       7.920   3.480  27.777  0.00  0.00    +0.292 HD
ENDBRANCH  10  16
ENDBRANCH   1  13
BRANCH   5  18
ATOM     18  O   UNL     1       4.913  -6.453  21.479  0.00  0.00    -0.507 OA
ATOM     19  H   UNL     1       5.443  -6.822  20.748  0.00  0.00    +0.292 HD
ENDBRANCH   5  18
BRANCH   9  20
ATOM     20  C   UNL     1       9.131  -1.845  23.918  0.00  0.00    +0.195 C 
ATOM     21  O   UNL     1      10.005  -2.690  24.100  0.00  0.00    -0.287 OA
BRANCH  20  22
ATOM     22  C   UNL     1       9.598  -0.438  23.686  0.00  0.00    +0.023 A 
ATOM     23  C   UNL     1      10.257   0.391  24.612  0.00  0.00    +0.015 A 
ATOM     24  C   UNL     1      10.736   1.669  24.218  0.00  0.00    +0.046 A 
ATOM     25  C   UNL     1      10.575   2.117  22.906  0.00  0.00    +0.121 A 
ATOM     26  C   UNL     1       9.923   1.279  21.996  0.00  0.00    +0.046 A 
ATOM     27  C   UNL     1       9.419   0.042  22.387  0.00  0.00    +0.015 A 
BRANCH  25  28
ATOM     28  O   UNL     1      11.060   3.379  22.580  0.00  0.00    -0.491 OA
BRANCH  28  29
ATOM     29  C   UNL     1      10.986   4.275  23.703  0.00  0.00    +0.244 C 
BRANCH  29  30
ATOM     30  C   UNL     1      10.409   5.678  23.458  0.00  0.00    +0.125 C 
BRANCH  30  31
ATOM     31  N   UNL     1       9.173   5.884  24.268  0.00  0.00    -0.299 NA
ATOM     32  C   UNL     1       8.397   4.651  24.466  0.00  0.00    +0.084 C 
ATOM     33  C   UNL     1       7.655   4.164  23.214  0.00  0.00    +0.015 C 
ATOM     34  C   UNL     1       6.914   5.273  22.460  0.00  0.00    +0.002 C 
ATOM     35  C   UNL     1       7.726   6.558  22.363  0.00  0.00    +0.015 C 
ATOM     36  C   UNL     1       8.264   6.920  23.744  0.00  0.00    +0.084 C 
ENDBRANCH  30  31
ENDBRANCH  29  30
ENDBRANCH  28  29
ENDBRANCH  25  28
ENDBRANCH  20  22
ENDBRANCH   9  20
TORSDOF 9
ENDMDL
MODEL 6
REMARK VINA RESULT:      -7.2      3.142      8.542
REMARK  Name = 
REMARK  9 active torsions:
REMARK  status: ('A' for Active; 'I' for Inactive)
REMARK    1  A    between atoms: O_1  and  C_2
REMARK    2  A    between atoms: C_5  and  C_8
REMARK    3  A    between atoms: C_9  and  C_10
REMARK    4  A    between atoms: C_10  and  C_12
REMARK    5  A    between atoms: C_15  and  O_16
REMARK    6  A    between atoms: O_16  and  C_17
REMARK    7  A    between atoms: C_17  and  C_18
REMARK    8  A    between atoms: C_18  and  N_19
REMARK    9  A    between atoms: C_31  and  O_32
REMARK                            x       y       z     vdW  Elec       q    Type
REMARK                         _______ _______ _______ _____ _____    ______ ____
ROOT
ATOM      1  C   UNL     1       8.492  -1.273  23.400  0.00  0.00    +0.031 A 
ATOM      2  S   UNL     1       8.580  -2.309  22.028  0.00  0.00    -0.087 S 
ATOM      3  C   UNL     1       7.608  -3.517  22.727  0.00  0.00    +0.024 A 
ATOM      4  C   UNL     1       7.193  -4.703  22.087  0.00  0.00    +0.061 A 
ATOM      5  C   UNL     1       6.397  -5.590  22.799  0.00  0.00    +0.118 A 
ATOM      6  C   UNL     1       5.991  -5.306  24.088  0.00  0.00    +0.046 A 
ATOM      7  C   UNL     1       6.394  -4.114  24.706  0.00  0.00    +0.013 A 
ATOM      8  C   UNL     1       7.251  -3.197  24.036  0.00  0.00    +0.001 A 
ATOM      9  C   UNL     1       7.829  -1.920  24.453  0.00  0.00    +0.045 A 
ENDROOT
BRANCH   1  13
ATOM     10  C   UNL     1      10.600   2.471  22.923  0.00  0.00    +0.117 A 
ATOM     11  C   UNL     1       9.901   1.930  21.858  0.00  0.00    +0.046 A 
ATOM     12  C   UNL     1       9.177   0.746  22.037  0.00  0.00    +0.012 A 
ATOM     13  C   UNL     1       9.167   0.055  23.271  0.00  0.00    -0.010 A 
ATOM     14  C   UNL     1       9.863   0.651  24.335  0.00  0.00    +0.012 A 
ATOM     15  C   UNL     1      10.567   1.855  24.169  0.00  0.00    +0.046 A 
BRANCH  10  16
ATOM     16  O   UNL     1      11.313   3.611  22.702  0.00  0.00    -0.507 OA
ATOM     17  H   UNL     1      12.240   3.450  22.942  0.00  0.00    +0.292 HD
ENDBRANCH  10  16
ENDBRANCH   1  13
BRANCH   5  18
ATOM     18  O   UNL     1       5.984  -6.765  22.242  0.00  0.00    -0.507 OA
ATOM     19  H   UNL     1       5.905  -7.435  22.946  0.00  0.00    +0.292 HD
ENDBRANCH   5  18
BRANCH   9  20
ATOM     20  C   UNL     1       7.612  -1.290  25.756  0.00  0.00    +0.195 C 
ATOM     21  O   UNL     1       8.092  -1.786  26.773  0.00  0.00    -0.287 OA
BRANCH  20  22
ATOM     22  C   UNL     1       6.813  -0.033  25.936  0.00  0.00    +0.023 A 
ATOM     23  C   UNL     1       5.658   0.337  25.224  0.00  0.00    +0.015 A 
ATOM     24  C   UNL     1       4.943   1.513  25.576  0.00  0.00    +0.046 A 
ATOM     25  C   UNL     1       5.363   2.310  26.641  0.00  0.00    +0.121 A 
ATOM     26  C   UNL     1       6.510   1.927  27.343  0.00  0.00    +0.046 A 
ATOM     27  C   UNL     1       7.235   0.796  26.978  0.00  0.00    +0.015 A 
BRANCH  25  28
ATOM     28  O   UNL     1       4.625   3.452  26.936  0.00  0.00    -0.491 OA
BRANCH  28  29
ATOM     29  C   UNL     1       5.411   4.644  26.762  0.00  0.00    +0.244 C 
BRANCH  29  30
ATOM     30  C   UNL     1       5.488   5.248  25.352  0.00  0.00    +0.125 C 
BRANCH  30  31
ATOM     31  N   UNL     1       6.909   5.486  24.960  0.00  0.00    -0.299 NA
ATOM     32  C   UNL     1       7.049   6.397  23.815  0.00  0.00    +0.084 C 
ATOM     33  C   UNL     1       6.643   5.784  22.468  0.00  0.00    +0.015 C 
ATOM     34  C   UNL     1       7.192   4.373  22.236  0.00  0.00    +0.002 C 
ATOM     35  C   UNL     1       7.107   3.499  23.480  0.00  0.00    +0.015 C 
ATOM     36  C   UNL     1       7.678   4.262  24.672  0.00  0.00    +0.084 C 
ENDBRANCH  30  31
ENDBRANCH  29  30
ENDBRANCH  28  29
ENDBRANCH  25  28
ENDBRANCH  20  22
ENDBRANCH   9  20
TORSDOF 9
ENDMDL
MODEL 7
REMARK VINA RESULT:      -7.2      3.923      6.192
REMARK  Name = 
REMARK  9 active torsions:
REMARK  status: ('A' for Active; 'I' for Inactive)
REMARK    1  A    between atoms: O_1  and  C_2
REMARK    2  A    between atoms: C_5  and  C_8
REMARK    3  A    between atoms: C_9  and  C_10
REMARK    4  A    between atoms: C_10  and  C_12
REMARK    5  A    between atoms: C_15  and  O_16
REMARK    6  A    between atoms: O_16  and  C_17
REMARK    7  A    between atoms: C_17  and  C_18
REMARK    8  A    between atoms: C_18  and  N_19
REMARK    9  A    between atoms: C_31  and  O_32
REMARK                            x       y       z     vdW  Elec       q    Type
REMARK                         _______ _______ _______ _____ _____    ______ ____
ROOT
ATOM      1  C   UNL     1       7.885  -1.488  22.961  0.00  0.00    +0.031 A 
ATOM      2  S   UNL     1       8.914  -0.837  21.744  0.00  0.00    -0.087 S 
ATOM      3  C   UNL     1       9.274   0.570  22.630  0.00  0.00    +0.024 A 
ATOM      4  C   UNL     1      10.169   1.582  22.228  0.00  0.00    +0.061 A 
ATOM      5  C   UNL     1      10.352   2.670  23.070  0.00  0.00    +0.118 A 
ATOM      6  C   UNL     1       9.706   2.746  24.288  0.00  0.00    +0.046 A 
ATOM      7  C   UNL     1       8.833   1.723  24.685  0.00  0.00    +0.013 A 
ATOM      8  C   UNL     1       8.573   0.613  23.835  0.00  0.00    +0.001 A 
ATOM      9  C   UNL     1       7.706  -0.554  23.993  0.00  0.00    +0.045 A 
ENDROOT
BRANCH   1  13
ATOM     10  C   UNL     1       6.143  -5.399  22.365  0.00  0.00    +0.117 A 
ATOM     11  C   UNL     1       5.419  -4.264  22.048  0.00  0.00    +0.046 A 
ATOM     12  C   UNL     1       6.011  -3.003  22.193  0.00  0.00    +0.012 A 
ATOM     13  C   UNL     1       7.323  -2.847  22.695  0.00  0.00    -0.010 A 
ATOM     14  C   UNL     1       8.036  -4.024  22.976  0.00  0.00    +0.012 A 
ATOM     15  C   UNL     1       7.458  -5.292  22.805  0.00  0.00    +0.046 A 
BRANCH  10  16
ATOM     16  O   UNL     1       5.524  -6.605  22.234  0.00  0.00    -0.507 OA
ATOM     17  H   UNL     1       4.564  -6.472  22.309  0.00  0.00    +0.292 HD
ENDBRANCH  10  16
ENDBRANCH   1  13
BRANCH   5  18
ATOM     18  O   UNL     1      11.188   3.693  22.724  0.00  0.00    -0.507 OA
ATOM     19  H   UNL     1      12.022   3.315  22.390  0.00  0.00    +0.292 HD
ENDBRANCH   5  18
BRANCH   9  20
ATOM     20  C   UNL     1       6.870  -0.823  25.163  0.00  0.00    +0.195 C 
ATOM     21  O   UNL     1       6.174   0.068  25.646  0.00  0.00    -0.287 OA
BRANCH  20  22
ATOM     22  C   UNL     1       6.806  -2.162  25.837  0.00  0.00    +0.023 A 
ATOM     23  C   UNL     1       5.669  -2.978  25.973  0.00  0.00    +0.015 A 
ATOM     24  C   UNL     1       5.779  -4.274  26.545  0.00  0.00    +0.046 A 
ATOM     25  C   UNL     1       7.016  -4.763  26.966  0.00  0.00    +0.121 A 
ATOM     26  C   UNL     1       8.139  -3.942  26.819  0.00  0.00    +0.046 A 
ATOM     27  C   UNL     1       8.028  -2.657  26.294  0.00  0.00    +0.015 A 
BRANCH  25  28
ATOM     28  O   UNL     1       7.062  -6.037  27.523  0.00  0.00    -0.491 OA
BRANCH  28  29
ATOM     29  C   UNL     1       6.221  -6.132  28.685  0.00  0.00    +0.244 C 
BRANCH  29  30
ATOM     30  C   UNL     1       4.904  -6.912  28.550  0.00  0.00    +0.125 C 
BRANCH  30  31
ATOM     31  N   UNL     1       3.762  -6.108  29.075  0.00  0.00    -0.299 NA
ATOM     32  C   UNL     1       3.108  -6.721  30.240  0.00  0.00    +0.084 C 
ATOM     33  C   UNL     1       2.259  -7.956  29.911  0.00  0.00    +0.015 C 
ATOM     34  C   UNL     1       1.354  -7.780  28.689  0.00  0.00    +0.002 C 
ATOM     35  C   UNL     1       2.051  -7.057  27.543  0.00  0.00    +0.015 C 
ATOM     36  C   UNL     1       2.723  -5.796  28.076  0.00  0.00    +0.084 C 
ENDBRANCH  30  31
ENDBRANCH  29  30
ENDBRANCH  28  29
ENDBRANCH  25  28
ENDBRANCH  20  22
ENDBRANCH   9  20
TORSDOF 9
ENDMDL
MODEL 8
REMARK VINA RESULT:      -7.2      3.725      8.833
REMARK  Name = 
REMARK  9 active torsions:
REMARK  status: ('A' for Active; 'I' for Inactive)
REMARK    1  A    between atoms: O_1  and  C_2
REMARK    2  A    between atoms: C_5  and  C_8
REMARK    3  A    between atoms: C_9  and  C_10
REMARK    4  A    between atoms: C_10  and  C_12
REMARK    5  A    between atoms: C_15  and  O_16
REMARK    6  A    between atoms: O_16  and  C_17
REMARK    7  A    between atoms: C_17  and  C_18
REMARK    8  A    between atoms: C_18  and  N_19
REMARK    9  A    between atoms: C_31  and  O_32
REMARK                            x       y       z     vdW  Elec       q    Type
REMARK                         _______ _______ _______ _____ _____    ______ ____
ROOT
ATOM      1  C   UNL     1       7.089  -2.903  23.392  0.00  0.00    +0.031 A 
ATOM      2  S   UNL     1       6.262  -3.848  22.213  0.00  0.00    -0.087 S 
ATOM      3  C   UNL     1       5.652  -4.954  23.352  0.00  0.00    +0.024 A 
ATOM      4  C   UNL     1       4.782  -6.025  23.064  0.00  0.00    +0.061 A 
ATOM      5  C   UNL     1       4.373  -6.839  24.112  0.00  0.00    +0.118 A 
ATOM      6  C   UNL     1       4.776  -6.588  25.409  0.00  0.00    +0.046 A 
ATOM      7  C   UNL     1       5.625  -5.507  25.684  0.00  0.00    +0.013 A 
ATOM      8  C   UNL     1       6.112  -4.675  24.639  0.00  0.00    +0.001 A 
ATOM      9  C   UNL     1       7.010  -3.521  24.649  0.00  0.00    +0.045 A 
ENDROOT
BRANCH   1  13
ATOM     10  C   UNL     1       8.949   0.651  21.781  0.00  0.00    +0.117 A 
ATOM     11  C   UNL     1       7.758   0.749  22.478  0.00  0.00    +0.046 A 
ATOM     12  C   UNL     1       7.191  -0.399  23.043  0.00  0.00    +0.012 A 
ATOM     13  C   UNL     1       7.779  -1.676  22.890  0.00  0.00    -0.010 A 
ATOM     14  C   UNL     1       9.003  -1.730  22.203  0.00  0.00    +0.012 A 
ATOM     15  C   UNL     1       9.592  -0.576  21.659  0.00  0.00    +0.046 A 
BRANCH  10  16
ATOM     16  O   UNL     1       9.456   1.787  21.226  0.00  0.00    -0.507 OA
ATOM     17  H   UNL     1       8.742   2.249  20.756  0.00  0.00    +0.292 HD
ENDBRANCH  10  16
ENDBRANCH   1  13
BRANCH   5  18
ATOM     18  O   UNL     1       3.551  -7.906  23.892  0.00  0.00    -0.507 OA
ATOM     19  H   UNL     1       2.648  -7.577  23.725  0.00  0.00    +0.292 HD
ENDBRANCH   5  18
BRANCH   9  20
ATOM     20  C   UNL     1       7.630  -2.955  25.847  0.00  0.00    +0.195 C 
ATOM     21  O   UNL     1       8.622  -3.485  26.342  0.00  0.00    -0.287 OA
BRANCH  20  22
ATOM     22  C   UNL     1       7.114  -1.726  26.535  0.00  0.00    +0.023 A 
ATOM     23  C   UNL     1       5.809  -1.519  27.016  0.00  0.00    +0.015 A 
ATOM     24  C   UNL     1       5.489  -0.341  27.744  0.00  0.00    +0.046 A 
ATOM     25  C   UNL     1       6.466   0.621  28.006  0.00  0.00    +0.121 A 
ATOM     26  C   UNL     1       7.760   0.398  27.527  0.00  0.00    +0.046 A 
ATOM     27  C   UNL     1       8.068  -0.736  26.781  0.00  0.00    +0.015 A 
BRANCH  25  28
ATOM     28  O   UNL     1       6.093   1.755  28.720  0.00  0.00    -0.491 OA
BRANCH  28  29
ATOM     29  C   UNL     1       6.591   2.953  28.097  0.00  0.00    +0.244 C 
BRANCH  29  30
ATOM     30  C   UNL     1       5.595   3.809  27.301  0.00  0.00    +0.125 C 
BRANCH  30  31
ATOM     31  N   UNL     1       6.114   4.076  25.928  0.00  0.00    -0.299 NA
ATOM     32  C   UNL     1       5.263   4.993  25.155  0.00  0.00    +0.084 C 
ATOM     33  C   UNL     1       3.941   4.378  24.679  0.00  0.00    +0.015 C 
ATOM     34  C   UNL     1       4.089   2.979  24.074  0.00  0.00    +0.002 C 
ATOM     35  C   UNL     1       5.052   2.099  24.861  0.00  0.00    +0.015 C 
ATOM     36  C   UNL     1       6.345   2.868  25.115  0.00  0.00    +0.084 C 
ENDBRANCH  30  31
ENDBRANCH  29  30
ENDBRANCH  28  29
ENDBRANCH  25  28
ENDBRANCH  20  22
ENDBRANCH   9  20
TORSDOF 9
ENDMDL
MODEL 9
REMARK VINA RESULT:      -6.9      3.712      8.084
REMARK  Name = 
REMARK  9 active torsions:
REMARK  status: ('A' for Active; 'I' for Inactive)
REMARK    1  A    between atoms: O_1  and  C_2
REMARK    2  A    between atoms: C_5  and  C_8
REMARK    3  A    between atoms: C_9  and  C_10
REMARK    4  A    between atoms: C_10  and  C_12
REMARK    5  A    between atoms: C_15  and  O_16
REMARK    6  A    between atoms: O_16  and  C_17
REMARK    7  A    between atoms: C_17  and  C_18
REMARK    8  A    between atoms: C_18  and  N_19
REMARK    9  A    between atoms: C_31  and  O_32
REMARK                            x       y       z     vdW  Elec       q    Type
REMARK                         _______ _______ _______ _____ _____    ______ ____
ROOT
ATOM      1  C   UNL     1       5.486  -3.250  25.776  0.00  0.00    +0.031 A 
ATOM      2  S   UNL     1       4.218  -3.875  24.792  0.00  0.00    -0.087 S 
ATOM      3  C   UNL     1       5.278  -4.605  23.680  0.00  0.00    +0.024 A 
ATOM      4  C   UNL     1       4.888  -5.394  22.578  0.00  0.00    +0.061 A 
ATOM      5  C   UNL     1       5.881  -5.921  21.763  0.00  0.00    +0.118 A 
ATOM      6  C   UNL     1       7.218  -5.711  22.042  0.00  0.00    +0.046 A 
ATOM      7  C   UNL     1       7.592  -4.942  23.152  0.00  0.00    +0.013 A 
ATOM      8  C   UNL     1       6.612  -4.339  23.988  0.00  0.00    +0.001 A 
ATOM      9  C   UNL     1       6.729  -3.486  25.170  0.00  0.00    +0.045 A 
ENDROOT
BRANCH   1  13
ATOM     10  C   UNL     1       4.074  -1.187  29.302  0.00  0.00    +0.117 A 
ATOM     11  C   UNL     1       3.918  -2.557  29.194  0.00  0.00    +0.046 A 
ATOM     12  C   UNL     1       4.426  -3.225  28.073  0.00  0.00    +0.012 A 
ATOM     13  C   UNL     1       5.066  -2.533  27.019  0.00  0.00    -0.010 A 
ATOM     14  C   UNL     1       5.232  -1.148  27.180  0.00  0.00    +0.012 A 
ATOM     15  C   UNL     1       4.750  -0.478  28.316  0.00  0.00    +0.046 A 
BRANCH  10  16
ATOM     16  O   UNL     1       3.543  -0.571  30.396  0.00  0.00    -0.507 OA
ATOM     17  H   UNL     1       4.244  -0.452  31.057  0.00  0.00    +0.292 HD
ENDBRANCH  10  16
ENDBRANCH   1  13
BRANCH   5  18
ATOM     18  O   UNL     1       5.566  -6.672  20.668  0.00  0.00    -0.507 OA
ATOM     19  H   UNL     1       6.369  -7.132  20.362  0.00  0.00    +0.292 HD
ENDBRANCH   5  18
BRANCH   9  20
ATOM     20  C   UNL     1       7.993  -3.057  25.769  0.00  0.00    +0.195 C 
ATOM     21  O   UNL     1       8.536  -3.745  26.631  0.00  0.00    -0.287 OA
BRANCH  20  22
ATOM     22  C   UNL     1       8.692  -1.786  25.387  0.00  0.00    +0.023 A 
ATOM     23  C   UNL     1       8.837  -0.636  26.184  0.00  0.00    +0.015 A 
ATOM     24  C   UNL     1       9.619   0.460  25.729  0.00  0.00    +0.046 A 
ATOM     25  C   UNL     1      10.267   0.408  24.494  0.00  0.00    +0.121 A 
ATOM     26  C   UNL     1      10.118  -0.745  23.716  0.00  0.00    +0.046 A 
ATOM     27  C   UNL     1       9.323  -1.805  24.142  0.00  0.00    +0.015 A 
BRANCH  25  28
ATOM     28  O   UNL     1      11.015   1.512  24.099  0.00  0.00    -0.491 OA
BRANCH  28  29
ATOM     29  C   UNL     1      10.396   2.197  22.996  0.00  0.00    +0.244 C 
BRANCH  29  30
ATOM     30  C   UNL     1       9.135   3.024  23.287  0.00  0.00    +0.125 C 
BRANCH  30  31
ATOM     31  N   UNL     1       8.111   2.811  22.223  0.00  0.00    -0.299 NA
ATOM     32  C   UNL     1       7.043   3.821  22.236  0.00  0.00    +0.084 C 
ATOM     33  C   UNL     1       6.053   3.679  23.400  0.00  0.00    +0.015 C 
ATOM     34  C   UNL     1       5.580   2.242  23.640  0.00  0.00    +0.002 C 
ATOM     35  C   UNL     1       6.708   1.226  23.524  0.00  0.00    +0.015 C 
ATOM     36  C   UNL     1       7.483   1.478  22.234  0.00  0.00    +0.084 C 
ENDBRANCH  30  31
ENDBRANCH  29  30
ENDBRANCH  28  29
ENDBRANCH  25  28
ENDBRANCH  20  22
ENDBRANCH   9  20
TORSDOF 9
ENDMDL
