MODEL 1
REMARK VINA RESULT:      -7.2      0.000      0.000
REMARK  Name = 
REMARK  6 active torsions:
REMARK  status: ('A' for Active; 'I' for Inactive)
REMARK    1  A    between atoms: C_1  and  C_2
REMARK    2  A    between atoms: C_4  and  C_9
REMARK    3  A    between atoms: C_10  and  C_11
REMARK    4  A    between atoms: C_12  and  C_13
REMARK    5  A    between atoms: C_13  and  N_14
REMARK    6  A    between atoms: N_14  and  N_15
REMARK                            x       y       z     vdW  Elec       q    Type
REMARK                         _______ _______ _______ _____ _____    ______ ____
ROOT
ATOM      1  C   UNL     1       6.607   1.427  23.083  0.00  0.00    +0.030 A 
ATOM      2  C   UNL     1       5.663   2.015  23.937  0.00  0.00    +0.017 A 
ATOM      3  C   UNL     1       5.503   3.400  23.971  0.00  0.00    +0.001 A 
ATOM      4  C   UNL     1       6.274   4.206  23.140  0.00  0.00    +0.000 A 
ATOM      5  C   UNL     1       7.208   3.628  22.278  0.00  0.00    +0.006 A 
ATOM      6  C   UNL     1       7.413   2.235  22.250  0.00  0.00    -0.014 A 
ENDROOT
BRANCH   1   8
ATOM      7  C   UNL     1       6.876  -1.197  23.115  0.00  0.00    -0.041 C 
ATOM      8  C   UNL     1       6.733  -0.002  23.109  0.00  0.00    -0.059 C 
BRANCH   7  17
ATOM      9  C   UNL     1       6.236  -5.643  21.075  0.00  0.00    +0.066 C 
ATOM     10  C   UNL     1       6.795  -4.706  22.100  0.00  0.00    +0.044 A 
ATOM     11  N   UNL     1       7.595  -5.244  23.045  0.00  0.00    -0.220 NA
ATOM     12  C   UNL     1       8.132  -4.415  23.947  0.00  0.00    +0.214 A 
ATOM     13  N   UNL     1       8.990  -4.967  24.873  0.00  0.00    -0.327 N 
ATOM     14  H   UNL     1       8.812  -5.956  24.970  0.00  0.00    +0.145 HD
ATOM     15  H   UNL     1       9.025  -4.404  25.710  0.00  0.00    +0.145 HD
ATOM     16  N   UNL     1       7.889  -3.107  24.019  0.00  0.00    -0.206 NA
ATOM     17  C   UNL     1       7.089  -2.608  23.062  0.00  0.00    +0.119 A 
ATOM     18  C   UNL     1       6.512  -3.361  22.065  0.00  0.00    +0.060 A 
ENDBRANCH   7  17
ENDBRANCH   1   8
BRANCH   6  19
ATOM     19  C   UNL     1       8.422   1.619  21.295  0.00  0.00    +0.157 C 
BRANCH  19  20
ATOM     20  N   UNL     1       9.824   1.883  21.674  0.00  0.00    -0.275 N 
ATOM     21  H   UNL     1       9.880   2.868  21.946  0.00  0.00    +0.167 HD
BRANCH  20  22
ATOM     22  N   UNL     1      10.206   1.131  22.786  0.00  0.00    -0.203 N 
ATOM     23  C   UNL     1      10.297  -0.259  22.852  0.00  0.00    +0.437 A 
ATOM     24  O   UNL     1      10.175  -1.056  21.930  0.00  0.00    -0.221 OA
ATOM     25  O   UNL     1      10.556  -0.630  24.170  0.00  0.00    -0.415 OA
ATOM     26  C   UNL     1      10.548   0.608  24.820  0.00  0.00    +0.220 A 
ATOM     27  C   UNL     1      10.337   1.650  24.025  0.00  0.00    +0.153 A 
ENDBRANCH  20  22
ENDBRANCH  19  20
ENDBRANCH   6  19
TORSDOF 5
ENDMDL
MODEL 2
REMARK VINA RESULT:      -7.1      0.784      1.672
REMARK  Name = 
REMARK  6 active torsions:
REMARK  status: ('A' for Active; 'I' for Inactive)
REMARK    1  A    between atoms: C_1  and  C_2
REMARK    2  A    between atoms: C_4  and  C_9
REMARK    3  A    between atoms: C_10  and  C_11
REMARK    4  A    between atoms: C_12  and  C_13
REMARK    5  A    between atoms: C_13  and  N_14
REMARK    6  A    between atoms: N_14  and  N_15
REMARK                            x       y       z     vdW  Elec       q    Type
REMARK                         _______ _______ _______ _____ _____    ______ ____
ROOT
ATOM      1  C   UNL     1       6.615   1.406  23.098  0.00  0.00    +0.030 A 
ATOM      2  C   UNL     1       5.659   1.980  23.947  0.00  0.00    +0.017 A 
ATOM      3  C   UNL     1       5.456   3.360  23.957  0.00  0.00    +0.001 A 
ATOM      4  C   UNL     1       6.197   4.173  23.106  0.00  0.00    +0.000 A 
ATOM      5  C   UNL     1       7.144   3.609  22.248  0.00  0.00    +0.006 A 
ATOM      6  C   UNL     1       7.390   2.221  22.245  0.00  0.00    -0.014 A 
ENDROOT
BRANCH   1   8
ATOM      7  C   UNL     1       6.966  -1.208  23.181  0.00  0.00    -0.041 C 
ATOM      8  C   UNL     1       6.785  -0.019  23.149  0.00  0.00    -0.059 C 
BRANCH   7  17
ATOM      9  C   UNL     1       9.004  -5.292  25.053  0.00  0.00    +0.066 C 
ATOM     10  C   UNL     1       8.186  -4.541  24.048  0.00  0.00    +0.044 A 
ATOM     11  N   UNL     1       7.629  -5.263  23.053  0.00  0.00    -0.220 NA
ATOM     12  C   UNL     1       6.866  -4.612  22.168  0.00  0.00    +0.214 A 
ATOM     13  N   UNL     1       6.260  -5.368  21.188  0.00  0.00    -0.327 N 
ATOM     14  H   UNL     1       6.758  -6.236  21.057  0.00  0.00    +0.145 HD
ATOM     15  H   UNL     1       6.057  -4.806  20.376  0.00  0.00    +0.145 HD
ATOM     16  N   UNL     1       6.662  -3.296  22.160  0.00  0.00    -0.206 NA
ATOM     17  C   UNL     1       7.232  -2.611  23.166  0.00  0.00    +0.119 A 
ATOM     18  C   UNL     1       8.006  -3.182  24.151  0.00  0.00    +0.060 A 
ENDBRANCH   7  17
ENDBRANCH   1   8
BRANCH   6  19
ATOM     19  C   UNL     1       8.413   1.619  21.294  0.00  0.00    +0.157 C 
BRANCH  19  20
ATOM     20  N   UNL     1       9.809   1.912  21.673  0.00  0.00    -0.275 N 
ATOM     21  H   UNL     1       9.842   2.896  21.952  0.00  0.00    +0.167 HD
BRANCH  20  22
ATOM     22  N   UNL     1      10.210   1.161  22.779  0.00  0.00    -0.203 N 
ATOM     23  C   UNL     1      10.326  -0.226  22.837  0.00  0.00    +0.437 A 
ATOM     24  O   UNL     1      10.214  -1.021  21.911  0.00  0.00    -0.221 OA
ATOM     25  O   UNL     1      10.598  -0.601  24.152  0.00  0.00    -0.415 OA
ATOM     26  C   UNL     1      10.571   0.634  24.808  0.00  0.00    +0.220 A 
ATOM     27  C   UNL     1      10.337   1.676  24.020  0.00  0.00    +0.153 A 
ENDBRANCH  20  22
ENDBRANCH  19  20
ENDBRANCH   6  19
TORSDOF 5
ENDMDL
MODEL 3
REMARK VINA RESULT:      -7.0      2.708      4.021
REMARK  Name = 
REMARK  6 active torsions:
REMARK  status: ('A' for Active; 'I' for Inactive)
REMARK    1  A    between atoms: C_1  and  C_2
REMARK    2  A    between atoms: C_4  and  C_9
REMARK    3  A    between atoms: C_10  and  C_11
REMARK    4  A    between atoms: C_12  and  C_13
REMARK    5  A    between atoms: C_13  and  N_14
REMARK    6  A    between atoms: N_14  and  N_15
REMARK                            x       y       z     vdW  Elec       q    Type
REMARK                         _______ _______ _______ _____ _____    ______ ____
ROOT
ATOM      1  C   UNL     1       8.468  -0.073  22.979  0.00  0.00    +0.030 A 
ATOM      2  C   UNL     1       8.964   0.515  21.806  0.00  0.00    +0.017 A 
ATOM      3  C   UNL     1       9.820   1.614  21.871  0.00  0.00    +0.001 A 
ATOM      4  C   UNL     1      10.199   2.122  23.109  0.00  0.00    +0.000 A 
ATOM      5  C   UNL     1       9.721   1.535  24.282  0.00  0.00    +0.006 A 
ATOM      6  C   UNL     1       8.828   0.446  24.242  0.00  0.00    -0.014 A 
ENDROOT
BRANCH   1   8
ATOM      7  C   UNL     1       6.849  -2.145  22.759  0.00  0.00    -0.041 C 
ATOM      8  C   UNL     1       7.579  -1.191  22.841  0.00  0.00    -0.059 C 
BRANCH   7  17
ATOM      9  C   UNL     1       2.885  -4.789  24.036  0.00  0.00    +0.066 C 
ATOM     10  C   UNL     1       4.164  -4.565  23.290  0.00  0.00    +0.044 A 
ATOM     11  N   UNL     1       4.568  -5.553  22.463  0.00  0.00    -0.220 NA
ATOM     12  C   UNL     1       5.690  -5.352  21.763  0.00  0.00    +0.214 A 
ATOM     13  N   UNL     1       6.064  -6.344  20.882  0.00  0.00    -0.327 N 
ATOM     14  H   UNL     1       5.649  -7.225  21.149  0.00  0.00    +0.145 HD
ATOM     15  H   UNL     1       7.058  -6.316  20.711  0.00  0.00    +0.145 HD
ATOM     16  N   UNL     1       6.470  -4.277  21.863  0.00  0.00    -0.206 NA
ATOM     17  C   UNL     1       6.035  -3.316  22.695  0.00  0.00    +0.119 A 
ATOM     18  C   UNL     1       4.878  -3.400  23.438  0.00  0.00    +0.060 A 
ENDBRANCH   7  17
ENDBRANCH   1   8
BRANCH   6  19
ATOM     19  C   UNL     1       8.327  -0.193  25.527  0.00  0.00    +0.157 C 
BRANCH  19  20
ATOM     20  N   UNL     1       9.219  -1.249  26.044  0.00  0.00    -0.275 N 
ATOM     21  H   UNL     1       9.392  -1.038  27.030  0.00  0.00    +0.167 HD
BRANCH  20  22
ATOM     22  N   UNL     1       8.611  -2.504  25.996  0.00  0.00    -0.203 N 
ATOM     23  C   UNL     1       8.970  -3.565  25.165  0.00  0.00    +0.437 A 
ATOM     24  O   UNL     1       9.940  -3.630  24.421  0.00  0.00    -0.221 OA
ATOM     25  O   UNL     1       8.028  -4.583  25.304  0.00  0.00    -0.415 OA
ATOM     26  C   UNL     1       7.122  -4.009  26.202  0.00  0.00    +0.220 A 
ATOM     27  C   UNL     1       7.444  -2.788  26.611  0.00  0.00    +0.153 A 
ENDBRANCH  20  22
ENDBRANCH  19  20
ENDBRANCH   6  19
TORSDOF 5
ENDMDL
MODEL 4
REMARK VINA RESULT:      -6.6      2.894      4.204
REMARK  Name = 
REMARK  6 active torsions:
REMARK  status: ('A' for Active; 'I' for Inactive)
REMARK    1  A    between atoms: C_1  and  C_2
REMARK    2  A    between atoms: C_4  and  C_9
REMARK    3  A    between atoms: C_10  and  C_11
REMARK    4  A    between atoms: C_12  and  C_13
REMARK    5  A    between atoms: C_13  and  N_14
REMARK    6  A    between atoms: N_14  and  N_15
REMARK                            x       y       z     vdW  Elec       q    Type
REMARK                         _______ _______ _______ _____ _____    ______ ____
ROOT
ATOM      1  C   UNL     1       9.106  -0.202  23.105  0.00  0.00    +0.030 A 
ATOM      2  C   UNL     1       9.342   0.430  21.876  0.00  0.00    +0.017 A 
ATOM      3  C   UNL     1       9.998   1.660  21.826  0.00  0.00    +0.001 A 
ATOM      4  C   UNL     1      10.437   2.257  23.003  0.00  0.00    +0.000 A 
ATOM      5  C   UNL     1      10.218   1.628  24.230  0.00  0.00    +0.006 A 
ATOM      6  C   UNL     1       9.527   0.403  24.309  0.00  0.00    -0.014 A 
ENDROOT
BRANCH   1   8
ATOM      7  C   UNL     1       7.815  -2.503  23.110  0.00  0.00    -0.041 C 
ATOM      8  C   UNL     1       8.411  -1.458  23.087  0.00  0.00    -0.059 C 
BRANCH   7  17
ATOM      9  C   UNL     1       5.496  -6.020  25.678  0.00  0.00    +0.066 C 
ATOM     10  C   UNL     1       6.016  -5.403  24.416  0.00  0.00    +0.044 A 
ATOM     11  N   UNL     1       5.777  -6.071  23.268  0.00  0.00    -0.220 NA
ATOM     12  C   UNL     1       6.204  -5.514  22.129  0.00  0.00    +0.214 A 
ATOM     13  N   UNL     1       5.908  -6.178  20.958  0.00  0.00    -0.327 N 
ATOM     14  H   UNL     1       5.734  -7.156  21.143  0.00  0.00    +0.145 HD
ATOM     15  H   UNL     1       6.567  -5.939  20.233  0.00  0.00    +0.145 HD
ATOM     16  N   UNL     1       6.898  -4.380  22.047  0.00  0.00    -0.206 NA
ATOM     17  C   UNL     1       7.116  -3.744  23.210  0.00  0.00    +0.119 A 
ATOM     18  C   UNL     1       6.692  -4.205  24.437  0.00  0.00    +0.060 A 
ENDBRANCH   7  17
ENDBRANCH   1   8
BRANCH   6  19
ATOM     19  C   UNL     1       9.308  -0.277  25.651  0.00  0.00    +0.157 C 
BRANCH  19  20
ATOM     20  N   UNL     1       8.227   0.335  26.449  0.00  0.00    -0.275 N 
ATOM     21  H   UNL     1       8.184   1.323  26.185  0.00  0.00    +0.167 HD
BRANCH  20  22
ATOM     22  N   UNL     1       6.985  -0.223  26.145  0.00  0.00    -0.203 N 
ATOM     23  C   UNL     1       6.017   0.325  25.305  0.00  0.00    +0.437 A 
ATOM     24  O   UNL     1       6.123   1.321  24.600  0.00  0.00    -0.221 OA
ATOM     25  O   UNL     1       4.861  -0.451  25.385  0.00  0.00    -0.415 OA
ATOM     26  C   UNL     1       5.227  -1.406  26.339  0.00  0.00    +0.220 A 
ATOM     27  C   UNL     1       6.466  -1.282  26.800  0.00  0.00    +0.153 A 
ENDBRANCH  20  22
ENDBRANCH  19  20
ENDBRANCH   6  19
TORSDOF 5
ENDMDL
MODEL 5
REMARK VINA RESULT:      -6.6      1.644      6.251
REMARK  Name = 
REMARK  6 active torsions:
REMARK  status: ('A' for Active; 'I' for Inactive)
REMARK    1  A    between atoms: C_1  and  C_2
REMARK    2  A    between atoms: C_4  and  C_9
REMARK    3  A    between atoms: C_10  and  C_11
REMARK    4  A    between atoms: C_12  and  C_13
REMARK    5  A    between atoms: C_13  and  N_14
REMARK    6  A    between atoms: N_14  and  N_15
REMARK                            x       y       z     vdW  Elec       q    Type
REMARK                         _______ _______ _______ _____ _____    ______ ____
ROOT
ATOM      1  C   UNL     1       6.362  -3.530  22.835  0.00  0.00    +0.030 A 
ATOM      2  C   UNL     1       6.108  -4.207  21.633  0.00  0.00    +0.017 A 
ATOM      3  C   UNL     1       5.841  -5.576  21.632  0.00  0.00    +0.001 A 
ATOM      4  C   UNL     1       5.808  -6.274  22.834  0.00  0.00    +0.000 A 
ATOM      5  C   UNL     1       6.046  -5.606  24.037  0.00  0.00    +0.006 A 
ATOM      6  C   UNL     1       6.353  -4.231  24.061  0.00  0.00    -0.014 A 
ENDROOT
BRANCH   1   8
ATOM      7  C   UNL     1       6.924  -0.955  22.715  0.00  0.00    -0.041 C 
ATOM      8  C   UNL     1       6.647  -2.125  22.763  0.00  0.00    -0.059 C 
BRANCH   7  17
ATOM      9  C   UNL     1       6.167   3.789  23.836  0.00  0.00    +0.066 C 
ATOM     10  C   UNL     1       6.953   2.660  23.243  0.00  0.00    +0.044 A 
ATOM     11  N   UNL     1       8.139   2.972  22.680  0.00  0.00    -0.220 NA
ATOM     12  C   UNL     1       8.869   1.970  22.179  0.00  0.00    +0.214 A 
ATOM     13  N   UNL     1      10.101   2.293  21.654  0.00  0.00    -0.327 N 
ATOM     14  H   UNL     1      10.126   3.268  21.393  0.00  0.00    +0.145 HD
ATOM     15  H   UNL     1      10.392   1.609  20.973  0.00  0.00    +0.145 HD
ATOM     16  N   UNL     1       8.487   0.694  22.141  0.00  0.00    -0.206 NA
ATOM     17  C   UNL     1       7.302   0.422  22.712  0.00  0.00    +0.119 A 
ATOM     18  C   UNL     1       6.485   1.368  23.290  0.00  0.00    +0.060 A 
ENDBRANCH   7  17
ENDBRANCH   1   8
BRANCH   6  19
ATOM     19  C   UNL     1       6.596  -3.514  25.379  0.00  0.00    +0.157 C 
BRANCH  19  20
ATOM     20  N   UNL     1       8.011  -3.523  25.799  0.00  0.00    -0.275 N 
ATOM     21  H   UNL     1       8.477  -4.261  25.265  0.00  0.00    +0.167 HD
BRANCH  20  22
ATOM     22  N   UNL     1       8.650  -2.324  25.479  0.00  0.00    -0.203 N 
ATOM     23  C   UNL     1       9.699  -2.163  24.575  0.00  0.00    +0.437 A 
ATOM     24  O   UNL     1      10.167  -3.007  23.822  0.00  0.00    -0.221 OA
ATOM     25  O   UNL     1      10.161  -0.850  24.653  0.00  0.00    -0.415 OA
ATOM     26  C   UNL     1       9.356  -0.326  25.670  0.00  0.00    +0.220 A 
ATOM     27  C   UNL     1       8.471  -1.179  26.170  0.00  0.00    +0.153 A 
ENDBRANCH  20  22
ENDBRANCH  19  20
ENDBRANCH   6  19
TORSDOF 5
ENDMDL
MODEL 6
REMARK VINA RESULT:      -6.5      2.574      3.656
REMARK  Name = 
REMARK  6 active torsions:
REMARK  status: ('A' for Active; 'I' for Inactive)
REMARK    1  A    between atoms: C_1  and  C_2
REMARK    2  A    between atoms: C_4  and  C_9
REMARK    3  A    between atoms: C_10  and  C_11
REMARK    4  A    between atoms: C_12  and  C_13
REMARK    5  A    between atoms: C_13  and  N_14
REMARK    6  A    between atoms: N_14  and  N_15
REMARK                            x       y       z     vdW  Elec       q    Type
REMARK                         _______ _______ _______ _____ _____    ______ ____
ROOT
ATOM      1  C   UNL     1       9.290   1.286  23.809  0.00  0.00    +0.030 A 
ATOM      2  C   UNL     1      10.559   1.829  23.559  0.00  0.00    +0.017 A 
ATOM      3  C   UNL     1      10.747   3.211  23.539  0.00  0.00    +0.001 A 
ATOM      4  C   UNL     1       9.672   4.058  23.785  0.00  0.00    +0.000 A 
ATOM      5  C   UNL     1       8.408   3.526  24.048  0.00  0.00    +0.006 A 
ATOM      6  C   UNL     1       8.186   2.134  24.039  0.00  0.00    -0.014 A 
ENDROOT
BRANCH   1   8
ATOM      7  C   UNL     1       9.014  -1.338  23.794  0.00  0.00    -0.041 C 
ATOM      8  C   UNL     1       9.162  -0.144  23.799  0.00  0.00    -0.059 C 
BRANCH   7  17
ATOM      9  C   UNL     1       6.843  -5.449  22.143  0.00  0.00    +0.066 C 
ATOM     10  C   UNL     1       7.761  -4.689  23.050  0.00  0.00    +0.044 A 
ATOM     11  N   UNL     1       8.445  -5.406  23.965  0.00  0.00    -0.220 NA
ATOM     12  C   UNL     1       9.297  -4.746  24.758  0.00  0.00    +0.214 A 
ATOM     13  N   UNL     1      10.030  -5.496  25.652  0.00  0.00    -0.327 N 
ATOM     14  H   UNL     1       9.567  -6.375  25.835  0.00  0.00    +0.145 HD
ATOM     15  H   UNL     1      10.318  -4.935  26.439  0.00  0.00    +0.145 HD
ATOM     16  N   UNL     1       9.476  -3.426  24.753  0.00  0.00    -0.206 NA
ATOM     17  C   UNL     1       8.778  -2.746  23.829  0.00  0.00    +0.119 A 
ATOM     18  C   UNL     1       7.902  -3.325  22.938  0.00  0.00    +0.060 A 
ENDBRANCH   7  17
ENDBRANCH   1   8
BRANCH   6  19
ATOM     19  C   UNL     1       6.807   1.569  24.341  0.00  0.00    +0.157 C 
BRANCH  19  20
ATOM     20  N   UNL     1       6.564   1.356  25.782  0.00  0.00    -0.275 N 
ATOM     21  H   UNL     1       5.672   1.807  26.004  0.00  0.00    +0.167 HD
BRANCH  20  22
ATOM     22  N   UNL     1       6.422   0.002  26.084  0.00  0.00    -0.203 N 
ATOM     23  C   UNL     1       7.293  -0.769  26.853  0.00  0.00    +0.437 A 
ATOM     24  O   UNL     1       8.263  -0.380  27.490  0.00  0.00    -0.221 OA
ATOM     25  O   UNL     1       6.888  -2.102  26.791  0.00  0.00    -0.415 OA
ATOM     26  C   UNL     1       5.798  -2.026  25.917  0.00  0.00    +0.220 A 
ATOM     27  C   UNL     1       5.516  -0.802  25.488  0.00  0.00    +0.153 A 
ENDBRANCH  20  22
ENDBRANCH  19  20
ENDBRANCH   6  19
TORSDOF 5
ENDMDL
MODEL 7
REMARK VINA RESULT:      -6.5      2.139      6.074
REMARK  Name = 
REMARK  6 active torsions:
REMARK  status: ('A' for Active; 'I' for Inactive)
REMARK    1  A    between atoms: C_1  and  C_2
REMARK    2  A    between atoms: C_4  and  C_9
REMARK    3  A    between atoms: C_10  and  C_11
REMARK    4  A    between atoms: C_12  and  C_13
REMARK    5  A    between atoms: C_13  and  N_14
REMARK    6  A    between atoms: N_14  and  N_15
REMARK                            x       y       z     vdW  Elec       q    Type
REMARK                         _______ _______ _______ _____ _____    ______ ____
ROOT
ATOM      1  C   UNL     1       6.807  -3.274  22.661  0.00  0.00    +0.030 A 
ATOM      2  C   UNL     1       6.108  -3.825  21.577  0.00  0.00    +0.017 A 
ATOM      3  C   UNL     1       6.216  -5.183  21.280  0.00  0.00    +0.001 A 
ATOM      4  C   UNL     1       7.012  -6.003  22.073  0.00  0.00    +0.000 A 
ATOM      5  C   UNL     1       7.702  -5.465  23.162  0.00  0.00    +0.006 A 
ATOM      6  C   UNL     1       7.636  -4.090  23.461  0.00  0.00    -0.014 A 
ENDROOT
BRANCH   1   8
ATOM      7  C   UNL     1       6.568  -0.690  23.137  0.00  0.00    -0.041 C 
ATOM      8  C   UNL     1       6.664  -1.866  22.902  0.00  0.00    -0.059 C 
BRANCH   7  17
ATOM      9  C   UNL     1       7.255   4.114  22.251  0.00  0.00    +0.066 C 
ATOM     10  C   UNL     1       6.777   2.957  23.072  0.00  0.00    +0.044 A 
ATOM     11  N   UNL     1       6.164   3.250  24.239  0.00  0.00    -0.220 NA
ATOM     12  C   UNL     1       5.699   2.229  24.967  0.00  0.00    +0.214 A 
ATOM     13  N   UNL     1       5.028   2.542  26.129  0.00  0.00    -0.327 N 
ATOM     14  H   UNL     1       5.295   3.462  26.451  0.00  0.00    +0.145 HD
ATOM     15  H   UNL     1       5.069   1.777  26.785  0.00  0.00    +0.145 HD
ATOM     16  N   UNL     1       5.846   0.942  24.657  0.00  0.00    -0.206 NA
ATOM     17  C   UNL     1       6.460   0.690  23.489  0.00  0.00    +0.119 A 
ATOM     18  C   UNL     1       6.946   1.662  22.643  0.00  0.00    +0.060 A 
ENDBRANCH   7  17
ENDBRANCH   1   8
BRANCH   6  19
ATOM     19  C   UNL     1       8.381  -3.522  24.658  0.00  0.00    +0.157 C 
BRANCH  19  20
ATOM     20  N   UNL     1       9.761  -3.103  24.344  0.00  0.00    -0.275 N 
ATOM     21  H   UNL     1      10.020  -3.561  23.466  0.00  0.00    +0.167 HD
BRANCH  20  22
ATOM     22  N   UNL     1       9.843  -1.727  24.127  0.00  0.00    -0.203 N 
ATOM     23  C   UNL     1      10.245  -1.100  22.948  0.00  0.00    +0.437 A 
ATOM     24  O   UNL     1      10.484  -1.628  21.869  0.00  0.00    -0.221 OA
ATOM     25  O   UNL     1      10.344   0.271  23.179  0.00  0.00    -0.415 OA
ATOM     26  C   UNL     1      10.031   0.351  24.541  0.00  0.00    +0.220 A 
ATOM     27  C   UNL     1       9.743  -0.811  25.112  0.00  0.00    +0.153 A 
ENDBRANCH  20  22
ENDBRANCH  19  20
ENDBRANCH   6  19
TORSDOF 5
ENDMDL
MODEL 8
REMARK VINA RESULT:      -6.5      2.804      7.039
REMARK  Name = 
REMARK  6 active torsions:
REMARK  status: ('A' for Active; 'I' for Inactive)
REMARK    1  A    between atoms: C_1  and  C_2
REMARK    2  A    between atoms: C_4  and  C_9
REMARK    3  A    between atoms: C_10  and  C_11
REMARK    4  A    between atoms: C_12  and  C_13
REMARK    5  A    between atoms: C_13  and  N_14
REMARK    6  A    between atoms: N_14  and  N_15
REMARK                            x       y       z     vdW  Elec       q    Type
REMARK                         _______ _______ _______ _____ _____    ______ ____
ROOT
ATOM      1  C   UNL     1       7.237  -3.249  22.605  0.00  0.00    +0.030 A 
ATOM      2  C   UNL     1       6.268  -3.755  21.727  0.00  0.00    +0.017 A 
ATOM      3  C   UNL     1       6.072  -5.130  21.603  0.00  0.00    +0.001 A 
ATOM      4  C   UNL     1       6.833  -6.008  22.367  0.00  0.00    +0.000 A 
ATOM      5  C   UNL     1       7.792  -5.513  23.253  0.00  0.00    +0.006 A 
ATOM      6  C   UNL     1       8.032  -4.129  23.371  0.00  0.00    -0.014 A 
ENDROOT
BRANCH   1   8
ATOM      7  C   UNL     1       7.568  -0.633  22.707  0.00  0.00    -0.041 C 
ATOM      8  C   UNL     1       7.399  -1.824  22.673  0.00  0.00    -0.059 C 
BRANCH   7  17
ATOM      9  C   UNL     1      10.546   3.221  23.492  0.00  0.00    +0.066 C 
ATOM     10  C   UNL     1       9.244   2.588  23.107  0.00  0.00    +0.044 A 
ATOM     11  N   UNL     1       8.249   3.421  22.735  0.00  0.00    -0.220 NA
ATOM     12  C   UNL     1       7.092   2.870  22.353  0.00  0.00    +0.214 A 
ATOM     13  N   UNL     1       6.101   3.727  21.925  0.00  0.00    -0.327 N 
ATOM     14  H   UNL     1       6.254   4.653  22.297  0.00  0.00    +0.145 HD
ATOM     15  H   UNL     1       5.190   3.309  22.041  0.00  0.00    +0.145 HD
ATOM     16  N   UNL     1       6.827   1.564  22.369  0.00  0.00    -0.206 NA
ATOM     17  C   UNL     1       7.842   0.768  22.743  0.00  0.00    +0.119 A 
ATOM     18  C   UNL     1       9.085   1.223  23.121  0.00  0.00    +0.060 A 
ENDBRANCH   7  17
ENDBRANCH   1   8
BRANCH   6  19
ATOM     19  C   UNL     1       9.069  -3.604  24.350  0.00  0.00    +0.157 C 
BRANCH  19  20
ATOM     20  N   UNL     1       9.032  -4.280  25.662  0.00  0.00    -0.275 N 
ATOM     21  H   UNL     1       9.851  -3.959  26.187  0.00  0.00    +0.167 HD
BRANCH  20  22
ATOM     22  N   UNL     1       7.906  -3.911  26.398  0.00  0.00    -0.203 N 
ATOM     23  C   UNL     1       7.042  -4.772  27.073  0.00  0.00    +0.437 A 
ATOM     24  O   UNL     1       7.174  -5.978  27.239  0.00  0.00    -0.221 OA
ATOM     25  O   UNL     1       5.958  -4.037  27.551  0.00  0.00    -0.415 OA
ATOM     26  C   UNL     1       6.246  -2.758  27.063  0.00  0.00    +0.220 A 
ATOM     27  C   UNL     1       7.380  -2.669  26.379  0.00  0.00    +0.153 A 
ENDBRANCH  20  22
ENDBRANCH  19  20
ENDBRANCH   6  19
TORSDOF 5
ENDMDL
MODEL 9
REMARK VINA RESULT:      -6.4      2.053      6.282
REMARK  Name = 
REMARK  6 active torsions:
REMARK  status: ('A' for Active; 'I' for Inactive)
REMARK    1  A    between atoms: C_1  and  C_2
REMARK    2  A    between atoms: C_4  and  C_9
REMARK    3  A    between atoms: C_10  and  C_11
REMARK    4  A    between atoms: C_12  and  C_13
REMARK    5  A    between atoms: C_13  and  N_14
REMARK    6  A    between atoms: N_14  and  N_15
REMARK                            x       y       z     vdW  Elec       q    Type
REMARK                         _______ _______ _______ _____ _____    ______ ____
ROOT
ATOM      1  C   UNL     1       6.731  -2.491  23.207  0.00  0.00    +0.030 A 
ATOM      2  C   UNL     1       5.659  -3.088  22.529  0.00  0.00    +0.017 A 
ATOM      3  C   UNL     1       5.666  -4.456  22.254  0.00  0.00    +0.001 A 
ATOM      4  C   UNL     1       6.738  -5.238  22.670  0.00  0.00    +0.000 A 
ATOM      5  C   UNL     1       7.804  -4.655  23.358  0.00  0.00    +0.006 A 
ATOM      6  C   UNL     1       7.836  -3.270  23.617  0.00  0.00    -0.014 A 
ENDROOT
BRANCH   1   8
ATOM      7  C   UNL     1       6.655   0.112  23.630  0.00  0.00    -0.041 C 
ATOM      8  C   UNL     1       6.669  -1.077  23.444  0.00  0.00    -0.059 C 
BRANCH   7  17
ATOM      9  C   UNL     1       7.336   4.028  26.552  0.00  0.00    +0.066 C 
ATOM     10  C   UNL     1       7.037   3.369  25.241  0.00  0.00    +0.044 A 
ATOM     11  N   UNL     1       6.828   4.182  24.184  0.00  0.00    -0.220 NA
ATOM     12  C   UNL     1       6.596   3.608  22.998  0.00  0.00    +0.214 A 
ATOM     13  N   UNL     1       6.438   4.446  21.916  0.00  0.00    -0.327 N 
ATOM     14  H   UNL     1       6.160   5.367  22.224  0.00  0.00    +0.145 HD
ATOM     15  H   UNL     1       5.895   4.000  21.192  0.00  0.00    +0.145 HD
ATOM     16  N   UNL     1       6.497   2.295  22.793  0.00  0.00    -0.206 NA
ATOM     17  C   UNL     1       6.711   1.518  23.868  0.00  0.00    +0.119 A 
ATOM     18  C   UNL     1       6.993   1.999  25.127  0.00  0.00    +0.060 A 
ENDBRANCH   7  17
ENDBRANCH   1   8
BRANCH   6  19
ATOM     19  C   UNL     1       8.996  -2.651  24.379  0.00  0.00    +0.157 C 
BRANCH  19  20
ATOM     20  N   UNL     1      10.179  -2.388  23.535  0.00  0.00    -0.275 N 
ATOM     21  H   UNL     1      10.107  -3.005  22.721  0.00  0.00    +0.167 HD
BRANCH  20  22
ATOM     22  N   UNL     1      10.185  -1.078  23.055  0.00  0.00    -0.203 N 
ATOM     23  C   UNL     1      10.358   0.079  23.814  0.00  0.00    +0.437 A 
ATOM     24  O   UNL     1      10.648   0.152  25.001  0.00  0.00    -0.221 OA
ATOM     25  O   UNL     1      10.145   1.188  22.997  0.00  0.00    -0.415 OA
ATOM     26  C   UNL     1       9.799   0.583  21.784  0.00  0.00    +0.220 A 
ATOM     27  C   UNL     1       9.810  -0.744  21.803  0.00  0.00    +0.153 A 
ENDBRANCH  20  22
ENDBRANCH  19  20
ENDBRANCH   6  19
TORSDOF 5
ENDMDL
