MODEL 1
REMARK VINA RESULT:      -4.1      0.000      0.000
REMARK  Name = 
REMARK  8 active torsions:
REMARK  status: ('A' for Active; 'I' for Inactive)
REMARK    1  A    between atoms: C_1  and  C_2
REMARK    2  A    between atoms: C_2  and  C_3
REMARK    3  A    between atoms: C_3  and  C_4
REMARK    4  A    between atoms: C_4  and  C_5
REMARK    5  A    between atoms: C_5  and  N_7
REMARK    6  A    between atoms: C_5  and  P_8
REMARK    7  A    between atoms: P_8  and  O_9
REMARK    8  A    between atoms: P_8  and  O_10
REMARK                            x       y       z     vdW  Elec       q    Type
REMARK                         _______ _______ _______ _____ _____    ______ ____
ROOT
ATOM      1  C   UNL     1       9.688   2.859  23.826  0.00  0.00    +0.166 C 
ENDROOT
BRANCH   1   2
ATOM      2  N   UNL     1       9.994   1.670  24.685  0.00  0.00    -0.318 NA
ATOM      3  H   UNL     1       9.423   0.883  24.362  0.00  0.00    +0.119 HD
ATOM      4  H   UNL     1      10.964   1.378  24.520  0.00  0.00    +0.119 HD
ENDBRANCH   1   2
BRANCH   1   5
ATOM      5  P   UNL     1       8.685   2.212  22.438  0.00  0.00    +0.344 P 
ATOM      6  O   UNL     1       7.837   1.666  21.265  0.00  0.00    -0.257 OA
BRANCH   5   7
ATOM      7  O   UNL     1      10.057   2.201  21.521  0.00  0.00    -0.323 OA
ATOM      8  H   UNL     1       9.887   1.718  20.680  0.00  0.00    +0.220 HD
ENDBRANCH   5   7
BRANCH   5   9
ATOM      9  O   UNL     1       8.164   3.736  22.145  0.00  0.00    -0.323 OA
ATOM     10  H   UNL     1       8.190   3.824  21.166  0.00  0.00    +0.220 HD
ENDBRANCH   5   9
ENDBRANCH   1   5
BRANCH   1  11
ATOM     11  C   UNL     1      11.031   3.593  23.499  0.00  0.00    +0.031 C 
BRANCH  11  12
ATOM     12  C   UNL     1      11.009   5.117  23.717  0.00  0.00    +0.002 C 
BRANCH  12  14
ATOM     13  C   UNL     1      13.149   5.454  22.487  0.00  0.00    +0.004 C 
ATOM     14  C   UNL     1      12.383   5.782  23.769  0.00  0.00    -0.003 C 
ENDBRANCH  12  14
ENDBRANCH  11  12
ENDBRANCH   1  11
TORSDOF 7
ENDMDL
MODEL 2
REMARK VINA RESULT:      -4.1      8.896     10.006
REMARK  Name = 
REMARK  8 active torsions:
REMARK  status: ('A' for Active; 'I' for Inactive)
REMARK    1  A    between atoms: C_1  and  C_2
REMARK    2  A    between atoms: C_2  and  C_3
REMARK    3  A    between atoms: C_3  and  C_4
REMARK    4  A    between atoms: C_4  and  C_5
REMARK    5  A    between atoms: C_5  and  N_7
REMARK    6  A    between atoms: C_5  and  P_8
REMARK    7  A    between atoms: P_8  and  O_9
REMARK    8  A    between atoms: P_8  and  O_10
REMARK                            x       y       z     vdW  Elec       q    Type
REMARK                         _______ _______ _______ _____ _____    ______ ____
ROOT
ATOM      1  C   UNL     1       8.645  -4.649  24.802  0.00  0.00    +0.166 C 
ENDROOT
BRANCH   1   2
ATOM      2  N   UNL     1      10.008  -5.269  24.848  0.00  0.00    -0.318 NA
ATOM      3  H   UNL     1      10.222  -5.509  25.821  0.00  0.00    +0.119 HD
ATOM      4  H   UNL     1       9.985  -6.168  24.353  0.00  0.00    +0.119 HD
ENDBRANCH   1   2
BRANCH   1   5
ATOM      5  P   UNL     1       7.897  -4.996  26.436  0.00  0.00    +0.344 P 
ATOM      6  O   UNL     1       7.265  -5.290  27.818  0.00  0.00    -0.257 OA
BRANCH   5   7
ATOM      7  O   UNL     1       7.440  -3.412  26.505  0.00  0.00    -0.323 OA
ATOM      8  H   UNL     1       7.160  -3.188  27.422  0.00  0.00    +0.220 HD
ENDBRANCH   5   7
BRANCH   5   9
ATOM      9  O   UNL     1       9.386  -4.888  27.106  0.00  0.00    -0.323 OA
ATOM     10  H   UNL     1       9.235  -4.471  27.984  0.00  0.00    +0.220 HD
ENDBRANCH   5   9
ENDBRANCH   1   5
BRANCH   1  11
ATOM     11  C   UNL     1       7.909  -5.163  23.520  0.00  0.00    +0.031 C 
BRANCH  11  12
ATOM     12  C   UNL     1       6.372  -5.173  23.611  0.00  0.00    +0.002 C 
BRANCH  12  14
ATOM     13  C   UNL     1       6.335  -5.682  21.173  0.00  0.00    +0.004 C 
ATOM     14  C   UNL     1       5.665  -5.970  22.517  0.00  0.00    -0.003 C 
ENDBRANCH  12  14
ENDBRANCH  11  12
ENDBRANCH   1  11
TORSDOF 7
ENDMDL
MODEL 3
REMARK VINA RESULT:      -4.0      9.452     10.038
REMARK  Name = 
REMARK  8 active torsions:
REMARK  status: ('A' for Active; 'I' for Inactive)
REMARK    1  A    between atoms: C_1  and  C_2
REMARK    2  A    between atoms: C_2  and  C_3
REMARK    3  A    between atoms: C_3  and  C_4
REMARK    4  A    between atoms: C_4  and  C_5
REMARK    5  A    between atoms: C_5  and  N_7
REMARK    6  A    between atoms: C_5  and  P_8
REMARK    7  A    between atoms: P_8  and  O_9
REMARK    8  A    between atoms: P_8  and  O_10
REMARK                            x       y       z     vdW  Elec       q    Type
REMARK                         _______ _______ _______ _____ _____    ______ ____
ROOT
ATOM      1  C   UNL     1       7.621  -5.652  25.859  0.00  0.00    +0.166 C 
ENDROOT
BRANCH   1   2
ATOM      2  N   UNL     1       7.811  -5.621  27.345  0.00  0.00    -0.318 NA
ATOM      3  H   UNL     1       7.044  -5.079  27.757  0.00  0.00    +0.119 HD
ATOM      4  H   UNL     1       7.694  -6.570  27.718  0.00  0.00    +0.119 HD
ENDBRANCH   1   2
BRANCH   1   5
ATOM      5  P   UNL     1       9.029  -4.709  25.169  0.00  0.00    +0.344 P 
ATOM      6  O   UNL     1      10.221  -3.911  24.585  0.00  0.00    -0.257 OA
BRANCH   5   7
ATOM      7  O   UNL     1       9.520  -6.093  24.416  0.00  0.00    -0.323 OA
ATOM      8  H   UNL     1      10.502  -6.153  24.441  0.00  0.00    +0.220 HD
ENDBRANCH   5   7
BRANCH   5   9
ATOM      9  O   UNL     1       9.804  -4.878  26.600  0.00  0.00    -0.323 OA
ATOM     10  H   UNL     1       9.853  -5.850  26.744  0.00  0.00    +0.220 HD
ENDBRANCH   5   9
ENDBRANCH   1   5
BRANCH   1  11
ATOM     11  C   UNL     1       6.168  -5.169  25.534  0.00  0.00    +0.031 C 
BRANCH  11  12
ATOM     12  C   UNL     1       5.914  -4.817  24.057  0.00  0.00    +0.002 C 
BRANCH  12  14
ATOM     13  C   UNL     1       6.818  -5.984  22.051  0.00  0.00    +0.004 C 
ATOM     14  C   UNL     1       5.734  -6.016  23.128  0.00  0.00    -0.003 C 
ENDBRANCH  12  14
ENDBRANCH  11  12
ENDBRANCH   1  11
TORSDOF 7
ENDMDL
MODEL 4
REMARK VINA RESULT:      -3.9      2.518      4.013
REMARK  Name = 
REMARK  8 active torsions:
REMARK  status: ('A' for Active; 'I' for Inactive)
REMARK    1  A    between atoms: C_1  and  C_2
REMARK    2  A    between atoms: C_2  and  C_3
REMARK    3  A    between atoms: C_3  and  C_4
REMARK    4  A    between atoms: C_4  and  C_5
REMARK    5  A    between atoms: C_5  and  N_7
REMARK    6  A    between atoms: C_5  and  P_8
REMARK    7  A    between atoms: P_8  and  O_9
REMARK    8  A    between atoms: P_8  and  O_10
REMARK                            x       y       z     vdW  Elec       q    Type
REMARK                         _______ _______ _______ _____ _____    ______ ____
ROOT
ATOM      1  C   UNL     1       9.792   2.057  23.911  0.00  0.00    +0.166 C 
ENDROOT
BRANCH   1   2
ATOM      2  N   UNL     1       8.917   2.239  25.114  0.00  0.00    -0.318 NA
ATOM      3  H   UNL     1       8.412   1.363  25.281  0.00  0.00    +0.119 HD
ATOM      4  H   UNL     1       9.509   2.366  25.943  0.00  0.00    +0.119 HD
ENDBRANCH   1   2
BRANCH   1   5
ATOM      5  P   UNL     1       8.661   2.106  22.474  0.00  0.00    +0.344 P 
ATOM      6  O   UNL     1       7.704   2.147  21.258  0.00  0.00    -0.257 OA
BRANCH   5   7
ATOM      7  O   UNL     1       9.985   2.009  21.494  0.00  0.00    -0.323 OA
ATOM      8  H   UNL     1      10.546   1.249  21.770  0.00  0.00    +0.220 HD
ENDBRANCH   5   7
BRANCH   5   9
ATOM      9  O   UNL     1       8.558   3.729  22.648  0.00  0.00    -0.323 OA
ATOM     10  H   UNL     1       8.435   3.869  23.614  0.00  0.00    +0.220 HD
ENDBRANCH   5   9
ENDBRANCH   1   5
BRANCH   1  11
ATOM     11  C   UNL     1      10.673   0.781  24.127  0.00  0.00    +0.031 C 
BRANCH  11  12
ATOM     12  C   UNL     1       9.968  -0.380  24.854  0.00  0.00    +0.002 C 
BRANCH  12  14
ATOM     13  C   UNL     1      10.350  -1.413  22.620  0.00  0.00    +0.004 C 
ATOM     14  C   UNL     1       9.786  -1.647  24.022  0.00  0.00    -0.003 C 
ENDBRANCH  12  14
ENDBRANCH  11  12
ENDBRANCH   1  11
TORSDOF 7
ENDMDL
MODEL 5
REMARK VINA RESULT:      -3.9      2.639      2.991
REMARK  Name = 
REMARK  8 active torsions:
REMARK  status: ('A' for Active; 'I' for Inactive)
REMARK    1  A    between atoms: C_1  and  C_2
REMARK    2  A    between atoms: C_2  and  C_3
REMARK    3  A    between atoms: C_3  and  C_4
REMARK    4  A    between atoms: C_4  and  C_5
REMARK    5  A    between atoms: C_5  and  N_7
REMARK    6  A    between atoms: C_5  and  P_8
REMARK    7  A    between atoms: P_8  and  O_9
REMARK    8  A    between atoms: P_8  and  O_10
REMARK                            x       y       z     vdW  Elec       q    Type
REMARK                         _______ _______ _______ _____ _____    ______ ____
ROOT
ATOM      1  C   UNL     1      10.110   1.104  22.359  0.00  0.00    +0.166 C 
ENDROOT
BRANCH   1   2
ATOM      2  N   UNL     1       9.404   2.027  21.413  0.00  0.00    -0.318 NA
ATOM      3  H   UNL     1       8.853   2.694  21.963  0.00  0.00    +0.119 HD
ATOM      4  H   UNL     1      10.099   2.601  20.921  0.00  0.00    +0.119 HD
ENDBRANCH   1   2
BRANCH   1   5
ATOM      5  P   UNL     1       9.052  -0.385  22.466  0.00  0.00    +0.344 P 
ATOM      6  O   UNL     1       8.157  -1.645  22.557  0.00  0.00    -0.257 OA
BRANCH   5   7
ATOM      7  O   UNL     1      10.144  -1.021  23.528  0.00  0.00    -0.323 OA
ATOM      8  H   UNL     1      10.516  -1.855  23.161  0.00  0.00    +0.220 HD
ENDBRANCH   5   7
BRANCH   5   9
ATOM      9  O   UNL     1       9.696  -0.907  21.056  0.00  0.00    -0.323 OA
ATOM     10  H   UNL     1       9.701  -0.113  20.475  0.00  0.00    +0.220 HD
ENDBRANCH   5   9
ENDBRANCH   1   5
BRANCH   1  11
ATOM     11  C   UNL     1      10.428   1.891  23.674  0.00  0.00    +0.031 C 
BRANCH  11  12
ATOM     12  C   UNL     1      10.371   3.425  23.544  0.00  0.00    +0.002 C 
BRANCH  12  14
ATOM     13  C   UNL     1      11.575   5.605  23.592  0.00  0.00    +0.004 C 
ATOM     14  C   UNL     1      11.722   4.105  23.333  0.00  0.00    -0.003 C 
ENDBRANCH  12  14
ENDBRANCH  11  12
ENDBRANCH   1  11
TORSDOF 7
ENDMDL
MODEL 6
REMARK VINA RESULT:      -3.9      3.617      4.504
REMARK  Name = 
REMARK  8 active torsions:
REMARK  status: ('A' for Active; 'I' for Inactive)
REMARK    1  A    between atoms: C_1  and  C_2
REMARK    2  A    between atoms: C_2  and  C_3
REMARK    3  A    between atoms: C_3  and  C_4
REMARK    4  A    between atoms: C_4  and  C_5
REMARK    5  A    between atoms: C_5  and  N_7
REMARK    6  A    between atoms: C_5  and  P_8
REMARK    7  A    between atoms: P_8  and  O_9
REMARK    8  A    between atoms: P_8  and  O_10
REMARK                            x       y       z     vdW  Elec       q    Type
REMARK                         _______ _______ _______ _____ _____    ______ ____
ROOT
ATOM      1  C   UNL     1       8.481  -0.674  22.357  0.00  0.00    +0.166 C 
ENDROOT
BRANCH   1   2
ATOM      2  N   UNL     1       7.800   0.085  23.454  0.00  0.00    -0.318 NA
ATOM      3  H   UNL     1       8.478   0.733  23.868  0.00  0.00    +0.119 HD
ATOM      4  H   UNL     1       7.074   0.687  23.047  0.00  0.00    +0.119 HD
ENDBRANCH   1   2
BRANCH   1   5
ATOM      5  P   UNL     1       9.438  -1.989  23.194  0.00  0.00    +0.344 P 
ATOM      6  O   UNL     1      10.247  -3.102  23.903  0.00  0.00    -0.257 OA
BRANCH   5   7
ATOM      7  O   UNL     1       9.912  -0.865  24.305  0.00  0.00    -0.323 OA
ATOM      8  H   UNL     1      10.218  -0.052  23.843  0.00  0.00    +0.220 HD
ENDBRANCH   5   7
BRANCH   5   9
ATOM      9  O   UNL     1      10.619  -1.797  22.079  0.00  0.00    -0.323 OA
ATOM     10  H   UNL     1      10.485  -2.537  21.444  0.00  0.00    +0.220 HD
ENDBRANCH   5   9
ENDBRANCH   1   5
BRANCH   1  11
ATOM     11  C   UNL     1       9.248   0.347  21.451  0.00  0.00    +0.031 C 
BRANCH  11  12
ATOM     12  C   UNL     1       9.154   1.816  21.902  0.00  0.00    +0.002 C 
BRANCH  12  14
ATOM     13  C   UNL     1       9.885   3.268  23.790  0.00  0.00    +0.004 C 
ATOM     14  C   UNL     1      10.363   2.332  22.679  0.00  0.00    -0.003 C 
ENDBRANCH  12  14
ENDBRANCH  11  12
ENDBRANCH   1  11
TORSDOF 7
ENDMDL
MODEL 7
REMARK VINA RESULT:      -3.9      4.761      5.349
REMARK  Name = 
REMARK  8 active torsions:
REMARK  status: ('A' for Active; 'I' for Inactive)
REMARK    1  A    between atoms: C_1  and  C_2
REMARK    2  A    between atoms: C_2  and  C_3
REMARK    3  A    between atoms: C_3  and  C_4
REMARK    4  A    between atoms: C_4  and  C_5
REMARK    5  A    between atoms: C_5  and  N_7
REMARK    6  A    between atoms: C_5  and  P_8
REMARK    7  A    between atoms: P_8  and  O_9
REMARK    8  A    between atoms: P_8  and  O_10
REMARK                            x       y       z     vdW  Elec       q    Type
REMARK                         _______ _______ _______ _____ _____    ______ ____
ROOT
ATOM      1  C   UNL     1      10.206  -1.151  23.007  0.00  0.00    +0.166 C 
ENDROOT
BRANCH   1   2
ATOM      2  N   UNL     1      10.093  -1.509  21.557  0.00  0.00    -0.318 NA
ATOM      3  H   UNL     1       9.510  -0.804  21.095  0.00  0.00    +0.119 HD
ATOM      4  H   UNL     1      11.016  -1.419  21.115  0.00  0.00    +0.119 HD
ENDBRANCH   1   2
BRANCH   1   5
ATOM      5  P   UNL     1       8.975  -2.198  23.865  0.00  0.00    +0.344 P 
ATOM      6  O   UNL     1       7.932  -3.084  24.590  0.00  0.00    -0.257 OA
BRANCH   5   7
ATOM      7  O   UNL     1      10.144  -3.352  24.025  0.00  0.00    -0.323 OA
ATOM      8  H   UNL     1      10.214  -3.870  23.191  0.00  0.00    +0.220 HD
ENDBRANCH   5   7
BRANCH   5   9
ATOM      9  O   UNL     1       8.363  -2.619  22.406  0.00  0.00    -0.323 OA
ATOM     10  H   UNL     1       9.148  -2.864  21.868  0.00  0.00    +0.220 HD
ENDBRANCH   5   9
ENDBRANCH   1   5
BRANCH   1  11
ATOM     11  C   UNL     1      10.090   0.404  23.145  0.00  0.00    +0.031 C 
BRANCH  11  12
ATOM     12  C   UNL     1       9.824   1.155  21.827  0.00  0.00    +0.002 C 
BRANCH  12  14
ATOM     13  C   UNL     1       7.416   1.161  22.464  0.00  0.00    +0.004 C 
ATOM     14  C   UNL     1       8.531   1.967  21.796  0.00  0.00    -0.003 C 
ENDBRANCH  12  14
ENDBRANCH  11  12
ENDBRANCH   1  11
TORSDOF 7
ENDMDL
MODEL 8
REMARK VINA RESULT:      -3.9      7.963      9.012
REMARK  Name = 
REMARK  8 active torsions:
REMARK  status: ('A' for Active; 'I' for Inactive)
REMARK    1  A    between atoms: C_1  and  C_2
REMARK    2  A    between atoms: C_2  and  C_3
REMARK    3  A    between atoms: C_3  and  C_4
REMARK    4  A    between atoms: C_4  and  C_5
REMARK    5  A    between atoms: C_5  and  N_7
REMARK    6  A    between atoms: C_5  and  P_8
REMARK    7  A    between atoms: P_8  and  O_9
REMARK    8  A    between atoms: P_8  and  O_10
REMARK                            x       y       z     vdW  Elec       q    Type
REMARK                         _______ _______ _______ _____ _____    ______ ____
ROOT
ATOM      1  C   UNL     1       8.613  -4.763  24.788  0.00  0.00    +0.166 C 
ENDROOT
BRANCH   1   2
ATOM      2  N   UNL     1       9.940  -5.457  24.831  0.00  0.00    -0.318 NA
ATOM      3  H   UNL     1       9.775  -6.468  24.874  0.00  0.00    +0.119 HD
ATOM      4  H   UNL     1      10.427  -5.306  23.940  0.00  0.00    +0.119 HD
ENDBRANCH   1   2
BRANCH   1   5
ATOM      5  P   UNL     1       7.865  -5.038  26.435  0.00  0.00    +0.344 P 
ATOM      6  O   UNL     1       7.233  -5.271  27.829  0.00  0.00    -0.257 OA
BRANCH   5   7
ATOM      7  O   UNL     1       7.365  -3.466  26.413  0.00  0.00    -0.323 OA
ATOM      8  H   UNL     1       6.425  -3.422  26.123  0.00  0.00    +0.220 HD
ENDBRANCH   5   7
BRANCH   5   9
ATOM      9  O   UNL     1       9.347  -4.852  27.104  0.00  0.00    -0.323 OA
ATOM     10  H   UNL     1       9.446  -5.622  27.708  0.00  0.00    +0.220 HD
ENDBRANCH   5   9
ENDBRANCH   1   5
BRANCH   1  11
ATOM     11  C   UNL     1       7.836  -5.259  23.522  0.00  0.00    +0.031 C 
BRANCH  11  12
ATOM     12  C   UNL     1       7.264  -4.141  22.631  0.00  0.00    +0.002 C 
BRANCH  12  14
ATOM     13  C   UNL     1       6.715  -1.749  23.059  0.00  0.00    +0.004 C 
ATOM     14  C   UNL     1       7.854  -2.754  22.876  0.00  0.00    -0.003 C 
ENDBRANCH  12  14
ENDBRANCH  11  12
ENDBRANCH   1  11
TORSDOF 7
ENDMDL
MODEL 9
REMARK VINA RESULT:      -3.9      6.942      7.917
REMARK  Name = 
REMARK  8 active torsions:
REMARK  status: ('A' for Active; 'I' for Inactive)
REMARK    1  A    between atoms: C_1  and  C_2
REMARK    2  A    between atoms: C_2  and  C_3
REMARK    3  A    between atoms: C_3  and  C_4
REMARK    4  A    between atoms: C_4  and  C_5
REMARK    5  A    between atoms: C_5  and  N_7
REMARK    6  A    between atoms: C_5  and  P_8
REMARK    7  A    between atoms: P_8  and  O_9
REMARK    8  A    between atoms: P_8  and  O_10
REMARK                            x       y       z     vdW  Elec       q    Type
REMARK                         _______ _______ _______ _____ _____    ______ ____
ROOT
ATOM      1  C   UNL     1       9.228  -4.258  25.554  0.00  0.00    +0.166 C 
ENDROOT
BRANCH   1   2
ATOM      2  N   UNL     1      10.180  -5.403  25.384  0.00  0.00    -0.318 NA
ATOM      3  H   UNL     1      11.129  -5.064  25.568  0.00  0.00    +0.119 HD
ATOM      4  H   UNL     1      10.001  -6.100  26.117  0.00  0.00    +0.119 HD
ENDBRANCH   1   2
BRANCH   1   5
ATOM      5  P   UNL     1       7.586  -5.023  25.809  0.00  0.00    +0.344 P 
ATOM      6  O   UNL     1       6.196  -5.671  26.025  0.00  0.00    -0.257 OA
BRANCH   5   7
ATOM      7  O   UNL     1       7.196  -3.742  26.773  0.00  0.00    -0.323 OA
ATOM      8  H   UNL     1       6.668  -4.055  27.543  0.00  0.00    +0.220 HD
ENDBRANCH   5   7
BRANCH   5   9
ATOM      9  O   UNL     1       8.256  -6.018  26.922  0.00  0.00    -0.323 OA
ATOM     10  H   UNL     1       8.476  -5.431  27.681  0.00  0.00    +0.220 HD
ENDBRANCH   5   9
ENDBRANCH   1   5
BRANCH   1  11
ATOM     11  C   UNL     1       9.416  -3.275  24.350  0.00  0.00    +0.031 C 
BRANCH  11  12
ATOM     12  C   UNL     1       9.241  -1.784  24.695  0.00  0.00    +0.002 C 
BRANCH  12  14
ATOM     13  C   UNL     1      10.513   0.356  24.788  0.00  0.00    +0.004 C 
ATOM     14  C   UNL     1      10.131  -0.830  23.901  0.00  0.00    -0.003 C 
ENDBRANCH  12  14
ENDBRANCH  11  12
ENDBRANCH   1  11
TORSDOF 7
ENDMDL
