MODEL 1
REMARK VINA RESULT:      -8.0      0.000      0.000
REMARK  Name = 
REMARK  5 active torsions:
REMARK  status: ('A' for Active; 'I' for Inactive)
REMARK    1  A    between atoms: C_2  and  C_25
REMARK    2  A    between atoms: C_6  and  C_7
REMARK    3  A    between atoms: C_8  and  S_15
REMARK    4  A    between atoms: S_15  and  N_18
REMARK    5  A    between atoms: N_21  and  C_22
REMARK                            x       y       z     vdW  Elec       q    Type
REMARK                         _______ _______ _______ _____ _____    ______ ____
ROOT
ATOM      1  C   UNL     1       7.387   3.662  23.197  0.00  0.00    +0.163 C 
ATOM      2  N   UNL     1       8.413   3.322  22.235  0.00  0.00    -0.170 NA
ATOM      3  H   UNL     1       8.047   3.014  21.336  0.00  0.00    +0.150 HD
ATOM      4  S   UNL     1       9.516   2.220  22.836  0.00  0.00    +0.062 S 
ATOM      5  O   UNL     1      10.225   2.837  23.934  0.00  0.00    -0.153 OA
ATOM      6  O   UNL     1      10.193   1.651  21.695  0.00  0.00    -0.153 OA
ATOM      7  C   UNL     1       8.464   0.990  23.525  0.00  0.00    +0.128 A 
ATOM      8  C   UNL     1       7.120   1.299  23.732  0.00  0.00    +0.055 A 
ATOM      9  C   UNL     1       6.313   0.281  24.257  0.00  0.00    +0.030 A 
ATOM     10  C   UNL     1       6.820  -1.000  24.591  0.00  0.00    -0.022 A 
ATOM     11  C   UNL     1       8.175  -1.282  24.330  0.00  0.00    +0.110 A 
ATOM     12  C   UNL     1       5.861  -1.978  25.214  0.00  0.00    +0.046 C 
ATOM     13  C   UNL     1       8.996  -0.277  23.802  0.00  0.00    +0.059 A 
ATOM     14  N   UNL     1       6.524   2.496  23.295  0.00  0.00    -0.326 N 
ATOM     15  H   UNL     1       5.654   2.681  23.784  0.00  0.00    +0.148 HD
ENDROOT
BRANCH   1  16
ATOM     16  C   UNL     1       6.617   4.895  22.658  0.00  0.00    +0.025 C 
ATOM     17  C   UNL     1       5.867   5.689  23.741  0.00  0.00    +0.007 C 
ATOM     18  C   UNL     1       6.790   6.825  24.185  0.00  0.00    +0.000 C 
ATOM     19  C   UNL     1       8.028   6.739  23.305  0.00  0.00    +0.000 C 
ATOM     20  C   UNL     1       7.567   5.959  22.084  0.00  0.00    +0.007 C 
ENDBRANCH   1  16
BRANCH  11  21
ATOM     21  S   UNL     1       8.862  -2.945  24.386  0.00  0.00    +0.061 S 
ATOM     22  O   UNL     1       8.657  -3.435  25.734  0.00  0.00    -0.153 OA
ATOM     23  O   UNL     1      10.193  -2.914  23.823  0.00  0.00    -0.153 OA
BRANCH  21  24
ATOM     24  N   UNL     1       7.892  -3.850  23.370  0.00  0.00    -0.174 NA
ATOM     25  C   UNL     1       7.519  -3.369  22.030  0.00  0.00    +0.125 C 
ATOM     26  C   UNL     1       6.005  -3.604  21.843  0.00  0.00    +0.101 C 
ATOM     27  N   UNL     1       5.595  -5.019  21.982  0.00  0.00    -0.303 NA
ATOM     28  C   UNL     1       6.068  -5.828  20.863  0.00  0.00    +0.105 C 
ATOM     29  C   UNL     1       6.073  -5.542  23.284  0.00  0.00    +0.101 C 
ATOM     30  C   UNL     1       7.562  -5.267  23.627  0.00  0.00    +0.125 C 
ENDBRANCH  21  24
ENDBRANCH  11  21
TORSDOF 3
ENDMDL
MODEL 2
REMARK VINA RESULT:      -7.4      2.795      8.210
REMARK  Name = 
REMARK  5 active torsions:
REMARK  status: ('A' for Active; 'I' for Inactive)
REMARK    1  A    between atoms: C_2  and  C_25
REMARK    2  A    between atoms: C_6  and  C_7
REMARK    3  A    between atoms: C_8  and  S_15
REMARK    4  A    between atoms: S_15  and  N_18
REMARK    5  A    between atoms: N_21  and  C_22
REMARK                            x       y       z     vdW  Elec       q    Type
REMARK                         _______ _______ _______ _____ _____    ______ ____
ROOT
ATOM      1  C   UNL     1       5.412  -5.511  24.813  0.00  0.00    +0.163 C 
ATOM      2  N   UNL     1       5.980  -6.018  23.582  0.00  0.00    -0.170 NA
ATOM      3  H   UNL     1       6.824  -6.571  23.716  0.00  0.00    +0.150 HD
ATOM      4  S   UNL     1       6.229  -4.816  22.449  0.00  0.00    +0.062 S 
ATOM      5  O   UNL     1       4.945  -4.272  22.070  0.00  0.00    -0.153 OA
ATOM      6  O   UNL     1       7.163  -5.348  21.484  0.00  0.00    -0.153 OA
ATOM      7  C   UNL     1       7.055  -3.586  23.396  0.00  0.00    +0.128 A 
ATOM      8  C   UNL     1       7.021  -3.681  24.787  0.00  0.00    +0.055 A 
ATOM      9  C   UNL     1       7.715  -2.695  25.502  0.00  0.00    +0.030 A 
ATOM     10  C   UNL     1       8.403  -1.631  24.866  0.00  0.00    -0.022 A 
ATOM     11  C   UNL     1       8.444  -1.596  23.459  0.00  0.00    +0.110 A 
ATOM     12  C   UNL     1       9.047  -0.600  25.753  0.00  0.00    +0.046 C 
ATOM     13  C   UNL     1       7.758  -2.575  22.728  0.00  0.00    +0.059 A 
ATOM     14  N   UNL     1       6.480  -4.781  25.477  0.00  0.00    -0.326 N 
ATOM     15  H   UNL     1       6.266  -4.549  26.443  0.00  0.00    +0.148 HD
ENDROOT
BRANCH   1  16
ATOM     16  C   UNL     1       4.943  -6.723  25.658  0.00  0.00    +0.025 C 
ATOM     17  C   UNL     1       4.991  -6.487  27.176  0.00  0.00    +0.007 C 
ATOM     18  C   UNL     1       3.597  -6.022  27.602  0.00  0.00    +0.000 C 
ATOM     19  C   UNL     1       2.729  -6.073  26.355  0.00  0.00    +0.000 C 
ATOM     20  C   UNL     1       3.455  -7.039  25.431  0.00  0.00    +0.007 C 
ENDBRANCH   1  16
BRANCH  11  21
ATOM     21  S   UNL     1       9.546  -0.515  22.533  0.00  0.00    +0.061 S 
ATOM     22  O   UNL     1       9.443  -0.909  21.142  0.00  0.00    -0.153 OA
ATOM     23  O   UNL     1      10.834  -0.500  23.186  0.00  0.00    -0.153 OA
BRANCH  21  24
ATOM     24  N   UNL     1       8.877   1.009  22.673  0.00  0.00    -0.174 NA
ATOM     25  C   UNL     1       9.707   2.224  22.615  0.00  0.00    +0.125 C 
ATOM     26  C   UNL     1       9.272   3.154  23.768  0.00  0.00    +0.101 C 
ATOM     27  N   UNL     1       7.844   3.540  23.721  0.00  0.00    -0.303 NA
ATOM     28  C   UNL     1       7.568   4.446  22.610  0.00  0.00    +0.105 C 
ATOM     29  C   UNL     1       7.007   2.318  23.659  0.00  0.00    +0.101 C 
ATOM     30  C   UNL     1       7.422   1.258  22.603  0.00  0.00    +0.125 C 
ENDBRANCH  21  24
ENDBRANCH  11  21
TORSDOF 3
ENDMDL
MODEL 3
REMARK VINA RESULT:      -7.3      2.763      3.587
REMARK  Name = 
REMARK  5 active torsions:
REMARK  status: ('A' for Active; 'I' for Inactive)
REMARK    1  A    between atoms: C_2  and  C_25
REMARK    2  A    between atoms: C_6  and  C_7
REMARK    3  A    between atoms: C_8  and  S_15
REMARK    4  A    between atoms: S_15  and  N_18
REMARK    5  A    between atoms: N_21  and  C_22
REMARK                            x       y       z     vdW  Elec       q    Type
REMARK                         _______ _______ _______ _____ _____    ______ ____
ROOT
ATOM      1  C   UNL     1       8.609   1.434  23.069  0.00  0.00    +0.163 C 
ATOM      2  N   UNL     1       9.673   0.723  22.392  0.00  0.00    -0.170 NA
ATOM      3  H   UNL     1       9.489   0.551  21.406  0.00  0.00    +0.150 HD
ATOM      4  S   UNL     1      10.098  -0.691  23.174  0.00  0.00    +0.062 S 
ATOM      5  O   UNL     1      10.643  -0.350  24.468  0.00  0.00    -0.153 OA
ATOM      6  O   UNL     1      10.820  -1.491  22.213  0.00  0.00    -0.153 OA
ATOM      7  C   UNL     1       8.532  -1.440  23.452  0.00  0.00    +0.128 A 
ATOM      8  C   UNL     1       7.384  -0.659  23.316  0.00  0.00    +0.055 A 
ATOM      9  C   UNL     1       6.156  -1.302  23.519  0.00  0.00    +0.030 A 
ATOM     10  C   UNL     1       6.060  -2.673  23.870  0.00  0.00    -0.022 A 
ATOM     11  C   UNL     1       7.242  -3.433  23.959  0.00  0.00    +0.110 A 
ATOM     12  C   UNL     1       4.684  -3.222  24.130  0.00  0.00    +0.046 C 
ATOM     13  C   UNL     1       8.479  -2.807  23.756  0.00  0.00    +0.059 A 
ATOM     14  N   UNL     1       7.399   0.664  22.835  0.00  0.00    -0.326 N 
ATOM     15  H   UNL     1       6.551   1.163  23.087  0.00  0.00    +0.148 HD
ENDROOT
BRANCH   1  16
ATOM     16  C   UNL     1       8.510   2.850  22.447  0.00  0.00    +0.025 C 
ATOM     17  C   UNL     1       7.069   3.345  22.239  0.00  0.00    +0.007 C 
ATOM     18  C   UNL     1       6.699   4.177  23.468  0.00  0.00    +0.000 C 
ATOM     19  C   UNL     1       7.945   4.233  24.338  0.00  0.00    +0.000 C 
ATOM     20  C   UNL     1       9.086   3.929  23.380  0.00  0.00    +0.007 C 
ENDBRANCH   1  16
BRANCH  11  21
ATOM     21  S   UNL     1       7.251  -5.230  24.061  0.00  0.00    +0.061 S 
ATOM     22  O   UNL     1       8.640  -5.638  24.111  0.00  0.00    -0.153 OA
ATOM     23  O   UNL     1       6.381  -5.755  23.033  0.00  0.00    -0.153 OA
BRANCH  21  24
ATOM     24  N   UNL     1       6.570  -5.584  25.545  0.00  0.00    -0.174 NA
ATOM     25  C   UNL     1       5.391  -6.458  25.664  0.00  0.00    +0.125 C 
ATOM     26  C   UNL     1       4.392  -5.782  26.627  0.00  0.00    +0.101 C 
ATOM     27  N   UNL     1       4.941  -5.523  27.977  0.00  0.00    -0.303 NA
ATOM     28  C   UNL     1       5.141  -6.761  28.723  0.00  0.00    +0.105 C 
ATOM     29  C   UNL     1       6.195  -4.742  27.854  0.00  0.00    +0.101 C 
ATOM     30  C   UNL     1       7.233  -5.272  26.828  0.00  0.00    +0.125 C 
ENDBRANCH  21  24
ENDBRANCH  11  21
TORSDOF 3
ENDMDL
MODEL 4
REMARK VINA RESULT:      -7.3      3.578      5.765
REMARK  Name = 
REMARK  5 active torsions:
REMARK  status: ('A' for Active; 'I' for Inactive)
REMARK    1  A    between atoms: C_2  and  C_25
REMARK    2  A    between atoms: C_6  and  C_7
REMARK    3  A    between atoms: C_8  and  S_15
REMARK    4  A    between atoms: S_15  and  N_18
REMARK    5  A    between atoms: N_21  and  C_22
REMARK                            x       y       z     vdW  Elec       q    Type
REMARK                         _______ _______ _______ _____ _____    ______ ____
ROOT
ATOM      1  C   UNL     1       8.815  -0.992  23.582  0.00  0.00    +0.163 C 
ATOM      2  N   UNL     1       8.679  -1.230  25.003  0.00  0.00    -0.170 NA
ATOM      3  H   UNL     1       9.368  -1.879  25.379  0.00  0.00    +0.150 HD
ATOM      4  S   UNL     1       7.132  -1.693  25.430  0.00  0.00    +0.062 S 
ATOM      5  O   UNL     1       6.234  -0.597  25.149  0.00  0.00    -0.153 OA
ATOM      6  O   UNL     1       7.230  -2.302  26.736  0.00  0.00    -0.153 OA
ATOM      7  C   UNL     1       6.791  -2.957  24.255  0.00  0.00    +0.128 A 
ATOM      8  C   UNL     1       7.610  -3.062  23.131  0.00  0.00    +0.055 A 
ATOM      9  C   UNL     1       7.320  -4.100  22.235  0.00  0.00    +0.030 A 
ATOM     10  C   UNL     1       6.238  -4.996  22.428  0.00  0.00    -0.022 A 
ATOM     11  C   UNL     1       5.460  -4.877  23.596  0.00  0.00    +0.110 A 
ATOM     12  C   UNL     1       5.993  -6.020  21.353  0.00  0.00    +0.046 C 
ATOM     13  C   UNL     1       5.738  -3.847  24.504  0.00  0.00    +0.059 A 
ATOM     14  N   UNL     1       8.780  -2.301  22.950  0.00  0.00    -0.326 N 
ATOM     15  H   UNL     1       9.067  -2.283  21.976  0.00  0.00    +0.148 HD
ENDROOT
BRANCH   1  16
ATOM     16  C   UNL     1      10.174  -0.284  23.345  0.00  0.00    +0.025 C 
ATOM     17  C   UNL     1      10.193   0.641  22.117  0.00  0.00    +0.007 C 
ATOM     18  C   UNL     1       9.875   2.053  22.613  0.00  0.00    +0.000 C 
ATOM     19  C   UNL     1       9.759   1.958  24.127  0.00  0.00    +0.000 C 
ATOM     20  C   UNL     1      10.520   0.691  24.483  0.00  0.00    +0.007 C 
ENDBRANCH   1  16
BRANCH  11  21
ATOM     21  S   UNL     1       4.288  -6.135  24.129  0.00  0.00    +0.061 S 
ATOM     22  O   UNL     1       4.946  -7.415  23.960  0.00  0.00    -0.153 OA
ATOM     23  O   UNL     1       3.018  -5.885  23.488  0.00  0.00    -0.153 OA
BRANCH  21  24
ATOM     24  N   UNL     1       4.098  -5.883  25.770  0.00  0.00    -0.174 NA
ATOM     25  C   UNL     1       2.916  -5.192  26.312  0.00  0.00    +0.125 C 
ATOM     26  C   UNL     1       3.402  -4.157  27.349  0.00  0.00    +0.101 C 
ATOM     27  N   UNL     1       4.175  -4.745  28.466  0.00  0.00    -0.303 NA
ATOM     28  C   UNL     1       3.324  -5.538  29.349  0.00  0.00    +0.105 C 
ATOM     29  C   UNL     1       5.299  -5.540  27.920  0.00  0.00    +0.101 C 
ATOM     30  C   UNL     1       4.942  -6.542  26.787  0.00  0.00    +0.125 C 
ENDBRANCH  21  24
ENDBRANCH  11  21
TORSDOF 3
ENDMDL
MODEL 5
REMARK VINA RESULT:      -7.2      2.460      8.291
REMARK  Name = 
REMARK  5 active torsions:
REMARK  status: ('A' for Active; 'I' for Inactive)
REMARK    1  A    between atoms: C_2  and  C_25
REMARK    2  A    between atoms: C_6  and  C_7
REMARK    3  A    between atoms: C_8  and  S_15
REMARK    4  A    between atoms: S_15  and  N_18
REMARK    5  A    between atoms: N_21  and  C_22
REMARK                            x       y       z     vdW  Elec       q    Type
REMARK                         _______ _______ _______ _____ _____    ______ ____
ROOT
ATOM      1  C   UNL     1       6.972  -3.933  25.451  0.00  0.00    +0.163 C 
ATOM      2  N   UNL     1       6.336  -3.998  24.153  0.00  0.00    -0.170 NA
ATOM      3  H   UNL     1       6.874  -4.511  23.457  0.00  0.00    +0.150 HD
ATOM      4  S   UNL     1       5.900  -2.492  23.576  0.00  0.00    +0.062 S 
ATOM      5  O   UNL     1       4.895  -1.941  24.455  0.00  0.00    -0.153 OA
ATOM      6  O   UNL     1       5.693  -2.640  22.155  0.00  0.00    -0.153 OA
ATOM      7  C   UNL     1       7.373  -1.565  23.826  0.00  0.00    +0.128 A 
ATOM      8  C   UNL     1       8.356  -2.086  24.668  0.00  0.00    +0.055 A 
ATOM      9  C   UNL     1       9.525  -1.327  24.816  0.00  0.00    +0.030 A 
ATOM     10  C   UNL     1       9.712  -0.078  24.174  0.00  0.00    -0.022 A 
ATOM     11  C   UNL     1       8.710   0.393  23.302  0.00  0.00    +0.110 A 
ATOM     12  C   UNL     1      10.983   0.668  24.476  0.00  0.00    +0.046 C 
ATOM     13  C   UNL     1       7.536  -0.354  23.139  0.00  0.00    +0.059 A 
ATOM     14  N   UNL     1       8.296  -3.377  25.223  0.00  0.00    -0.326 N 
ATOM     15  H   UNL     1       8.913  -3.469  26.025  0.00  0.00    +0.148 HD
ENDROOT
BRANCH   1  16
ATOM     16  C   UNL     1       7.051  -5.374  26.017  0.00  0.00    +0.025 C 
ATOM     17  C   UNL     1       7.321  -5.440  27.529  0.00  0.00    +0.007 C 
ATOM     18  C   UNL     1       5.962  -5.555  28.222  0.00  0.00    +0.000 C 
ATOM     19  C   UNL     1       4.922  -5.641  27.115  0.00  0.00    +0.000 C 
ATOM     20  C   UNL     1       5.706  -6.112  25.900  0.00  0.00    +0.007 C 
ENDBRANCH   1  16
BRANCH  11  21
ATOM     21  S   UNL     1       8.956   1.774  22.175  0.00  0.00    +0.061 S 
ATOM     22  O   UNL     1       7.986   1.620  21.110  0.00  0.00    -0.153 OA
ATOM     23  O   UNL     1      10.364   1.870  21.862  0.00  0.00    -0.153 OA
BRANCH  21  24
ATOM     24  N   UNL     1       8.528   3.131  23.051  0.00  0.00    -0.174 NA
ATOM     25  C   UNL     1       7.149   3.646  23.049  0.00  0.00    +0.125 C 
ATOM     26  C   UNL     1       7.211   5.175  22.846  0.00  0.00    +0.101 C 
ATOM     27  N   UNL     1       7.993   5.886  23.883  0.00  0.00    -0.303 NA
ATOM     28  C   UNL     1       7.309   5.877  25.173  0.00  0.00    +0.105 C 
ATOM     29  C   UNL     1       9.347   5.290  23.970  0.00  0.00    +0.101 C 
ATOM     30  C   UNL     1       9.408   3.741  24.068  0.00  0.00    +0.125 C 
ENDBRANCH  21  24
ENDBRANCH  11  21
TORSDOF 3
ENDMDL
MODEL 6
REMARK VINA RESULT:      -7.0      2.381      3.093
REMARK  Name = 
REMARK  5 active torsions:
REMARK  status: ('A' for Active; 'I' for Inactive)
REMARK    1  A    between atoms: C_2  and  C_25
REMARK    2  A    between atoms: C_6  and  C_7
REMARK    3  A    between atoms: C_8  and  S_15
REMARK    4  A    between atoms: S_15  and  N_18
REMARK    5  A    between atoms: N_21  and  C_22
REMARK                            x       y       z     vdW  Elec       q    Type
REMARK                         _______ _______ _______ _____ _____    ______ ____
ROOT
ATOM      1  C   UNL     1       7.904   3.276  25.461  0.00  0.00    +0.163 C 
ATOM      2  N   UNL     1       7.613   2.793  26.793  0.00  0.00    -0.170 NA
ATOM      3  H   UNL     1       8.418   2.792  27.416  0.00  0.00    +0.150 HD
ATOM      4  S   UNL     1       6.868   1.298  26.784  0.00  0.00    +0.062 S 
ATOM      5  O   UNL     1       5.578   1.434  26.148  0.00  0.00    -0.153 OA
ATOM      6  O   UNL     1       7.025   0.751  28.111  0.00  0.00    -0.153 OA
ATOM      7  C   UNL     1       7.893   0.385  25.685  0.00  0.00    +0.128 A 
ATOM      8  C   UNL     1       8.785   1.082  24.869  0.00  0.00    +0.055 A 
ATOM      9  C   UNL     1       9.602   0.314  24.029  0.00  0.00    +0.030 A 
ATOM     10  C   UNL     1       9.528  -1.101  23.975  0.00  0.00    -0.022 A 
ATOM     11  C   UNL     1       8.641  -1.766  24.844  0.00  0.00    +0.110 A 
ATOM     12  C   UNL     1      10.412  -1.798  22.978  0.00  0.00    +0.046 C 
ATOM     13  C   UNL     1       7.818  -1.015  25.693  0.00  0.00    +0.059 A 
ATOM     14  N   UNL     1       9.008   2.468  24.972  0.00  0.00    -0.326 N 
ATOM     15  H   UNL     1       9.436   2.841  24.130  0.00  0.00    +0.148 HD
ENDROOT
BRANCH   1  16
ATOM     16  C   UNL     1       8.300   4.771  25.571  0.00  0.00    +0.025 C 
ATOM     17  C   UNL     1       9.291   5.239  24.493  0.00  0.00    +0.007 C 
ATOM     18  C   UNL     1       8.465   5.843  23.356  0.00  0.00    +0.000 C 
ATOM     19  C   UNL     1       7.014   5.803  23.812  0.00  0.00    +0.000 C 
ATOM     20  C   UNL     1       7.100   5.703  25.328  0.00  0.00    +0.007 C 
ENDBRANCH   1  16
BRANCH  11  21
ATOM     21  S   UNL     1       8.685  -3.544  25.122  0.00  0.00    +0.061 S 
ATOM     22  O   UNL     1       8.497  -3.748  26.544  0.00  0.00    -0.153 OA
ATOM     23  O   UNL     1       9.851  -4.086  24.462  0.00  0.00    -0.153 OA
BRANCH  21  24
ATOM     24  N   UNL     1       7.329  -4.137  24.347  0.00  0.00    -0.174 NA
ATOM     25  C   UNL     1       7.429  -4.890  23.086  0.00  0.00    +0.125 C 
ATOM     26  C   UNL     1       6.362  -4.338  22.116  0.00  0.00    +0.101 C 
ATOM     27  N   UNL     1       4.977  -4.434  22.629  0.00  0.00    -0.303 NA
ATOM     28  C   UNL     1       4.516  -5.818  22.676  0.00  0.00    +0.105 C 
ATOM     29  C   UNL     1       4.900  -3.779  23.956  0.00  0.00    +0.101 C 
ATOM     30  C   UNL     1       5.995  -4.179  24.982  0.00  0.00    +0.125 C 
ENDBRANCH  21  24
ENDBRANCH  11  21
TORSDOF 3
ENDMDL
MODEL 7
REMARK VINA RESULT:      -6.9      2.715      3.772
REMARK  Name = 
REMARK  5 active torsions:
REMARK  status: ('A' for Active; 'I' for Inactive)
REMARK    1  A    between atoms: C_2  and  C_25
REMARK    2  A    between atoms: C_6  and  C_7
REMARK    3  A    between atoms: C_8  and  S_15
REMARK    4  A    between atoms: S_15  and  N_18
REMARK    5  A    between atoms: N_21  and  C_22
REMARK                            x       y       z     vdW  Elec       q    Type
REMARK                         _______ _______ _______ _____ _____    ______ ____
ROOT
ATOM      1  C   UNL     1       7.506   3.559  25.891  0.00  0.00    +0.163 C 
ATOM      2  N   UNL     1       7.568   2.732  27.077  0.00  0.00    -0.170 NA
ATOM      3  H   UNL     1       8.491   2.696  27.505  0.00  0.00    +0.150 HD
ATOM      4  S   UNL     1       6.972   1.193  26.817  0.00  0.00    +0.062 S 
ATOM      5  O   UNL     1       5.565   1.294  26.506  0.00  0.00    -0.153 OA
ATOM      6  O   UNL     1       7.474   0.370  27.892  0.00  0.00    -0.153 OA
ATOM      7  C   UNL     1       7.797   0.728  25.335  0.00  0.00    +0.128 A 
ATOM      8  C   UNL     1       8.416   1.720  24.575  0.00  0.00    +0.055 A 
ATOM      9  C   UNL     1       9.085   1.302  23.417  0.00  0.00    +0.030 A 
ATOM     10  C   UNL     1       9.124  -0.054  23.004  0.00  0.00    -0.022 A 
ATOM     11  C   UNL     1       8.519  -1.028  23.821  0.00  0.00    +0.110 A 
ATOM     12  C   UNL     1       9.815  -0.357  21.703  0.00  0.00    +0.046 C 
ATOM     13  C   UNL     1       7.848  -0.629  24.984  0.00  0.00    +0.059 A 
ATOM     14  N   UNL     1       8.537   3.057  24.997  0.00  0.00    -0.326 N 
ATOM     15  H   UNL     1       8.729   3.679  24.217  0.00  0.00    +0.148 HD
ENDROOT
BRANCH   1  16
ATOM     16  C   UNL     1       7.786   5.024  26.315  0.00  0.00    +0.025 C 
ATOM     17  C   UNL     1       8.848   5.733  25.459  0.00  0.00    +0.007 C 
ATOM     18  C   UNL     1       8.103   6.500  24.364  0.00  0.00    +0.000 C 
ATOM     19  C   UNL     1       6.620   6.304  24.639  0.00  0.00    +0.000 C 
ATOM     20  C   UNL     1       6.557   5.925  26.110  0.00  0.00    +0.007 C 
ENDBRANCH   1  16
BRANCH  11  21
ATOM     21  S   UNL     1       8.778  -2.796  23.601  0.00  0.00    +0.061 S 
ATOM     22  O   UNL     1      10.191  -3.039  23.811  0.00  0.00    -0.153 OA
ATOM     23  O   UNL     1       8.150  -3.205  22.366  0.00  0.00    -0.153 OA
BRANCH  21  24
ATOM     24  N   UNL     1       7.953  -3.516  24.864  0.00  0.00    -0.174 NA
ATOM     25  C   UNL     1       8.530  -3.593  26.216  0.00  0.00    +0.125 C 
ATOM     26  C   UNL     1       8.320  -5.029  26.742  0.00  0.00    +0.101 C 
ATOM     27  N   UNL     1       6.901  -5.448  26.795  0.00  0.00    -0.303 NA
ATOM     28  C   UNL     1       6.169  -4.737  27.839  0.00  0.00    +0.105 C 
ATOM     29  C   UNL     1       6.284  -5.259  25.461  0.00  0.00    +0.101 C 
ATOM     30  C   UNL     1       6.524  -3.881  24.785  0.00  0.00    +0.125 C 
ENDBRANCH  21  24
ENDBRANCH  11  21
TORSDOF 3
ENDMDL
MODEL 8
REMARK VINA RESULT:      -6.8      2.142      2.575
REMARK  Name = 
REMARK  5 active torsions:
REMARK  status: ('A' for Active; 'I' for Inactive)
REMARK    1  A    between atoms: C_2  and  C_25
REMARK    2  A    between atoms: C_6  and  C_7
REMARK    3  A    between atoms: C_8  and  S_15
REMARK    4  A    between atoms: S_15  and  N_18
REMARK    5  A    between atoms: N_21  and  C_22
REMARK                            x       y       z     vdW  Elec       q    Type
REMARK                         _______ _______ _______ _____ _____    ______ ____
ROOT
ATOM      1  C   UNL     1       8.616   1.795  23.523  0.00  0.00    +0.163 C 
ATOM      2  N   UNL     1       9.144   0.999  22.435  0.00  0.00    -0.170 NA
ATOM      3  H   UNL     1       8.454   0.766  21.724  0.00  0.00    +0.150 HD
ATOM      4  S   UNL     1       9.935  -0.372  22.970  0.00  0.00    +0.062 S 
ATOM      5  O   UNL     1      11.094   0.037  23.729  0.00  0.00    -0.153 OA
ATOM      6  O   UNL     1      10.022  -1.265  21.838  0.00  0.00    -0.153 OA
ATOM      7  C   UNL     1       8.776  -1.040  24.112  0.00  0.00    +0.128 A 
ATOM      8  C   UNL     1       7.736  -0.227  24.560  0.00  0.00    +0.055 A 
ATOM      9  C   UNL     1       6.820  -0.807  25.448  0.00  0.00    +0.030 A 
ATOM     10  C   UNL     1       6.939  -2.145  25.902  0.00  0.00    -0.022 A 
ATOM     11  C   UNL     1       7.983  -2.943  25.394  0.00  0.00    +0.110 A 
ATOM     12  C   UNL     1       5.930  -2.622  26.910  0.00  0.00    +0.046 C 
ATOM     13  C   UNL     1       8.906  -2.379  24.503  0.00  0.00    +0.059 A 
ATOM     14  N   UNL     1       7.478   1.058  24.046  0.00  0.00    -0.326 N 
ATOM     15  H   UNL     1       6.902   1.605  24.677  0.00  0.00    +0.148 HD
ENDROOT
BRANCH   1  16
ATOM     16  C   UNL     1       8.186   3.168  22.945  0.00  0.00    +0.025 C 
ATOM     17  C   UNL     1       6.736   3.560  23.271  0.00  0.00    +0.007 C 
ATOM     18  C   UNL     1       6.778   4.431  24.528  0.00  0.00    +0.000 C 
ATOM     19  C   UNL     1       8.248   4.611  24.874  0.00  0.00    +0.000 C 
ATOM     20  C   UNL     1       8.978   4.328  23.571  0.00  0.00    +0.007 C 
ENDBRANCH   1  16
BRANCH  11  21
ATOM     21  S   UNL     1       8.056  -4.727  25.617  0.00  0.00    +0.061 S 
ATOM     22  O   UNL     1       8.222  -4.963  27.037  0.00  0.00    -0.153 OA
ATOM     23  O   UNL     1       9.010  -5.271  24.677  0.00  0.00    -0.153 OA
BRANCH  21  24
ATOM     24  N   UNL     1       6.538  -5.279  25.191  0.00  0.00    -0.174 NA
ATOM     25  C   UNL     1       6.030  -5.154  23.815  0.00  0.00    +0.125 C 
ATOM     26  C   UNL     1       4.584  -4.620  23.887  0.00  0.00    +0.101 C 
ATOM     27  N   UNL     1       3.664  -5.480  24.667  0.00  0.00    -0.303 NA
ATOM     28  C   UNL     1       3.386  -6.735  23.975  0.00  0.00    +0.105 C 
ATOM     29  C   UNL     1       4.232  -5.706  26.017  0.00  0.00    +0.101 C 
ATOM     30  C   UNL     1       5.722  -6.142  26.069  0.00  0.00    +0.125 C 
ENDBRANCH  21  24
ENDBRANCH  11  21
TORSDOF 3
ENDMDL
MODEL 9
REMARK VINA RESULT:      -6.8      2.899      4.147
REMARK  Name = 
REMARK  5 active torsions:
REMARK  status: ('A' for Active; 'I' for Inactive)
REMARK    1  A    between atoms: C_2  and  C_25
REMARK    2  A    between atoms: C_6  and  C_7
REMARK    3  A    between atoms: C_8  and  S_15
REMARK    4  A    between atoms: S_15  and  N_18
REMARK    5  A    between atoms: N_21  and  C_22
REMARK                            x       y       z     vdW  Elec       q    Type
REMARK                         _______ _______ _______ _____ _____    ______ ____
ROOT
ATOM      1  C   UNL     1       8.416   0.173  23.362  0.00  0.00    +0.163 C 
ATOM      2  N   UNL     1       8.361  -0.893  22.385  0.00  0.00    -0.170 NA
ATOM      3  H   UNL     1       7.531  -0.868  21.795  0.00  0.00    +0.150 HD
ATOM      4  S   UNL     1       8.557  -2.403  23.072  0.00  0.00    +0.062 S 
ATOM      5  O   UNL     1       9.886  -2.480  23.633  0.00  0.00    -0.153 OA
ATOM      6  O   UNL     1       8.062  -3.360  22.111  0.00  0.00    -0.153 OA
ATOM      7  C   UNL     1       7.428  -2.339  24.420  0.00  0.00    +0.128 A 
ATOM      8  C   UNL     1       6.931  -1.098  24.817  0.00  0.00    +0.055 A 
ATOM      9  C   UNL     1       6.014  -1.097  25.876  0.00  0.00    +0.030 A 
ATOM     10  C   UNL     1       5.615  -2.282  26.544  0.00  0.00    -0.022 A 
ATOM     11  C   UNL     1       6.113  -3.518  26.085  0.00  0.00    +0.110 A 
ATOM     12  C   UNL     1       4.679  -2.133  27.712  0.00  0.00    +0.046 C 
ATOM     13  C   UNL     1       7.028  -3.539  25.025  0.00  0.00    +0.059 A 
ATOM     14  N   UNL     1       7.174   0.096  24.112  0.00  0.00    -0.326 N 
ATOM     15  H   UNL     1       7.003   0.913  24.691  0.00  0.00    +0.148 HD
ENDROOT
BRANCH   1  16
ATOM     16  C   UNL     1       8.534   1.517  22.596  0.00  0.00    +0.025 C 
ATOM     17  C   UNL     1       8.157   2.751  23.433  0.00  0.00    +0.007 C 
ATOM     18  C   UNL     1       9.456   3.307  24.020  0.00  0.00    +0.000 C 
ATOM     19  C   UNL     1      10.581   2.453  23.458  0.00  0.00    +0.000 C 
ATOM     20  C   UNL     1       9.988   1.828  22.204  0.00  0.00    +0.007 C 
ENDBRANCH   1  16
BRANCH  11  21
ATOM     21  S   UNL     1       5.441  -5.104  26.609  0.00  0.00    +0.061 S 
ATOM     22  O   UNL     1       4.699  -4.860  27.829  0.00  0.00    -0.153 OA
ATOM     23  O   UNL     1       6.504  -6.083  26.593  0.00  0.00    -0.153 OA
BRANCH  21  24
ATOM     24  N   UNL     1       4.338  -5.519  25.425  0.00  0.00    -0.174 NA
ATOM     25  C   UNL     1       4.689  -6.442  24.333  0.00  0.00    +0.125 C 
ATOM     26  C   UNL     1       4.183  -5.830  23.010  0.00  0.00    +0.101 C 
ATOM     27  N   UNL     1       2.725  -5.580  22.983  0.00  0.00    -0.303 NA
ATOM     28  C   UNL     1       1.966  -6.827  22.936  0.00  0.00    +0.105 C 
ATOM     29  C   UNL     1       2.348  -4.748  24.149  0.00  0.00    +0.101 C 
ATOM     30  C   UNL     1       2.897  -5.211  25.527  0.00  0.00    +0.125 C 
ENDBRANCH  21  24
ENDBRANCH  11  21
TORSDOF 3
ENDMDL
