MODEL 1
REMARK VINA RESULT:      -4.5      0.000      0.000
REMARK  Name = 
REMARK  3 active torsions:
REMARK  status: ('A' for Active; 'I' for Inactive)
REMARK    1  A    between atoms: C_4  and  O_5
REMARK    2  A    between atoms: C_6  and  N_7
REMARK    3  A    between atoms: C_8  and  O_9
REMARK                            x       y       z     vdW  Elec       q    Type
REMARK                         _______ _______ _______ _____ _____    ______ ____
ROOT
ATOM      1  N   UNL     1      10.304   2.941  22.570  0.00  0.00    -0.327 N 
ATOM      2  H   UNL     1      10.031   3.045  21.602  0.00  0.00    +0.145 HD
ATOM      3  H   UNL     1       9.908   3.582  23.242  0.00  0.00    +0.145 HD
ATOM      4  C   UNL     1      10.136   1.633  22.970  0.00  0.00    +0.219 A 
ATOM      5  N   UNL     1      10.100   0.702  22.015  0.00  0.00    -0.178 NA
ATOM      6  C   UNL     1       9.969  -0.565  22.436  0.00  0.00    +0.242 A 
ATOM      7  C   UNL     1       9.809  -0.957  23.750  0.00  0.00    +0.149 A 
ATOM      8  C   UNL     1       9.875   0.111  24.617  0.00  0.00    +0.242 A 
ATOM      9  N   UNL     1      10.010   1.399  24.281  0.00  0.00    -0.178 NA
ENDROOT
BRANCH   7  10
ATOM     10  N   UNL     1       9.768  -2.302  24.162  0.00  0.00    -0.350 N 
ATOM     11  H   UNL     1       9.830  -2.408  25.172  0.00  0.00    +0.143 HD
ATOM     12  H   UNL     1      10.514  -2.826  23.699  0.00  0.00    +0.143 HD
ENDBRANCH   7  10
BRANCH   6  13
ATOM     13  O   UNL     1      10.048  -1.518  21.454  0.00  0.00    -0.491 OA
ATOM     14  H   UNL     1       9.721  -2.329  21.881  0.00  0.00    +0.294 HD
ENDBRANCH   6  13
BRANCH   8  15
ATOM     15  O   UNL     1       9.757  -0.099  25.961  0.00  0.00    -0.491 OA
ATOM     16  H   UNL     1      10.230   0.684  26.298  0.00  0.00    +0.294 HD
ENDBRANCH   8  15
TORSDOF 3
ENDMDL
MODEL 2
REMARK VINA RESULT:      -4.5      0.083      2.581
REMARK  Name = 
REMARK  3 active torsions:
REMARK  status: ('A' for Active; 'I' for Inactive)
REMARK    1  A    between atoms: C_4  and  O_5
REMARK    2  A    between atoms: C_6  and  N_7
REMARK    3  A    between atoms: C_8  and  O_9
REMARK                            x       y       z     vdW  Elec       q    Type
REMARK                         _______ _______ _______ _____ _____    ______ ____
ROOT
ATOM      1  N   UNL     1      10.166   2.900  22.546  0.00  0.00    -0.327 N 
ATOM      2  H   UNL     1      10.499   3.480  23.303  0.00  0.00    +0.145 HD
ATOM      3  H   UNL     1      10.630   2.978  21.653  0.00  0.00    +0.145 HD
ATOM      4  C   UNL     1      10.091   1.586  22.954  0.00  0.00    +0.219 A 
ATOM      5  N   UNL     1      10.017   1.358  24.267  0.00  0.00    -0.178 NA
ATOM      6  C   UNL     1       9.912   0.072  24.634  0.00  0.00    +0.242 A 
ATOM      7  C   UNL     1       9.939  -1.008  23.775  0.00  0.00    +0.149 A 
ATOM      8  C   UNL     1      10.011  -0.615  22.457  0.00  0.00    +0.242 A 
ATOM      9  N   UNL     1      10.112   0.641  22.008  0.00  0.00    -0.178 NA
ENDROOT
BRANCH   7  10
ATOM     10  N   UNL     1       9.733  -2.337  24.188  0.00  0.00    -0.350 N 
ATOM     11  H   UNL     1      10.599  -2.820  24.413  0.00  0.00    +0.143 HD
ATOM     12  H   UNL     1       9.215  -2.845  23.466  0.00  0.00    +0.143 HD
ENDBRANCH   7  10
BRANCH   6  13
ATOM     13  O   UNL     1       9.722  -0.139  25.976  0.00  0.00    -0.491 OA
ATOM     14  H   UNL     1      10.276  -0.913  26.176  0.00  0.00    +0.294 HD
ENDBRANCH   6  13
BRANCH   8  15
ATOM     15  O   UNL     1      10.026  -1.556  21.469  0.00  0.00    -0.491 OA
ATOM     16  H   UNL     1       9.210  -1.318  20.993  0.00  0.00    +0.294 HD
ENDBRANCH   8  15
TORSDOF 3
ENDMDL
MODEL 3
REMARK VINA RESULT:      -4.4      3.850      5.310
REMARK  Name = 
REMARK  3 active torsions:
REMARK  status: ('A' for Active; 'I' for Inactive)
REMARK    1  A    between atoms: C_4  and  O_5
REMARK    2  A    between atoms: C_6  and  N_7
REMARK    3  A    between atoms: C_8  and  O_9
REMARK                            x       y       z     vdW  Elec       q    Type
REMARK                         _______ _______ _______ _____ _____    ______ ____
ROOT
ATOM      1  N   UNL     1       9.464  -1.788  23.633  0.00  0.00    -0.327 N 
ATOM      2  H   UNL     1       9.194  -0.878  23.981  0.00  0.00    +0.145 HD
ATOM      3  H   UNL     1      10.419  -1.913  23.330  0.00  0.00    +0.145 HD
ATOM      4  C   UNL     1       9.096  -2.765  24.533  0.00  0.00    +0.219 A 
ATOM      5  N   UNL     1       8.130  -2.463  25.402  0.00  0.00    -0.178 NA
ATOM      6  C   UNL     1       7.770  -3.443  26.243  0.00  0.00    +0.242 A 
ATOM      7  C   UNL     1       8.358  -4.690  26.314  0.00  0.00    +0.149 A 
ATOM      8  C   UNL     1       9.330  -4.855  25.354  0.00  0.00    +0.242 A 
ATOM      9  N   UNL     1       9.744  -3.934  24.476  0.00  0.00    -0.178 NA
ENDROOT
BRANCH   7  10
ATOM     10  N   UNL     1       7.892  -5.725  27.146  0.00  0.00    -0.350 N 
ATOM     11  H   UNL     1       8.621  -6.387  27.400  0.00  0.00    +0.143 HD
ATOM     12  H   UNL     1       7.111  -6.206  26.693  0.00  0.00    +0.143 HD
ENDBRANCH   7  10
BRANCH   6  13
ATOM     13  O   UNL     1       6.699  -3.157  27.052  0.00  0.00    -0.491 OA
ATOM     14  H   UNL     1       6.536  -3.986  27.535  0.00  0.00    +0.294 HD
ENDBRANCH   6  13
BRANCH   8  15
ATOM     15  O   UNL     1      10.003  -6.040  25.266  0.00  0.00    -0.491 OA
ATOM     16  H   UNL     1       9.582  -6.530  25.996  0.00  0.00    +0.294 HD
ENDBRANCH   8  15
TORSDOF 3
ENDMDL
MODEL 4
REMARK VINA RESULT:      -4.4      4.624      5.611
REMARK  Name = 
REMARK  3 active torsions:
REMARK  status: ('A' for Active; 'I' for Inactive)
REMARK    1  A    between atoms: C_4  and  O_5
REMARK    2  A    between atoms: C_6  and  N_7
REMARK    3  A    between atoms: C_8  and  O_9
REMARK                            x       y       z     vdW  Elec       q    Type
REMARK                         _______ _______ _______ _____ _____    ______ ____
ROOT
ATOM      1  N   UNL     1       8.307  -2.720  22.762  0.00  0.00    -0.327 N 
ATOM      2  H   UNL     1       9.122  -2.969  22.218  0.00  0.00    +0.145 HD
ATOM      3  H   UNL     1       7.425  -2.635  22.278  0.00  0.00    +0.145 HD
ATOM      4  C   UNL     1       8.196  -3.554  23.854  0.00  0.00    +0.219 A 
ATOM      5  N   UNL     1       9.302  -4.182  24.257  0.00  0.00    -0.178 NA
ATOM      6  C   UNL     1       9.172  -4.961  25.342  0.00  0.00    +0.242 A 
ATOM      7  C   UNL     1       7.990  -5.202  26.014  0.00  0.00    +0.149 A 
ATOM      8  C   UNL     1       6.942  -4.481  25.487  0.00  0.00    +0.242 A 
ATOM      9  N   UNL     1       6.989  -3.680  24.416  0.00  0.00    -0.178 NA
ENDROOT
BRANCH   7  10
ATOM     10  N   UNL     1       7.909  -5.950  27.203  0.00  0.00    -0.350 N 
ATOM     11  H   UNL     1       8.083  -6.942  27.059  0.00  0.00    +0.143 HD
ATOM     12  H   UNL     1       6.995  -5.805  27.639  0.00  0.00    +0.143 HD
ENDBRANCH   7  10
BRANCH   6  13
ATOM     13  O   UNL     1      10.338  -5.508  25.813  0.00  0.00    -0.491 OA
ATOM     14  H   UNL     1      11.036  -5.032  25.330  0.00  0.00    +0.294 HD
ENDBRANCH   6  13
BRANCH   8  15
ATOM     15  O   UNL     1       5.701  -4.583  26.045  0.00  0.00    -0.491 OA
ATOM     16  H   UNL     1       5.941  -4.647  26.987  0.00  0.00    +0.294 HD
ENDBRANCH   8  15
TORSDOF 3
ENDMDL
MODEL 5
REMARK VINA RESULT:      -4.4      5.918      6.555
REMARK  Name = 
REMARK  3 active torsions:
REMARK  status: ('A' for Active; 'I' for Inactive)
REMARK    1  A    between atoms: C_4  and  O_5
REMARK    2  A    between atoms: C_6  and  N_7
REMARK    3  A    between atoms: C_8  and  O_9
REMARK                            x       y       z     vdW  Elec       q    Type
REMARK                         _______ _______ _______ _____ _____    ______ ____
ROOT
ATOM      1  N   UNL     1       7.160  -4.606  22.004  0.00  0.00    -0.327 N 
ATOM      2  H   UNL     1       6.279  -4.123  21.894  0.00  0.00    +0.145 HD
ATOM      3  H   UNL     1       7.978  -4.199  21.575  0.00  0.00    +0.145 HD
ATOM      4  C   UNL     1       7.382  -4.885  23.335  0.00  0.00    +0.219 A 
ATOM      5  N   UNL     1       6.318  -4.907  24.140  0.00  0.00    -0.178 NA
ATOM      6  C   UNL     1       6.560  -5.213  25.423  0.00  0.00    +0.242 A 
ATOM      7  C   UNL     1       7.807  -5.440  25.968  0.00  0.00    +0.149 A 
ATOM      8  C   UNL     1       8.801  -5.391  25.016  0.00  0.00    +0.242 A 
ATOM      9  N   UNL     1       8.645  -5.099  23.720  0.00  0.00    -0.178 NA
ENDROOT
BRANCH   7  10
ATOM     10  N   UNL     1       8.014  -5.850  27.299  0.00  0.00    -0.350 N 
ATOM     11  H   UNL     1       7.225  -5.639  27.905  0.00  0.00    +0.143 HD
ATOM     12  H   UNL     1       8.870  -5.423  27.661  0.00  0.00    +0.143 HD
ENDBRANCH   7  10
BRANCH   6  13
ATOM     13  O   UNL     1       5.446  -5.344  26.213  0.00  0.00    -0.491 OA
ATOM     14  H   UNL     1       5.173  -4.428  26.394  0.00  0.00    +0.294 HD
ENDBRANCH   6  13
BRANCH   8  15
ATOM     15  O   UNL     1      10.098  -5.613  25.379  0.00  0.00    -0.491 OA
ATOM     16  H   UNL     1      10.170  -5.008  26.139  0.00  0.00    +0.294 HD
ENDBRANCH   8  15
TORSDOF 3
ENDMDL
MODEL 6
REMARK VINA RESULT:      -4.4      2.306      2.983
REMARK  Name = 
REMARK  3 active torsions:
REMARK  status: ('A' for Active; 'I' for Inactive)
REMARK    1  A    between atoms: C_4  and  O_5
REMARK    2  A    between atoms: C_6  and  N_7
REMARK    3  A    between atoms: C_8  and  O_9
REMARK                            x       y       z     vdW  Elec       q    Type
REMARK                         _______ _______ _______ _____ _____    ______ ____
ROOT
ATOM      1  N   UNL     1       8.811   2.688  21.702  0.00  0.00    -0.327 N 
ATOM      2  H   UNL     1       8.240   3.250  22.319  0.00  0.00    +0.145 HD
ATOM      3  H   UNL     1       9.791   2.918  21.627  0.00  0.00    +0.145 HD
ATOM      4  C   UNL     1       8.633   1.351  21.983  0.00  0.00    +0.219 A 
ATOM      5  N   UNL     1       7.515   1.004  22.622  0.00  0.00    -0.178 NA
ATOM      6  C   UNL     1       7.353  -0.307  22.853  0.00  0.00    +0.242 A 
ATOM      7  C   UNL     1       8.269  -1.291  22.540  0.00  0.00    +0.149 A 
ATOM      8  C   UNL     1       9.366  -0.782  21.881  0.00  0.00    +0.242 A 
ATOM      9  N   UNL     1       9.600   0.506  21.607  0.00  0.00    -0.178 NA
ENDROOT
BRANCH   7  10
ATOM     10  N   UNL     1       8.026  -2.666  22.713  0.00  0.00    -0.350 N 
ATOM     11  H   UNL     1       8.342  -3.226  21.925  0.00  0.00    +0.143 HD
ATOM     12  H   UNL     1       7.030  -2.819  22.887  0.00  0.00    +0.143 HD
ENDBRANCH   7  10
BRANCH   6  13
ATOM     13  O   UNL     1       6.149  -0.660  23.406  0.00  0.00    -0.491 OA
ATOM     14  H   UNL     1       6.378  -0.968  24.300  0.00  0.00    +0.294 HD
ENDBRANCH   6  13
BRANCH   8  15
ATOM     15  O   UNL     1      10.364  -1.621  21.477  0.00  0.00    -0.491 OA
ATOM     16  H   UNL     1      10.989  -1.512  22.217  0.00  0.00    +0.294 HD
ENDBRANCH   8  15
TORSDOF 3
ENDMDL
MODEL 7
REMARK VINA RESULT:      -4.3      4.383      5.434
REMARK  Name = 
REMARK  3 active torsions:
REMARK  status: ('A' for Active; 'I' for Inactive)
REMARK    1  A    between atoms: C_4  and  O_5
REMARK    2  A    between atoms: C_6  and  N_7
REMARK    3  A    between atoms: C_8  and  O_9
REMARK                            x       y       z     vdW  Elec       q    Type
REMARK                         _______ _______ _______ _____ _____    ______ ____
ROOT
ATOM      1  N   UNL     1       6.164  -2.003  26.198  0.00  0.00    -0.327 N 
ATOM      2  H   UNL     1       6.069  -1.454  25.354  0.00  0.00    +0.145 HD
ATOM      3  H   UNL     1       5.329  -2.416  26.588  0.00  0.00    +0.145 HD
ATOM      4  C   UNL     1       7.157  -2.944  26.040  0.00  0.00    +0.219 A 
ATOM      5  N   UNL     1       8.069  -2.717  25.092  0.00  0.00    -0.178 NA
ATOM      6  C   UNL     1       9.043  -3.634  24.983  0.00  0.00    +0.242 A 
ATOM      7  C   UNL     1       9.129  -4.797  25.720  0.00  0.00    +0.149 A 
ATOM      8  C   UNL     1       8.126  -4.888  26.659  0.00  0.00    +0.242 A 
ATOM      9  N   UNL     1       7.125  -4.018  26.837  0.00  0.00    -0.178 NA
ENDROOT
BRANCH   7  10
ATOM     10  N   UNL     1      10.215  -5.690  25.643  0.00  0.00    -0.350 N 
ATOM     11  H   UNL     1      10.355  -6.063  24.707  0.00  0.00    +0.143 HD
ATOM     12  H   UNL     1      10.085  -6.448  26.317  0.00  0.00    +0.143 HD
ENDBRANCH   7  10
BRANCH   6  13
ATOM     13  O   UNL     1      10.034  -3.330  24.085  0.00  0.00    -0.491 OA
ATOM     14  H   UNL     1      10.328  -2.440  24.347  0.00  0.00    +0.294 HD
ENDBRANCH   6  13
BRANCH   8  15
ATOM     15  O   UNL     1       8.072  -5.968  27.491  0.00  0.00    -0.491 OA
ATOM     16  H   UNL     1       7.901  -6.675  26.843  0.00  0.00    +0.294 HD
ENDBRANCH   8  15
TORSDOF 3
ENDMDL
MODEL 8
REMARK VINA RESULT:      -4.3      4.367      5.748
REMARK  Name = 
REMARK  3 active torsions:
REMARK  status: ('A' for Active; 'I' for Inactive)
REMARK    1  A    between atoms: C_4  and  O_5
REMARK    2  A    between atoms: C_6  and  N_7
REMARK    3  A    between atoms: C_8  and  O_9
REMARK                            x       y       z     vdW  Elec       q    Type
REMARK                         _______ _______ _______ _____ _____    ______ ____
ROOT
ATOM      1  N   UNL     1       5.819  -2.289  25.614  0.00  0.00    -0.327 N 
ATOM      2  H   UNL     1       5.311  -2.346  26.486  0.00  0.00    +0.145 HD
ATOM      3  H   UNL     1       6.034  -1.371  25.253  0.00  0.00    +0.145 HD
ATOM      4  C   UNL     1       6.947  -3.079  25.672  0.00  0.00    +0.219 A 
ATOM      5  N   UNL     1       6.960  -4.060  26.576  0.00  0.00    -0.178 NA
ATOM      6  C   UNL     1       8.057  -4.833  26.587  0.00  0.00    +0.242 A 
ATOM      7  C   UNL     1       9.171  -4.648  25.793  0.00  0.00    +0.149 A 
ATOM      8  C   UNL     1       9.006  -3.605  24.910  0.00  0.00    +0.242 A 
ATOM      9  N   UNL     1       7.946  -2.793  24.829  0.00  0.00    -0.178 NA
ENDROOT
BRANCH   7  10
ATOM     10  N   UNL     1      10.264  -5.534  25.768  0.00  0.00    -0.350 N 
ATOM     11  H   UNL     1      10.939  -5.351  26.506  0.00  0.00    +0.143 HD
ATOM     12  H   UNL     1      10.715  -5.497  24.850  0.00  0.00    +0.143 HD
ENDBRANCH   7  10
BRANCH   6  13
ATOM     13  O   UNL     1       8.008  -5.905  27.441  0.00  0.00    -0.491 OA
ATOM     14  H   UNL     1       8.112  -6.678  26.859  0.00  0.00    +0.294 HD
ENDBRANCH   6  13
BRANCH   8  15
ATOM     15  O   UNL     1      10.005  -3.296  24.033  0.00  0.00    -0.491 OA
ATOM     16  H   UNL     1       9.486  -2.874  23.324  0.00  0.00    +0.294 HD
ENDBRANCH   8  15
TORSDOF 3
ENDMDL
MODEL 9
REMARK VINA RESULT:      -4.2      2.028      3.124
REMARK  Name = 
REMARK  3 active torsions:
REMARK  status: ('A' for Active; 'I' for Inactive)
REMARK    1  A    between atoms: C_4  and  O_5
REMARK    2  A    between atoms: C_6  and  N_7
REMARK    3  A    between atoms: C_8  and  O_9
REMARK                            x       y       z     vdW  Elec       q    Type
REMARK                         _______ _______ _______ _____ _____    ______ ____
ROOT
ATOM      1  N   UNL     1      10.005  -1.356  21.391  0.00  0.00    -0.327 N 
ATOM      2  H   UNL     1      10.052  -1.081  20.419  0.00  0.00    +0.145 HD
ATOM      3  H   UNL     1      10.737  -1.953  21.748  0.00  0.00    +0.145 HD
ATOM      4  C   UNL     1       9.837  -0.244  22.188  0.00  0.00    +0.219 A 
ATOM      5  N   UNL     1       9.339   0.851  21.611  0.00  0.00    -0.178 NA
ATOM      6  C   UNL     1       9.156   1.907  22.418  0.00  0.00    +0.242 A 
ATOM      7  C   UNL     1       9.497   1.959  23.754  0.00  0.00    +0.149 A 
ATOM      8  C   UNL     1       9.990   0.755  24.207  0.00  0.00    +0.242 A 
ATOM      9  N   UNL     1      10.197  -0.344  23.472  0.00  0.00    -0.178 NA
ENDROOT
BRANCH   7  10
ATOM     10  N   UNL     1       9.204   3.052  24.591  0.00  0.00    -0.350 N 
ATOM     11  H   UNL     1       8.270   3.426  24.442  0.00  0.00    +0.143 HD
ATOM     12  H   UNL     1       9.909   3.782  24.462  0.00  0.00    +0.143 HD
ENDBRANCH   7  10
BRANCH   6  13
ATOM     13  O   UNL     1       8.538   2.986  21.838  0.00  0.00    -0.491 OA
ATOM     14  H   UNL     1       8.728   3.723  22.443  0.00  0.00    +0.294 HD
ENDBRANCH   6  13
BRANCH   8  15
ATOM     15  O   UNL     1      10.358   0.622  25.514  0.00  0.00    -0.491 OA
ATOM     16  H   UNL     1      11.314   0.798  25.441  0.00  0.00    +0.294 HD
ENDBRANCH   8  15
TORSDOF 3
ENDMDL
