MODEL 1
REMARK VINA RESULT:      -6.7      0.000      0.000
REMARK  Name = 
REMARK  9 active torsions:
REMARK  status: ('A' for Active; 'I' for Inactive)
REMARK    1  A    between atoms: C_1  and  C_2
REMARK    2  A    between atoms: C_2  and  C_3
REMARK    3  A    between atoms: C_2  and  C_4
REMARK    4  A    between atoms: C_2  and  C_5
REMARK    5  A    between atoms: C_9  and  N_10
REMARK    6  A    between atoms: C_11  and  C_24
REMARK    7  A    between atoms: N_15  and  C_16
REMARK    8  A    between atoms: C_16  and  C_17
REMARK    9  A    between atoms: C_17  and  C_18
REMARK                            x       y       z     vdW  Elec       q    Type
REMARK                         _______ _______ _______ _____ _____    ______ ____
ROOT
ATOM      1  C   UNL     1       6.555  -4.006  22.685  0.00  0.00    +0.139 A 
ATOM      2  N   UNL     1       5.810  -3.614  23.733  0.00  0.00    -0.216 NA
ATOM      3  C   UNL     1       5.964  -2.361  24.179  0.00  0.00    +0.132 A 
ATOM      4  N   UNL     1       5.132  -1.894  25.219  0.00  0.00    -0.328 N 
ATOM      5  H   UNL     1       5.632  -1.208  25.776  0.00  0.00    +0.147 HD
ATOM      6  C   UNL     1       6.867  -1.478  23.576  0.00  0.00    +0.060 A 
ATOM      7  C   UNL     1       7.634  -1.981  22.530  0.00  0.00    +0.167 A 
ATOM      8  N   UNL     1       8.558  -1.212  21.934  0.00  0.00    -0.212 NA
ATOM      9  C   UNL     1       8.760   0.065  22.338  0.00  0.00    +0.131 A 
ATOM     10  C   UNL     1       8.041   0.648  23.374  0.00  0.00    +0.077 A 
ATOM     11  C   UNL     1       7.070  -0.141  23.978  0.00  0.00    +0.031 A 
ATOM     12  N   UNL     1       7.477  -3.228  22.095  0.00  0.00    -0.212 NA
ENDROOT
BRANCH  10  13
ATOM     13  C   UNL     1       8.217   2.022  23.921  0.00  0.00    +0.245 C 
ATOM     14  O   UNL     1       8.094   3.010  23.206  0.00  0.00    -0.270 OA
ATOM     15  N   UNL     1       8.481   2.173  25.249  0.00  0.00    -0.325 N 
ATOM     16  H   UNL     1       8.459   3.121  25.608  0.00  0.00    +0.145 HD
ATOM     17  H   UNL     1       8.317   1.409  25.897  0.00  0.00    +0.145 HD
ENDBRANCH  10  13
BRANCH   1  19
ATOM     18  C   UNL     1       5.212  -6.084  22.952  0.00  0.00    +0.019 C 
ATOM     19  C   UNL     1       6.406  -5.455  22.214  0.00  0.00    +0.022 C 
ATOM     20  C   UNL     1       6.146  -5.517  20.695  0.00  0.00    +0.019 C 
ATOM     21  C   UNL     1       7.670  -6.290  22.499  0.00  0.00    +0.019 C 
ENDBRANCH   1  19
BRANCH   9  22
ATOM     22  N   UNL     1       9.751   0.744  21.616  0.00  0.00    -0.342 N 
ATOM     23  H   UNL     1       9.661   1.747  21.763  0.00  0.00    +0.144 HD
ATOM     24  H   UNL     1       9.578   0.520  20.634  0.00  0.00    +0.144 HD
ENDBRANCH   9  22
BRANCH   4  25
ATOM     25  C   UNL     1       4.603  -2.919  26.126  0.00  0.00    +0.109 C 
BRANCH  25  26
ATOM     26  C   UNL     1       5.551  -3.016  27.328  0.00  0.00    +0.075 C 
BRANCH  26  27
ATOM     27  C   UNL     1       6.629  -4.018  27.146  0.00  0.00    +0.060 A 
ATOM     28  N   UNL     1       7.841  -3.658  26.603  0.00  0.00    -0.241 NA
ATOM     29  C   UNL     1       8.571  -4.749  26.624  0.00  0.00    +0.196 A 
ATOM     30  N   UNL     1       7.886  -5.801  27.158  0.00  0.00    -0.351 N 
ATOM     31  H   UNL     1       8.238  -6.737  27.287  0.00  0.00    +0.166 HD
ATOM     32  C   UNL     1       6.642  -5.348  27.504  0.00  0.00    +0.107 A 
ENDBRANCH  26  27
ENDBRANCH  25  26
ENDBRANCH   4  25
TORSDOF 6
ENDMDL
MODEL 2
REMARK VINA RESULT:      -6.6      1.473      1.899
REMARK  Name = 
REMARK  9 active torsions:
REMARK  status: ('A' for Active; 'I' for Inactive)
REMARK    1  A    between atoms: C_1  and  C_2
REMARK    2  A    between atoms: C_2  and  C_3
REMARK    3  A    between atoms: C_2  and  C_4
REMARK    4  A    between atoms: C_2  and  C_5
REMARK    5  A    between atoms: C_9  and  N_10
REMARK    6  A    between atoms: C_11  and  C_24
REMARK    7  A    between atoms: N_15  and  C_16
REMARK    8  A    between atoms: C_16  and  C_17
REMARK    9  A    between atoms: C_17  and  C_18
REMARK                            x       y       z     vdW  Elec       q    Type
REMARK                         _______ _______ _______ _____ _____    ______ ____
ROOT
ATOM      1  C   UNL     1       7.022  -3.932  22.833  0.00  0.00    +0.139 A 
ATOM      2  N   UNL     1       7.033  -3.861  24.175  0.00  0.00    -0.216 NA
ATOM      3  C   UNL     1       7.516  -2.748  24.741  0.00  0.00    +0.132 A 
ATOM      4  N   UNL     1       7.457  -2.608  26.143  0.00  0.00    -0.328 N 
ATOM      5  H   UNL     1       8.239  -2.046  26.465  0.00  0.00    +0.147 HD
ATOM      6  C   UNL     1       7.993  -1.684  23.965  0.00  0.00    +0.060 A 
ATOM      7  C   UNL     1       7.992  -1.862  22.586  0.00  0.00    +0.167 A 
ATOM      8  N   UNL     1       8.481  -0.909  21.778  0.00  0.00    -0.212 NA
ATOM      9  C   UNL     1       8.982   0.242  22.289  0.00  0.00    +0.131 A 
ATOM     10  C   UNL     1       9.023   0.502  23.653  0.00  0.00    +0.077 A 
ATOM     11  C   UNL     1       8.499  -0.475  24.490  0.00  0.00    +0.031 A 
ATOM     12  N   UNL     1       7.513  -2.972  22.032  0.00  0.00    -0.212 NA
ENDROOT
BRANCH  10  13
ATOM     13  C   UNL     1       9.591   1.709  24.315  0.00  0.00    +0.245 C 
ATOM     14  O   UNL     1      10.718   2.110  24.045  0.00  0.00    -0.270 OA
ATOM     15  N   UNL     1       8.821   2.395  25.206  0.00  0.00    -0.325 N 
ATOM     16  H   UNL     1       9.190   3.282  25.530  0.00  0.00    +0.145 HD
ATOM     17  H   UNL     1       7.817   2.251  25.237  0.00  0.00    +0.145 HD
ENDBRANCH  10  13
BRANCH   1  19
ATOM     18  C   UNL     1       5.254  -5.679  22.956  0.00  0.00    +0.019 C 
ATOM     19  C   UNL     1       6.514  -5.229  22.197  0.00  0.00    +0.022 C 
ATOM     20  C   UNL     1       6.153  -5.011  20.713  0.00  0.00    +0.019 C 
ATOM     21  C   UNL     1       7.565  -6.355  22.255  0.00  0.00    +0.019 C 
ENDBRANCH   1  19
BRANCH   9  22
ATOM     22  N   UNL     1       9.447   1.143  21.322  0.00  0.00    -0.342 N 
ATOM     23  H   UNL     1       9.199   2.094  21.587  0.00  0.00    +0.144 HD
ATOM     24  H   UNL     1       8.969   0.888  20.456  0.00  0.00    +0.144 HD
ENDBRANCH   9  22
BRANCH   4  25
ATOM     25  C   UNL     1       7.447  -3.858  26.912  0.00  0.00    +0.109 C 
BRANCH  25  26
ATOM     26  C   UNL     1       6.038  -4.043  27.489  0.00  0.00    +0.075 C 
BRANCH  26  27
ATOM     27  C   UNL     1       5.835  -5.364  28.133  0.00  0.00    +0.060 A 
ATOM     28  N   UNL     1       6.097  -5.542  29.471  0.00  0.00    -0.241 NA
ATOM     29  C   UNL     1       5.775  -6.789  29.727  0.00  0.00    +0.196 A 
ATOM     30  N   UNL     1       5.316  -7.427  28.612  0.00  0.00    -0.351 N 
ATOM     31  H   UNL     1       5.002  -8.384  28.561  0.00  0.00    +0.166 HD
ATOM     32  C   UNL     1       5.341  -6.526  27.582  0.00  0.00    +0.107 A 
ENDBRANCH  26  27
ENDBRANCH  25  26
ENDBRANCH   4  25
TORSDOF 6
ENDMDL
MODEL 3
REMARK VINA RESULT:      -6.5      3.224      7.100
REMARK  Name = 
REMARK  9 active torsions:
REMARK  status: ('A' for Active; 'I' for Inactive)
REMARK    1  A    between atoms: C_1  and  C_2
REMARK    2  A    between atoms: C_2  and  C_3
REMARK    3  A    between atoms: C_2  and  C_4
REMARK    4  A    between atoms: C_2  and  C_5
REMARK    5  A    between atoms: C_9  and  N_10
REMARK    6  A    between atoms: C_11  and  C_24
REMARK    7  A    between atoms: N_15  and  C_16
REMARK    8  A    between atoms: C_16  and  C_17
REMARK    9  A    between atoms: C_17  and  C_18
REMARK                            x       y       z     vdW  Elec       q    Type
REMARK                         _______ _______ _______ _____ _____    ______ ____
ROOT
ATOM      1  C   UNL     1       6.126  -0.271  25.077  0.00  0.00    +0.139 A 
ATOM      2  N   UNL     1       7.270  -0.760  24.567  0.00  0.00    -0.216 NA
ATOM      3  C   UNL     1       7.283  -2.039  24.169  0.00  0.00    +0.132 A 
ATOM      4  N   UNL     1       8.441  -2.553  23.547  0.00  0.00    -0.328 N 
ATOM      5  H   UNL     1       8.529  -3.543  23.752  0.00  0.00    +0.147 HD
ATOM      6  C   UNL     1       6.145  -2.847  24.273  0.00  0.00    +0.060 A 
ATOM      7  C   UNL     1       5.021  -2.276  24.859  0.00  0.00    +0.167 A 
ATOM      8  N   UNL     1       3.907  -3.001  25.041  0.00  0.00    -0.212 NA
ATOM      9  C   UNL     1       3.857  -4.300  24.657  0.00  0.00    +0.131 A 
ATOM     10  C   UNL     1       4.932  -4.950  24.065  0.00  0.00    +0.077 A 
ATOM     11  C   UNL     1       6.079  -4.194  23.858  0.00  0.00    +0.031 A 
ATOM     12  N   UNL     1       5.016  -1.006  25.255  0.00  0.00    -0.212 NA
ENDROOT
BRANCH  10  13
ATOM     13  C   UNL     1       4.993  -6.379  23.650  0.00  0.00    +0.245 C 
ATOM     14  O   UNL     1       4.453  -7.256  24.315  0.00  0.00    -0.270 OA
ATOM     15  N   UNL     1       5.630  -6.701  22.489  0.00  0.00    -0.325 N 
ATOM     16  H   UNL     1       5.533  -7.659  22.173  0.00  0.00    +0.145 HD
ATOM     17  H   UNL     1       5.836  -5.985  21.800  0.00  0.00    +0.145 HD
ENDBRANCH  10  13
BRANCH   1  19
ATOM     18  C   UNL     1       7.592   1.670  25.601  0.00  0.00    +0.019 C 
ATOM     19  C   UNL     1       6.136   1.176  25.575  0.00  0.00    +0.022 C 
ATOM     20  C   UNL     1       5.315   2.087  24.638  0.00  0.00    +0.019 C 
ATOM     21  C   UNL     1       5.535   1.308  26.988  0.00  0.00    +0.019 C 
ENDBRANCH   1  19
BRANCH   9  22
ATOM     22  N   UNL     1       2.626  -4.923  24.904  0.00  0.00    -0.342 N 
ATOM     23  H   UNL     1       2.660  -5.419  25.792  0.00  0.00    +0.144 HD
ATOM     24  H   UNL     1       2.496  -5.588  24.139  0.00  0.00    +0.144 HD
ENDBRANCH   9  22
BRANCH   4  25
ATOM     25  C   UNL     1       9.705  -1.899  23.904  0.00  0.00    +0.109 C 
BRANCH  25  26
ATOM     26  C   UNL     1      10.325  -1.341  22.617  0.00  0.00    +0.075 C 
BRANCH  26  27
ATOM     27  C   UNL     1       9.989   0.083  22.373  0.00  0.00    +0.060 A 
ATOM     28  N   UNL     1      10.460   1.070  23.207  0.00  0.00    -0.241 NA
ATOM     29  C   UNL     1      10.026   2.198  22.692  0.00  0.00    +0.196 A 
ATOM     30  N   UNL     1       9.295   1.984  21.560  0.00  0.00    -0.351 N 
ATOM     31  H   UNL     1       8.866   2.694  20.986  0.00  0.00    +0.166 HD
ATOM     32  C   UNL     1       9.267   0.634  21.337  0.00  0.00    +0.107 A 
ENDBRANCH  26  27
ENDBRANCH  25  26
ENDBRANCH   4  25
TORSDOF 6
ENDMDL
MODEL 4
REMARK VINA RESULT:      -6.5      3.066      7.104
REMARK  Name = 
REMARK  9 active torsions:
REMARK  status: ('A' for Active; 'I' for Inactive)
REMARK    1  A    between atoms: C_1  and  C_2
REMARK    2  A    between atoms: C_2  and  C_3
REMARK    3  A    between atoms: C_2  and  C_4
REMARK    4  A    between atoms: C_2  and  C_5
REMARK    5  A    between atoms: C_9  and  N_10
REMARK    6  A    between atoms: C_11  and  C_24
REMARK    7  A    between atoms: N_15  and  C_16
REMARK    8  A    between atoms: C_16  and  C_17
REMARK    9  A    between atoms: C_17  and  C_18
REMARK                            x       y       z     vdW  Elec       q    Type
REMARK                         _______ _______ _______ _____ _____    ______ ____
ROOT
ATOM      1  C   UNL     1       6.225  -0.267  24.908  0.00  0.00    +0.139 A 
ATOM      2  N   UNL     1       7.324  -0.246  24.133  0.00  0.00    -0.216 NA
ATOM      3  C   UNL     1       7.507  -1.259  23.277  0.00  0.00    +0.132 A 
ATOM      4  N   UNL     1       8.603  -1.218  22.389  0.00  0.00    -0.328 N 
ATOM      5  H   UNL     1       8.918  -2.162  22.189  0.00  0.00    +0.147 HD
ATOM      6  C   UNL     1       6.586  -2.309  23.181  0.00  0.00    +0.060 A 
ATOM      7  C   UNL     1       5.504  -2.277  24.054  0.00  0.00    +0.167 A 
ATOM      8  N   UNL     1       4.606  -3.274  24.058  0.00  0.00    -0.212 NA
ATOM      9  C   UNL     1       4.735  -4.326  23.214  0.00  0.00    +0.131 A 
ATOM     10  C   UNL     1       5.785  -4.439  22.310  0.00  0.00    +0.077 A 
ATOM     11  C   UNL     1       6.704  -3.397  22.291  0.00  0.00    +0.031 A 
ATOM     12  N   UNL     1       5.331  -1.269  24.904  0.00  0.00    -0.212 NA
ENDROOT
BRANCH  10  13
ATOM     13  C   UNL     1       6.040  -5.570  21.376  0.00  0.00    +0.245 C 
ATOM     14  O   UNL     1       5.946  -5.423  20.162  0.00  0.00    -0.270 OA
ATOM     15  N   UNL     1       6.422  -6.773  21.888  0.00  0.00    -0.325 N 
ATOM     16  H   UNL     1       6.717  -7.474  21.218  0.00  0.00    +0.145 HD
ATOM     17  H   UNL     1       6.768  -6.841  22.840  0.00  0.00    +0.145 HD
ENDBRANCH  10  13
BRANCH   1  19
ATOM     18  C   UNL     1       7.345   1.697  25.946  0.00  0.00    +0.019 C 
ATOM     19  C   UNL     1       6.049   0.869  25.918  0.00  0.00    +0.022 C 
ATOM     20  C   UNL     1       4.877   1.788  25.516  0.00  0.00    +0.019 C 
ATOM     21  C   UNL     1       5.757   0.344  27.337  0.00  0.00    +0.019 C 
ENDBRANCH   1  19
BRANCH   9  22
ATOM     22  N   UNL     1       3.717  -5.281  23.330  0.00  0.00    -0.342 N 
ATOM     23  H   UNL     1       3.475  -5.643  22.409  0.00  0.00    +0.144 HD
ATOM     24  H   UNL     1       2.918  -4.785  23.728  0.00  0.00    +0.144 HD
ENDBRANCH   9  22
BRANCH   4  25
ATOM     25  C   UNL     1       9.762  -0.437  22.837  0.00  0.00    +0.109 C 
BRANCH  25  26
ATOM     26  C   UNL     1       9.967   0.712  21.841  0.00  0.00    +0.075 C 
BRANCH  26  27
ATOM     27  C   UNL     1       9.120   1.895  22.129  0.00  0.00    +0.060 A 
ATOM     28  N   UNL     1       7.860   2.008  21.589  0.00  0.00    -0.241 NA
ATOM     29  C   UNL     1       7.373   3.128  22.070  0.00  0.00    +0.196 A 
ATOM     30  N   UNL     1       8.262   3.747  22.899  0.00  0.00    -0.351 N 
ATOM     31  H   UNL     1       8.112   4.613  23.392  0.00  0.00    +0.166 HD
ATOM     32  C   UNL     1       9.385   2.967  22.953  0.00  0.00    +0.107 A 
ENDBRANCH  26  27
ENDBRANCH  25  26
ENDBRANCH   4  25
TORSDOF 6
ENDMDL
MODEL 5
REMARK VINA RESULT:      -6.5      3.073      6.203
REMARK  Name = 
REMARK  9 active torsions:
REMARK  status: ('A' for Active; 'I' for Inactive)
REMARK    1  A    between atoms: C_1  and  C_2
REMARK    2  A    between atoms: C_2  and  C_3
REMARK    3  A    between atoms: C_2  and  C_4
REMARK    4  A    between atoms: C_2  and  C_5
REMARK    5  A    between atoms: C_9  and  N_10
REMARK    6  A    between atoms: C_11  and  C_24
REMARK    7  A    between atoms: N_15  and  C_16
REMARK    8  A    between atoms: C_16  and  C_17
REMARK    9  A    between atoms: C_17  and  C_18
REMARK                            x       y       z     vdW  Elec       q    Type
REMARK                         _______ _______ _______ _____ _____    ______ ____
ROOT
ATOM      1  C   UNL     1       7.375   1.896  24.640  0.00  0.00    +0.139 A 
ATOM      2  N   UNL     1       8.180   1.168  23.847  0.00  0.00    -0.216 NA
ATOM      3  C   UNL     1       9.323   1.728  23.430  0.00  0.00    +0.132 A 
ATOM      4  N   UNL     1      10.229   0.958  22.671  0.00  0.00    -0.328 N 
ATOM      5  H   UNL     1      10.738   1.559  22.031  0.00  0.00    +0.147 HD
ATOM      6  C   UNL     1       9.678   3.029  23.807  0.00  0.00    +0.060 A 
ATOM      7  C   UNL     1       8.763   3.728  24.587  0.00  0.00    +0.167 A 
ATOM      8  N   UNL     1       9.008   4.998  24.947  0.00  0.00    -0.212 NA
ATOM      9  C   UNL     1      10.147   5.620  24.558  0.00  0.00    +0.131 A 
ATOM     10  C   UNL     1      11.114   4.997  23.778  0.00  0.00    +0.077 A 
ATOM     11  C   UNL     1      10.871   3.677  23.422  0.00  0.00    +0.031 A 
ATOM     12  N   UNL     1       7.629   3.166  24.995  0.00  0.00    -0.212 NA
ENDROOT
BRANCH  10  13
ATOM     13  C   UNL     1      12.372   5.605  23.263  0.00  0.00    +0.245 C 
ATOM     14  O   UNL     1      13.096   6.276  23.990  0.00  0.00    -0.270 OA
ATOM     15  N   UNL     1      12.735   5.371  21.970  0.00  0.00    -0.325 N 
ATOM     16  H   UNL     1      13.660   5.686  21.699  0.00  0.00    +0.145 HD
ATOM     17  H   UNL     1      12.310   4.614  21.446  0.00  0.00    +0.145 HD
ENDBRANCH  10  13
BRANCH   1  19
ATOM     18  C   UNL     1       5.992  -0.169  24.518  0.00  0.00    +0.019 C 
ATOM     19  C   UNL     1       6.049   1.265  25.072  0.00  0.00    +0.022 C 
ATOM     20  C   UNL     1       5.937   1.212  26.609  0.00  0.00    +0.019 C 
ATOM     21  C   UNL     1       4.833   2.054  24.548  0.00  0.00    +0.019 C 
ENDBRANCH   1  19
BRANCH   9  22
ATOM     22  N   UNL     1      10.265   6.938  25.017  0.00  0.00    -0.342 N 
ATOM     23  H   UNL     1       9.423   7.206  25.523  0.00  0.00    +0.144 HD
ATOM     24  H   UNL     1      10.365   7.514  24.179  0.00  0.00    +0.144 HD
ENDBRANCH   9  22
BRANCH   4  25
ATOM     25  C   UNL     1       9.643  -0.142  21.895  0.00  0.00    +0.109 C 
BRANCH  25  26
ATOM     26  C   UNL     1      10.335  -1.441  22.327  0.00  0.00    +0.075 C 
BRANCH  26  27
ATOM     27  C   UNL     1       9.421  -2.396  23.001  0.00  0.00    +0.060 A 
ATOM     28  N   UNL     1       9.852  -3.147  24.070  0.00  0.00    -0.241 NA
ATOM     29  C   UNL     1       8.806  -3.840  24.454  0.00  0.00    +0.196 A 
ATOM     30  N   UNL     1       7.714  -3.570  23.681  0.00  0.00    -0.351 N 
ATOM     31  H   UNL     1       6.796  -3.973  23.787  0.00  0.00    +0.166 HD
ATOM     32  C   UNL     1       8.090  -2.642  22.749  0.00  0.00    +0.107 A 
ENDBRANCH  26  27
ENDBRANCH  25  26
ENDBRANCH   4  25
TORSDOF 6
ENDMDL
MODEL 6
REMARK VINA RESULT:      -6.5      2.855      6.598
REMARK  Name = 
REMARK  9 active torsions:
REMARK  status: ('A' for Active; 'I' for Inactive)
REMARK    1  A    between atoms: C_1  and  C_2
REMARK    2  A    between atoms: C_2  and  C_3
REMARK    3  A    between atoms: C_2  and  C_4
REMARK    4  A    between atoms: C_2  and  C_5
REMARK    5  A    between atoms: C_9  and  N_10
REMARK    6  A    between atoms: C_11  and  C_24
REMARK    7  A    between atoms: N_15  and  C_16
REMARK    8  A    between atoms: C_16  and  C_17
REMARK    9  A    between atoms: C_17  and  C_18
REMARK                            x       y       z     vdW  Elec       q    Type
REMARK                         _______ _______ _______ _____ _____    ______ ____
ROOT
ATOM      1  C   UNL     1       4.618  -0.907  26.756  0.00  0.00    +0.139 A 
ATOM      2  N   UNL     1       5.185  -0.437  25.631  0.00  0.00    -0.216 NA
ATOM      3  C   UNL     1       6.126  -1.187  25.042  0.00  0.00    +0.132 A 
ATOM      4  N   UNL     1       6.673  -0.762  23.813  0.00  0.00    -0.328 N 
ATOM      5  H   UNL     1       7.634  -1.078  23.739  0.00  0.00    +0.147 HD
ATOM      6  C   UNL     1       6.509  -2.425  25.572  0.00  0.00    +0.060 A 
ATOM      7  C   UNL     1       5.909  -2.810  26.766  0.00  0.00    +0.167 A 
ATOM      8  N   UNL     1       6.261  -3.959  27.363  0.00  0.00    -0.212 NA
ATOM      9  C   UNL     1       7.205  -4.762  26.816  0.00  0.00    +0.131 A 
ATOM     10  C   UNL     1       7.856  -4.454  25.628  0.00  0.00    +0.077 A 
ATOM     11  C   UNL     1       7.478  -3.275  24.998  0.00  0.00    +0.031 A 
ATOM     12  N   UNL     1       4.977  -2.058  27.346  0.00  0.00    -0.212 NA
ENDROOT
BRANCH  10  13
ATOM     13  C   UNL     1       8.934  -5.244  24.971  0.00  0.00    +0.245 C 
ATOM     14  O   UNL     1       8.790  -5.695  23.840  0.00  0.00    -0.270 OA
ATOM     15  N   UNL     1      10.111  -5.428  25.632  0.00  0.00    -0.325 N 
ATOM     16  H   UNL     1      10.864  -5.851  25.100  0.00  0.00    +0.145 HD
ATOM     17  H   UNL     1      10.351  -4.847  26.428  0.00  0.00    +0.145 HD
ENDBRANCH  10  13
BRANCH   1  19
ATOM     18  C   UNL     1       2.207  -0.705  27.337  0.00  0.00    +0.019 C 
ATOM     19  C   UNL     1       3.580  -0.020  27.448  0.00  0.00    +0.022 C 
ATOM     20  C   UNL     1       3.924   0.173  28.939  0.00  0.00    +0.019 C 
ATOM     21  C   UNL     1       3.495   1.380  26.810  0.00  0.00    +0.019 C 
ENDBRANCH   1  19
BRANCH   9  22
ATOM     22  N   UNL     1       7.459  -5.929  27.550  0.00  0.00    -0.342 N 
ATOM     23  H   UNL     1       8.129  -6.512  27.053  0.00  0.00    +0.144 HD
ATOM     24  H   UNL     1       6.561  -6.411  27.619  0.00  0.00    +0.144 HD
ENDBRANCH   9  22
BRANCH   4  25
ATOM     25  C   UNL     1       6.648   0.684  23.566  0.00  0.00    +0.109 C 
BRANCH  25  26
ATOM     26  C   UNL     1       8.099   1.161  23.432  0.00  0.00    +0.075 C 
BRANCH  26  27
ATOM     27  C   UNL     1       8.983   0.174  22.765  0.00  0.00    +0.060 A 
ATOM     28  N   UNL     1       9.658  -0.774  23.497  0.00  0.00    -0.241 NA
ATOM     29  C   UNL     1      10.301  -1.504  22.615  0.00  0.00    +0.196 A 
ATOM     30  N   UNL     1      10.071  -1.071  21.342  0.00  0.00    -0.351 N 
ATOM     31  H   UNL     1      10.447  -1.476  20.499  0.00  0.00    +0.166 HD
ATOM     32  C   UNL     1       9.223   0.000  21.419  0.00  0.00    +0.107 A 
ENDBRANCH  26  27
ENDBRANCH  25  26
ENDBRANCH   4  25
TORSDOF 6
ENDMDL
MODEL 7
REMARK VINA RESULT:      -6.4      3.380      6.253
REMARK  Name = 
REMARK  9 active torsions:
REMARK  status: ('A' for Active; 'I' for Inactive)
REMARK    1  A    between atoms: C_1  and  C_2
REMARK    2  A    between atoms: C_2  and  C_3
REMARK    3  A    between atoms: C_2  and  C_4
REMARK    4  A    between atoms: C_2  and  C_5
REMARK    5  A    between atoms: C_9  and  N_10
REMARK    6  A    between atoms: C_11  and  C_24
REMARK    7  A    between atoms: N_15  and  C_16
REMARK    8  A    between atoms: C_16  and  C_17
REMARK    9  A    between atoms: C_17  and  C_18
REMARK                            x       y       z     vdW  Elec       q    Type
REMARK                         _______ _______ _______ _____ _____    ______ ____
ROOT
ATOM      1  C   UNL     1       8.886  -0.147  24.209  0.00  0.00    +0.139 A 
ATOM      2  N   UNL     1       7.700   0.104  24.790  0.00  0.00    -0.216 NA
ATOM      3  C   UNL     1       7.100  -0.895  25.450  0.00  0.00    +0.132 A 
ATOM      4  N   UNL     1       5.900  -0.637  26.145  0.00  0.00    -0.328 N 
ATOM      5  H   UNL     1       5.323  -1.471  26.153  0.00  0.00    +0.147 HD
ATOM      6  C   UNL     1       7.686  -2.163  25.541  0.00  0.00    +0.060 A 
ATOM      7  C   UNL     1       8.889  -2.350  24.868  0.00  0.00    +0.167 A 
ATOM      8  N   UNL     1       9.486  -3.551  24.865  0.00  0.00    -0.212 NA
ATOM      9  C   UNL     1       8.931  -4.602  25.517  0.00  0.00    +0.131 A 
ATOM     10  C   UNL     1       7.733  -4.505  26.213  0.00  0.00    +0.077 A 
ATOM     11  C   UNL     1       7.124  -3.257  26.234  0.00  0.00    +0.031 A 
ATOM     12  N   UNL     1       9.476  -1.353  24.212  0.00  0.00    -0.212 NA
ENDROOT
BRANCH  10  13
ATOM     13  C   UNL     1       7.021  -5.605  26.920  0.00  0.00    +0.245 C 
ATOM     14  O   UNL     1       7.374  -5.976  28.034  0.00  0.00    -0.270 OA
ATOM     15  N   UNL     1       5.934  -6.174  26.327  0.00  0.00    -0.325 N 
ATOM     16  H   UNL     1       5.398  -6.821  26.895  0.00  0.00    +0.145 HD
ATOM     17  H   UNL     1       5.467  -5.710  25.555  0.00  0.00    +0.145 HD
ENDBRANCH  10  13
BRANCH   1  19
ATOM     18  C   UNL     1       8.588   2.197  23.427  0.00  0.00    +0.019 C 
ATOM     19  C   UNL     1       9.539   0.988  23.415  0.00  0.00    +0.022 C 
ATOM     20  C   UNL     1      10.883   1.401  24.048  0.00  0.00    +0.019 C 
ATOM     21  C   UNL     1       9.822   0.586  21.954  0.00  0.00    +0.019 C 
ENDBRANCH   1  19
BRANCH   9  22
ATOM     22  N   UNL     1       9.674  -5.786  25.430  0.00  0.00    -0.342 N 
ATOM     23  H   UNL     1       9.661  -6.135  24.474  0.00  0.00    +0.144 HD
ATOM     24  H   UNL     1       9.206  -6.451  26.049  0.00  0.00    +0.144 HD
ENDBRANCH   9  22
BRANCH   4  25
ATOM     25  C   UNL     1       5.089   0.474  25.634  0.00  0.00    +0.109 C 
BRANCH  25  26
ATOM     26  C   UNL     1       4.623   1.306  26.835  0.00  0.00    +0.075 C 
BRANCH  26  27
ATOM     27  C   UNL     1       5.702   1.578  27.815  0.00  0.00    +0.060 A 
ATOM     28  N   UNL     1       5.880   0.764  28.910  0.00  0.00    -0.241 NA
ATOM     29  C   UNL     1       6.928   1.247  29.537  0.00  0.00    +0.196 A 
ATOM     30  N   UNL     1       7.438   2.337  28.895  0.00  0.00    -0.351 N 
ATOM     31  H   UNL     1       8.244   2.872  29.181  0.00  0.00    +0.166 HD
ATOM     32  C   UNL     1       6.668   2.559  27.786  0.00  0.00    +0.107 A 
ENDBRANCH  26  27
ENDBRANCH  25  26
ENDBRANCH   4  25
TORSDOF 6
ENDMDL
MODEL 8
REMARK VINA RESULT:      -6.4      2.531      5.629
REMARK  Name = 
REMARK  9 active torsions:
REMARK  status: ('A' for Active; 'I' for Inactive)
REMARK    1  A    between atoms: C_1  and  C_2
REMARK    2  A    between atoms: C_2  and  C_3
REMARK    3  A    between atoms: C_2  and  C_4
REMARK    4  A    between atoms: C_2  and  C_5
REMARK    5  A    between atoms: C_9  and  N_10
REMARK    6  A    between atoms: C_11  and  C_24
REMARK    7  A    between atoms: N_15  and  C_16
REMARK    8  A    between atoms: C_16  and  C_17
REMARK    9  A    between atoms: C_17  and  C_18
REMARK                            x       y       z     vdW  Elec       q    Type
REMARK                         _______ _______ _______ _____ _____    ______ ____
ROOT
ATOM      1  C   UNL     1       8.030  -3.189  25.694  0.00  0.00    +0.139 A 
ATOM      2  N   UNL     1       8.874  -2.590  24.836  0.00  0.00    -0.216 NA
ATOM      3  C   UNL     1       8.911  -1.251  24.824  0.00  0.00    +0.132 A 
ATOM      4  N   UNL     1       9.851  -0.597  24.000  0.00  0.00    -0.328 N 
ATOM      5  H   UNL     1       9.476   0.295  23.695  0.00  0.00    +0.147 HD
ATOM      6  C   UNL     1       8.102  -0.492  25.678  0.00  0.00    +0.060 A 
ATOM      7  C   UNL     1       7.221  -1.191  26.496  0.00  0.00    +0.167 A 
ATOM      8  N   UNL     1       6.377  -0.533  27.305  0.00  0.00    -0.212 NA
ATOM      9  C   UNL     1       6.367   0.822  27.339  0.00  0.00    +0.131 A 
ATOM     10  C   UNL     1       7.211   1.599  26.556  0.00  0.00    +0.077 A 
ATOM     11  C   UNL     1       8.099   0.918  25.733  0.00  0.00    +0.031 A 
ATOM     12  N   UNL     1       7.189  -2.521  26.500  0.00  0.00    -0.212 NA
ENDROOT
BRANCH  10  13
ATOM     13  C   UNL     1       7.247   3.086  26.488  0.00  0.00    +0.245 C 
ATOM     14  O   UNL     1       7.395   3.764  27.499  0.00  0.00    -0.270 OA
ATOM     15  N   UNL     1       7.153   3.692  25.271  0.00  0.00    -0.325 N 
ATOM     16  H   UNL     1       7.317   4.692  25.252  0.00  0.00    +0.145 HD
ATOM     17  H   UNL     1       7.306   3.162  24.419  0.00  0.00    +0.145 HD
ENDBRANCH  10  13
BRANCH   1  19
ATOM     18  C   UNL     1       6.931  -5.137  24.601  0.00  0.00    +0.019 C 
ATOM     19  C   UNL     1       7.960  -4.718  25.666  0.00  0.00    +0.022 C 
ATOM     20  C   UNL     1       9.331  -5.327  25.304  0.00  0.00    +0.019 C 
ATOM     21  C   UNL     1       7.540  -5.305  27.028  0.00  0.00    +0.019 C 
ENDBRANCH   1  19
BRANCH   9  22
ATOM     22  N   UNL     1       5.438   1.364  28.237  0.00  0.00    -0.342 N 
ATOM     23  H   UNL     1       4.932   0.616  28.707  0.00  0.00    +0.144 HD
ATOM     24  H   UNL     1       4.794   1.915  27.667  0.00  0.00    +0.144 HD
ENDBRANCH   9  22
BRANCH   4  25
ATOM     25  C   UNL     1      10.286  -1.339  22.811  0.00  0.00    +0.109 C 
BRANCH  25  26
ATOM     26  C   UNL     1       9.676  -0.654  21.582  0.00  0.00    +0.075 C 
BRANCH  26  27
ATOM     27  C   UNL     1       9.276   0.752  21.831  0.00  0.00    +0.060 A 
ATOM     28  N   UNL     1       7.953   1.089  21.999  0.00  0.00    -0.241 NA
ATOM     29  C   UNL     1       7.949   2.379  22.243  0.00  0.00    +0.196 A 
ATOM     30  N   UNL     1       9.213   2.894  22.241  0.00  0.00    -0.351 N 
ATOM     31  H   UNL     1       9.464   3.855  22.411  0.00  0.00    +0.166 HD
ATOM     32  C   UNL     1      10.076   1.863  21.986  0.00  0.00    +0.107 A 
ENDBRANCH  26  27
ENDBRANCH  25  26
ENDBRANCH   4  25
TORSDOF 6
ENDMDL
MODEL 9
REMARK VINA RESULT:      -6.4      2.367      5.048
REMARK  Name = 
REMARK  9 active torsions:
REMARK  status: ('A' for Active; 'I' for Inactive)
REMARK    1  A    between atoms: C_1  and  C_2
REMARK    2  A    between atoms: C_2  and  C_3
REMARK    3  A    between atoms: C_2  and  C_4
REMARK    4  A    between atoms: C_2  and  C_5
REMARK    5  A    between atoms: C_9  and  N_10
REMARK    6  A    between atoms: C_11  and  C_24
REMARK    7  A    between atoms: N_15  and  C_16
REMARK    8  A    between atoms: C_16  and  C_17
REMARK    9  A    between atoms: C_17  and  C_18
REMARK                            x       y       z     vdW  Elec       q    Type
REMARK                         _______ _______ _______ _____ _____    ______ ____
ROOT
ATOM      1  C   UNL     1       5.729  -2.497  24.660  0.00  0.00    +0.139 A 
ATOM      2  N   UNL     1       7.063  -2.493  24.486  0.00  0.00    -0.216 NA
ATOM      3  C   UNL     1       7.721  -1.350  24.713  0.00  0.00    +0.132 A 
ATOM      4  N   UNL     1       9.129  -1.339  24.627  0.00  0.00    -0.328 N 
ATOM      5  H   UNL     1       9.447  -0.425  24.321  0.00  0.00    +0.147 HD
ATOM      6  C   UNL     1       7.050  -0.191  25.124  0.00  0.00    +0.060 A 
ATOM      7  C   UNL     1       5.666  -0.270  25.230  0.00  0.00    +0.167 A 
ATOM      8  N   UNL     1       4.948   0.811  25.568  0.00  0.00    -0.212 NA
ATOM      9  C   UNL     1       5.556   1.997  25.812  0.00  0.00    +0.131 A 
ATOM     10  C   UNL     1       6.932   2.166  25.729  0.00  0.00    +0.077 A 
ATOM     11  C   UNL     1       7.679   1.042  25.399  0.00  0.00    +0.031 A 
ATOM     12  N   UNL     1       5.019  -1.410  24.999  0.00  0.00    -0.212 NA
ENDROOT
BRANCH  10  13
ATOM     13  C   UNL     1       7.690   3.432  25.933  0.00  0.00    +0.245 C 
ATOM     14  O   UNL     1       7.577   4.078  26.969  0.00  0.00    -0.270 OA
ATOM     15  N   UNL     1       8.550   3.848  24.962  0.00  0.00    -0.325 N 
ATOM     16  H   UNL     1       9.145   4.636  25.195  0.00  0.00    +0.145 HD
ATOM     17  H   UNL     1       8.861   3.207  24.240  0.00  0.00    +0.145 HD
ENDBRANCH  10  13
BRANCH   1  19
ATOM     18  C   UNL     1       5.681  -4.948  25.091  0.00  0.00    +0.019 C 
ATOM     19  C   UNL     1       4.980  -3.796  24.351  0.00  0.00    +0.022 C 
ATOM     20  C   UNL     1       3.514  -3.714  24.825  0.00  0.00    +0.019 C 
ATOM     21  C   UNL     1       4.959  -4.108  22.841  0.00  0.00    +0.019 C 
ENDBRANCH   1  19
BRANCH   9  22
ATOM     22  N   UNL     1       4.676   3.030  26.161  0.00  0.00    -0.342 N 
ATOM     23  H   UNL     1       4.743   3.220  27.159  0.00  0.00    +0.144 HD
ATOM     24  H   UNL     1       3.742   2.684  25.935  0.00  0.00    +0.144 HD
ENDBRANCH   9  22
BRANCH   4  25
ATOM     25  C   UNL     1       9.725  -2.347  23.743  0.00  0.00    +0.109 C 
BRANCH  25  26
ATOM     26  C   UNL     1      10.609  -1.616  22.726  0.00  0.00    +0.075 C 
BRANCH  26  27
ATOM     27  C   UNL     1      10.045  -0.317  22.284  0.00  0.00    +0.060 A 
ATOM     28  N   UNL     1      10.369   0.850  22.937  0.00  0.00    -0.241 NA
ATOM     29  C   UNL     1       9.749   1.802  22.278  0.00  0.00    +0.196 A 
ATOM     30  N   UNL     1       9.039   1.303  21.226  0.00  0.00    -0.351 N 
ATOM     31  H   UNL     1       8.490   1.839  20.571  0.00  0.00    +0.166 HD
ATOM     32  C   UNL     1       9.222  -0.053  21.211  0.00  0.00    +0.107 A 
ENDBRANCH  26  27
ENDBRANCH  25  26
ENDBRANCH   4  25
TORSDOF 6
ENDMDL
