MODEL 1
REMARK VINA RESULT:      -6.9      0.000      0.000
REMARK  Name = 
REMARK  8 active torsions:
REMARK  status: ('A' for Active; 'I' for Inactive)
REMARK    1  A    between atoms: C_1  and  N_2
REMARK    2  A    between atoms: N_2  and  C_3
REMARK    3  A    between atoms: N_2  and  C_12
REMARK    4  A    between atoms: C_3  and  C_4
REMARK    5  A    between atoms: C_12  and  C_13
REMARK    6  A    between atoms: C_19  and  N_20
REMARK    7  A    between atoms: C_21  and  O_22
REMARK    8  A    between atoms: C_21  and  C_23
REMARK                            x       y       z     vdW  Elec       q    Type
REMARK                         _______ _______ _______ _____ _____    ______ ____
ROOT
ATOM      1  C   UNL     1       7.848   1.030  23.739  0.00  0.00    +0.010 A 
ATOM      2  C   UNL     1       8.038   0.032  22.751  0.00  0.00    +0.073 A 
ATOM      3  C   UNL     1       9.067   0.199  21.804  0.00  0.00    +0.028 A 
ATOM      4  C   UNL     1       9.962   1.262  21.877  0.00  0.00    +0.004 A 
ATOM      5  C   UNL     1       9.794   2.231  22.857  0.00  0.00    +0.020 A 
ATOM      6  C   UNL     1       8.738   2.128  23.769  0.00  0.00    +0.047 A 
ATOM      7 CL   UNL     1       8.602   3.409  24.927  0.00  0.00    -0.083 Cl
ENDROOT
BRANCH   2   8
ATOM      8  N   UNL     1       7.165  -1.078  22.663  0.00  0.00    -0.213 NA
ATOM      9  C   UNL     1       7.551  -2.311  22.777  0.00  0.00    +0.220 C 
BRANCH   9  10
ATOM     10  C   UNL     1       6.656  -3.494  22.666  0.00  0.00    +0.036 A 
ATOM     11  C   UNL     1       7.161  -4.751  22.283  0.00  0.00    +0.013 A 
ATOM     12  C   UNL     1       6.336  -5.877  22.281  0.00  0.00    +0.001 A 
ATOM     13  C   UNL     1       4.997  -5.759  22.648  0.00  0.00    +0.000 A 
ATOM     14  C   UNL     1       4.477  -4.509  22.991  0.00  0.00    +0.001 A 
ATOM     15  C   UNL     1       5.303  -3.380  22.999  0.00  0.00    +0.013 A 
ENDBRANCH   9  10
BRANCH   9  16
ATOM     16  O   UNL     1       8.808  -2.700  23.077  0.00  0.00    -0.492 OA
ATOM     17  H   UNL     1       9.226  -2.093  23.703  0.00  0.00    +0.294 HD
ENDBRANCH   9  16
ENDBRANCH   2   8
BRANCH   1  18
ATOM     18  C   UNL     1       6.720   0.918  24.753  0.00  0.00    +0.123 C 
BRANCH  18  20
ATOM     19  C   UNL     1       6.509   1.414  27.121  0.00  0.00    +0.105 C 
ATOM     20  N   UNL     1       7.137   0.539  26.125  0.00  0.00    -0.293 NA
BRANCH  20  21
ATOM     21  C   UNL     1       6.798  -0.888  26.360  0.00  0.00    +0.180 C 
BRANCH  21  22
ATOM     22  C   UNL     1       7.992  -1.865  26.252  0.00  0.00    +0.230 C 
ATOM     23  N   UNL     1       7.758  -3.178  26.660  0.00  0.00    -0.296 N 
ATOM     24  C   UNL     1       8.834  -4.168  26.573  0.00  0.00    +0.136 C 
ATOM     25  C   UNL     1       8.396  -5.348  25.700  0.00  0.00    +0.179 C 
ATOM     26  O   UNL     1       7.178  -5.931  26.200  0.00  0.00    -0.377 OA
ATOM     27  C   UNL     1       6.119  -4.963  26.219  0.00  0.00    +0.179 C 
ATOM     28  C   UNL     1       6.478  -3.748  27.087  0.00  0.00    +0.136 C 
ATOM     29  O   UNL     1       9.101  -1.530  25.831  0.00  0.00    -0.274 OA
ENDBRANCH  21  22
ENDBRANCH  20  21
ENDBRANCH  18  20
ENDBRANCH   1  18
TORSDOF 7
ENDMDL
MODEL 2
REMARK VINA RESULT:      -6.3      3.285      6.294
REMARK  Name = 
REMARK  8 active torsions:
REMARK  status: ('A' for Active; 'I' for Inactive)
REMARK    1  A    between atoms: C_1  and  N_2
REMARK    2  A    between atoms: N_2  and  C_3
REMARK    3  A    between atoms: N_2  and  C_12
REMARK    4  A    between atoms: C_3  and  C_4
REMARK    5  A    between atoms: C_12  and  C_13
REMARK    6  A    between atoms: C_19  and  N_20
REMARK    7  A    between atoms: C_21  and  O_22
REMARK    8  A    between atoms: C_21  and  C_23
REMARK                            x       y       z     vdW  Elec       q    Type
REMARK                         _______ _______ _______ _____ _____    ______ ____
ROOT
ATOM      1  C   UNL     1       6.405  -4.973  24.024  0.00  0.00    +0.010 A 
ATOM      2  C   UNL     1       7.200  -4.384  23.009  0.00  0.00    +0.073 A 
ATOM      3  C   UNL     1       7.087  -4.867  21.691  0.00  0.00    +0.028 A 
ATOM      4  C   UNL     1       6.147  -5.832  21.343  0.00  0.00    +0.004 A 
ATOM      5  C   UNL     1       5.351  -6.398  22.331  0.00  0.00    +0.020 A 
ATOM      6  C   UNL     1       5.489  -5.987  23.661  0.00  0.00    +0.047 A 
ATOM      7 CL   UNL     1       4.471  -6.782  24.815  0.00  0.00    -0.083 Cl
ENDROOT
BRANCH   2   8
ATOM      8  N   UNL     1       8.147  -3.380  23.320  0.00  0.00    -0.213 NA
ATOM      9  C   UNL     1       7.930  -2.110  23.163  0.00  0.00    +0.220 C 
BRANCH   9  10
ATOM     10  C   UNL     1       8.917  -1.038  23.461  0.00  0.00    +0.036 A 
ATOM     11  C   UNL     1       9.299  -0.110  22.475  0.00  0.00    +0.013 A 
ATOM     12  C   UNL     1      10.146   0.953  22.790  0.00  0.00    +0.001 A 
ATOM     13  C   UNL     1      10.632   1.095  24.088  0.00  0.00    +0.000 A 
ATOM     14  C   UNL     1      10.291   0.156  25.065  0.00  0.00    +0.001 A 
ATOM     15  C   UNL     1       9.437  -0.908  24.753  0.00  0.00    +0.013 A 
ENDBRANCH   9  10
BRANCH   9  16
ATOM     16  O   UNL     1       6.757  -1.572  22.769  0.00  0.00    -0.492 OA
ATOM     17  H   UNL     1       6.895  -0.816  22.181  0.00  0.00    +0.294 HD
ENDBRANCH   9  16
ENDBRANCH   2   8
BRANCH   1  18
ATOM     18  C   UNL     1       6.527  -4.520  25.470  0.00  0.00    +0.123 C 
BRANCH  18  20
ATOM     19  C   UNL     1       8.641  -5.337  26.344  0.00  0.00    +0.105 C 
ATOM     20  N   UNL     1       7.182  -5.487  26.384  0.00  0.00    -0.293 NA
BRANCH  20  21
ATOM     21  C   UNL     1       6.650  -5.295  27.759  0.00  0.00    +0.180 C 
BRANCH  21  22
ATOM     22  C   UNL     1       5.582  -6.326  28.191  0.00  0.00    +0.230 C 
ATOM     23  N   UNL     1       4.276  -5.854  28.308  0.00  0.00    -0.296 N 
ATOM     24  C   UNL     1       3.203  -6.773  28.698  0.00  0.00    +0.136 C 
ATOM     25  C   UNL     1       2.109  -6.793  27.626  0.00  0.00    +0.179 C 
ATOM     26  O   UNL     1       1.607  -5.465  27.383  0.00  0.00    -0.377 OA
ATOM     27  C   UNL     1       2.660  -4.594  26.942  0.00  0.00    +0.179 C 
ATOM     28  C   UNL     1       3.795  -4.511  27.972  0.00  0.00    +0.136 C 
ATOM     29  O   UNL     1       5.843  -7.509  28.426  0.00  0.00    -0.274 OA
ENDBRANCH  21  22
ENDBRANCH  20  21
ENDBRANCH  18  20
ENDBRANCH   1  18
TORSDOF 7
ENDMDL
MODEL 3
REMARK VINA RESULT:      -5.9      2.656      5.849
REMARK  Name = 
REMARK  8 active torsions:
REMARK  status: ('A' for Active; 'I' for Inactive)
REMARK    1  A    between atoms: C_1  and  N_2
REMARK    2  A    between atoms: N_2  and  C_3
REMARK    3  A    between atoms: N_2  and  C_12
REMARK    4  A    between atoms: C_3  and  C_4
REMARK    5  A    between atoms: C_12  and  C_13
REMARK    6  A    between atoms: C_19  and  N_20
REMARK    7  A    between atoms: C_21  and  O_22
REMARK    8  A    between atoms: C_21  and  C_23
REMARK                            x       y       z     vdW  Elec       q    Type
REMARK                         _______ _______ _______ _____ _____    ______ ____
ROOT
ATOM      1  C   UNL     1       7.902  -0.033  23.544  0.00  0.00    +0.010 A 
ATOM      2  C   UNL     1       9.127   0.666  23.397  0.00  0.00    +0.073 A 
ATOM      3  C   UNL     1      10.163   0.072  22.652  0.00  0.00    +0.028 A 
ATOM      4  C   UNL     1       9.981  -1.130  21.974  0.00  0.00    +0.004 A 
ATOM      5  C   UNL     1       8.775  -1.808  22.097  0.00  0.00    +0.020 A 
ATOM      6  C   UNL     1       7.752  -1.276  22.888  0.00  0.00    +0.047 A 
ATOM      7 CL   UNL     1       6.303  -2.220  22.999  0.00  0.00    -0.083 Cl
ENDROOT
BRANCH   2   8
ATOM      8  N   UNL     1       9.339   1.904  24.048  0.00  0.00    -0.213 NA
ATOM      9  C   UNL     1       9.174   3.057  23.477  0.00  0.00    +0.220 C 
BRANCH   9  10
ATOM     10  C   UNL     1       9.412   4.371  24.134  0.00  0.00    +0.036 A 
ATOM     11  C   UNL     1       8.599   4.807  25.196  0.00  0.00    +0.013 A 
ATOM     12  C   UNL     1       8.891   5.991  25.874  0.00  0.00    +0.001 A 
ATOM     13  C   UNL     1       9.988   6.760  25.491  0.00  0.00    +0.000 A 
ATOM     14  C   UNL     1      10.778   6.356  24.412  0.00  0.00    +0.001 A 
ATOM     15  C   UNL     1      10.491   5.166  23.734  0.00  0.00    +0.013 A 
ENDBRANCH   9  10
BRANCH   9  16
ATOM     16  O   UNL     1       8.702   3.237  22.226  0.00  0.00    -0.492 OA
ATOM     17  H   UNL     1       9.414   3.452  21.607  0.00  0.00    +0.294 HD
ENDBRANCH   9  16
ENDBRANCH   2   8
BRANCH   1  18
ATOM     18  C   UNL     1       6.771   0.545  24.380  0.00  0.00    +0.123 C 
BRANCH  18  20
ATOM     19  C   UNL     1       6.402   1.748  26.458  0.00  0.00    +0.105 C 
ATOM     20  N   UNL     1       7.011   0.562  25.844  0.00  0.00    -0.293 NA
BRANCH  20  21
ATOM     21  C   UNL     1       6.483  -0.693  26.439  0.00  0.00    +0.180 C 
BRANCH  21  22
ATOM     22  C   UNL     1       7.511  -1.845  26.539  0.00  0.00    +0.230 C 
ATOM     23  N   UNL     1       6.989  -3.133  26.652  0.00  0.00    -0.296 N 
ATOM     24  C   UNL     1       7.897  -4.280  26.735  0.00  0.00    +0.136 C 
ATOM     25  C   UNL     1       7.607  -5.267  25.600  0.00  0.00    +0.179 C 
ATOM     26  O   UNL     1       6.227  -5.680  25.621  0.00  0.00    -0.377 OA
ATOM     27  C   UNL     1       5.353  -4.550  25.475  0.00  0.00    +0.179 C 
ATOM     28  C   UNL     1       5.576  -3.515  26.587  0.00  0.00    +0.136 C 
ATOM     29  O   UNL     1       8.730  -1.664  26.523  0.00  0.00    -0.274 OA
ENDBRANCH  21  22
ENDBRANCH  20  21
ENDBRANCH  18  20
ENDBRANCH   1  18
TORSDOF 7
ENDMDL
MODEL 4
REMARK VINA RESULT:      -5.9      2.820      6.261
REMARK  Name = 
REMARK  8 active torsions:
REMARK  status: ('A' for Active; 'I' for Inactive)
REMARK    1  A    between atoms: C_1  and  N_2
REMARK    2  A    between atoms: N_2  and  C_3
REMARK    3  A    between atoms: N_2  and  C_12
REMARK    4  A    between atoms: C_3  and  C_4
REMARK    5  A    between atoms: C_12  and  C_13
REMARK    6  A    between atoms: C_19  and  N_20
REMARK    7  A    between atoms: C_21  and  O_22
REMARK    8  A    between atoms: C_21  and  C_23
REMARK                            x       y       z     vdW  Elec       q    Type
REMARK                         _______ _______ _______ _____ _____    ______ ____
ROOT
ATOM      1  C   UNL     1       6.765  -4.434  24.286  0.00  0.00    +0.010 A 
ATOM      2  C   UNL     1       7.356  -3.887  23.119  0.00  0.00    +0.073 A 
ATOM      3  C   UNL     1       7.148  -4.531  21.885  0.00  0.00    +0.028 A 
ATOM      4  C   UNL     1       6.298  -5.627  21.766  0.00  0.00    +0.004 A 
ATOM      5  C   UNL     1       5.700  -6.154  22.903  0.00  0.00    +0.020 A 
ATOM      6  C   UNL     1       5.943  -5.577  24.153  0.00  0.00    +0.047 A 
ATOM      7 CL   UNL     1       5.173  -6.335  25.507  0.00  0.00    -0.083 Cl
ENDROOT
BRANCH   2   8
ATOM      8  N   UNL     1       8.203  -2.756  23.197  0.00  0.00    -0.213 NA
ATOM      9  C   UNL     1       7.821  -1.548  22.921  0.00  0.00    +0.220 C 
BRANCH   9  10
ATOM     10  C   UNL     1       8.699  -0.348  22.974  0.00  0.00    +0.036 A 
ATOM     11  C   UNL     1       9.078   0.324  21.798  0.00  0.00    +0.013 A 
ATOM     12  C   UNL     1       9.816   1.507  21.862  0.00  0.00    +0.001 A 
ATOM     13  C   UNL     1      10.195   2.025  23.099  0.00  0.00    +0.000 A 
ATOM     14  C   UNL     1       9.858   1.344  24.271  0.00  0.00    +0.001 A 
ATOM     15  C   UNL     1       9.113   0.160  24.209  0.00  0.00    +0.013 A 
ENDBRANCH   9  10
BRANCH   9  16
ATOM     16  O   UNL     1       6.558  -1.192  22.609  0.00  0.00    -0.492 OA
ATOM     17  H   UNL     1       5.989  -1.966  22.499  0.00  0.00    +0.294 HD
ENDBRANCH   9  16
ENDBRANCH   2   8
BRANCH   1  18
ATOM     18  C   UNL     1       7.001  -3.802  25.649  0.00  0.00    +0.123 C 
BRANCH  18  20
ATOM     19  C   UNL     1       5.259  -3.377  27.288  0.00  0.00    +0.105 C 
ATOM     20  N   UNL     1       5.948  -2.860  26.100  0.00  0.00    -0.293 NA
BRANCH  20  21
ATOM     21  C   UNL     1       6.562  -1.532  26.360  0.00  0.00    +0.180 C 
BRANCH  21  22
ATOM     22  C   UNL     1       5.662  -0.323  26.014  0.00  0.00    +0.230 C 
ATOM     23  N   UNL     1       5.253   0.472  27.084  0.00  0.00    -0.296 N 
ATOM     24  C   UNL     1       4.412   1.646  26.837  0.00  0.00    +0.136 C 
ATOM     25  C   UNL     1       5.096   2.907  27.373  0.00  0.00    +0.179 C 
ATOM     26  O   UNL     1       5.410   2.764  28.771  0.00  0.00    -0.377 OA
ATOM     27  C   UNL     1       6.286   1.647  28.987  0.00  0.00    +0.179 C 
ATOM     28  C   UNL     1       5.664   0.336  28.484  0.00  0.00    +0.136 C 
ATOM     29  O   UNL     1       5.311  -0.050  24.864  0.00  0.00    -0.274 OA
ENDBRANCH  21  22
ENDBRANCH  20  21
ENDBRANCH  18  20
ENDBRANCH   1  18
TORSDOF 7
ENDMDL
MODEL 5
REMARK VINA RESULT:      -5.9      2.762      6.519
REMARK  Name = 
REMARK  8 active torsions:
REMARK  status: ('A' for Active; 'I' for Inactive)
REMARK    1  A    between atoms: C_1  and  N_2
REMARK    2  A    between atoms: N_2  and  C_3
REMARK    3  A    between atoms: N_2  and  C_12
REMARK    4  A    between atoms: C_3  and  C_4
REMARK    5  A    between atoms: C_12  and  C_13
REMARK    6  A    between atoms: C_19  and  N_20
REMARK    7  A    between atoms: C_21  and  O_22
REMARK    8  A    between atoms: C_21  and  C_23
REMARK                            x       y       z     vdW  Elec       q    Type
REMARK                         _______ _______ _______ _____ _____    ______ ____
ROOT
ATOM      1  C   UNL     1       7.494   0.671  25.243  0.00  0.00    +0.010 A 
ATOM      2  C   UNL     1       7.407   2.086  25.269  0.00  0.00    +0.073 A 
ATOM      3  C   UNL     1       6.136   2.688  25.342  0.00  0.00    +0.028 A 
ATOM      4  C   UNL     1       4.976   1.933  25.493  0.00  0.00    +0.004 A 
ATOM      5  C   UNL     1       5.058   0.547  25.490  0.00  0.00    +0.020 A 
ATOM      6  C   UNL     1       6.301  -0.080  25.348  0.00  0.00    +0.047 A 
ATOM      7 CL   UNL     1       6.283  -1.812  25.324  0.00  0.00    -0.083 Cl
ENDROOT
BRANCH   2   8
ATOM      8  N   UNL     1       8.567   2.887  25.146  0.00  0.00    -0.213 NA
ATOM      9  C   UNL     1       8.866   3.566  24.082  0.00  0.00    +0.220 C 
BRANCH   9  10
ATOM     10  C   UNL     1      10.090   4.397  23.922  0.00  0.00    +0.036 A 
ATOM     11  C   UNL     1      10.144   5.710  24.424  0.00  0.00    +0.013 A 
ATOM     12  C   UNL     1      11.328   6.446  24.361  0.00  0.00    +0.001 A 
ATOM     13  C   UNL     1      12.466   5.885  23.786  0.00  0.00    +0.000 A 
ATOM     14  C   UNL     1      12.412   4.596  23.248  0.00  0.00    +0.001 A 
ATOM     15  C   UNL     1      11.227   3.855  23.315  0.00  0.00    +0.013 A 
ENDBRANCH   9  10
BRANCH   9  16
ATOM     16  O   UNL     1       8.081   3.672  22.990  0.00  0.00    -0.492 OA
ATOM     17  H   UNL     1       8.520   4.168  22.286  0.00  0.00    +0.294 HD
ENDBRANCH   9  16
ENDBRANCH   2   8
BRANCH   1  18
ATOM     18  C   UNL     1       8.840  -0.024  25.115  0.00  0.00    +0.123 C 
BRANCH  18  20
ATOM     19  C   UNL     1      10.144   0.393  23.109  0.00  0.00    +0.105 C 
ATOM     20  N   UNL     1       9.178  -0.504  23.753  0.00  0.00    -0.293 NA
BRANCH  20  21
ATOM     21  C   UNL     1       9.697  -1.894  23.841  0.00  0.00    +0.180 C 
BRANCH  21  22
ATOM     22  C   UNL     1       8.696  -2.989  23.405  0.00  0.00    +0.230 C 
ATOM     23  N   UNL     1       8.615  -4.116  24.221  0.00  0.00    -0.296 N 
ATOM     24  C   UNL     1       7.678  -5.192  23.885  0.00  0.00    +0.136 C 
ATOM     25  C   UNL     1       6.709  -5.430  25.047  0.00  0.00    +0.179 C 
ATOM     26  O   UNL     1       7.426  -5.713  26.262  0.00  0.00    -0.377 OA
ATOM     27  C   UNL     1       8.292  -4.622  26.610  0.00  0.00    +0.179 C 
ATOM     28  C   UNL     1       9.307  -4.327  25.496  0.00  0.00    +0.136 C 
ATOM     29  O   UNL     1       7.994  -2.897  22.395  0.00  0.00    -0.274 OA
ENDBRANCH  21  22
ENDBRANCH  20  21
ENDBRANCH  18  20
ENDBRANCH   1  18
TORSDOF 7
ENDMDL
MODEL 6
REMARK VINA RESULT:      -5.8      2.423      4.770
REMARK  Name = 
REMARK  8 active torsions:
REMARK  status: ('A' for Active; 'I' for Inactive)
REMARK    1  A    between atoms: C_1  and  N_2
REMARK    2  A    between atoms: N_2  and  C_3
REMARK    3  A    between atoms: N_2  and  C_12
REMARK    4  A    between atoms: C_3  and  C_4
REMARK    5  A    between atoms: C_12  and  C_13
REMARK    6  A    between atoms: C_19  and  N_20
REMARK    7  A    between atoms: C_21  and  O_22
REMARK    8  A    between atoms: C_21  and  C_23
REMARK                            x       y       z     vdW  Elec       q    Type
REMARK                         _______ _______ _______ _____ _____    ______ ____
ROOT
ATOM      1  C   UNL     1       8.883  -1.195  24.242  0.00  0.00    +0.010 A 
ATOM      2  C   UNL     1       8.299  -2.096  23.318  0.00  0.00    +0.073 A 
ATOM      3  C   UNL     1       8.675  -2.020  21.963  0.00  0.00    +0.028 A 
ATOM      4  C   UNL     1       9.677  -1.156  21.530  0.00  0.00    +0.004 A 
ATOM      5  C   UNL     1      10.268  -0.286  22.436  0.00  0.00    +0.020 A 
ATOM      6  C   UNL     1       9.864  -0.290  23.775  0.00  0.00    +0.047 A 
ATOM      7 CL   UNL     1      10.643   0.859  24.811  0.00  0.00    -0.083 Cl
ENDROOT
BRANCH   2   8
ATOM      8  N   UNL     1       7.298  -3.008  23.727  0.00  0.00    -0.213 NA
ATOM      9  C   UNL     1       7.540  -4.232  24.086  0.00  0.00    +0.220 C 
BRANCH   9  10
ATOM     10  C   UNL     1       6.502  -5.215  24.499  0.00  0.00    +0.036 A 
ATOM     11  C   UNL     1       6.325  -5.555  25.853  0.00  0.00    +0.013 A 
ATOM     12  C   UNL     1       5.284  -6.398  26.243  0.00  0.00    +0.001 A 
ATOM     13  C   UNL     1       4.418  -6.923  25.285  0.00  0.00    +0.000 A 
ATOM     14  C   UNL     1       4.610  -6.625  23.934  0.00  0.00    +0.001 A 
ATOM     15  C   UNL     1       5.650  -5.774  23.541  0.00  0.00    +0.013 A 
ENDBRANCH   9  10
BRANCH   9  16
ATOM     16  O   UNL     1       8.770  -4.772  24.200  0.00  0.00    -0.492 OA
ATOM     17  H   UNL     1       9.257  -4.723  23.365  0.00  0.00    +0.294 HD
ENDBRANCH   9  16
ENDBRANCH   2   8
BRANCH   1  18
ATOM     18  C   UNL     1       8.473  -1.205  25.706  0.00  0.00    +0.123 C 
BRANCH  18  20
ATOM     19  C   UNL     1       6.545  -1.458  27.163  0.00  0.00    +0.105 C 
ATOM     20  N   UNL     1       7.078  -0.779  25.976  0.00  0.00    -0.293 NA
BRANCH  20  21
ATOM     21  C   UNL     1       7.041   0.699  26.129  0.00  0.00    +0.180 C 
BRANCH  21  22
ATOM     22  C   UNL     1       6.027   1.421  25.212  0.00  0.00    +0.230 C 
ATOM     23  N   UNL     1       6.493   2.550  24.541  0.00  0.00    -0.296 N 
ATOM     24  C   UNL     1       5.598   3.282  23.640  0.00  0.00    +0.136 C 
ATOM     25  C   UNL     1       6.200   3.343  22.233  0.00  0.00    +0.179 C 
ATOM     26  O   UNL     1       7.515   3.929  22.264  0.00  0.00    -0.377 OA
ATOM     27  C   UNL     1       8.396   3.165  23.102  0.00  0.00    +0.179 C 
ATOM     28  C   UNL     1       7.865   3.066  24.539  0.00  0.00    +0.136 C 
ATOM     29  O   UNL     1       4.863   1.041  25.062  0.00  0.00    -0.274 OA
ENDBRANCH  21  22
ENDBRANCH  20  21
ENDBRANCH  18  20
ENDBRANCH   1  18
TORSDOF 7
ENDMDL
MODEL 7
REMARK VINA RESULT:      -5.8      3.008      6.185
REMARK  Name = 
REMARK  8 active torsions:
REMARK  status: ('A' for Active; 'I' for Inactive)
REMARK    1  A    between atoms: C_1  and  N_2
REMARK    2  A    between atoms: N_2  and  C_3
REMARK    3  A    between atoms: N_2  and  C_12
REMARK    4  A    between atoms: C_3  and  C_4
REMARK    5  A    between atoms: C_12  and  C_13
REMARK    6  A    between atoms: C_19  and  N_20
REMARK    7  A    between atoms: C_21  and  O_22
REMARK    8  A    between atoms: C_21  and  C_23
REMARK                            x       y       z     vdW  Elec       q    Type
REMARK                         _______ _______ _______ _____ _____    ______ ____
ROOT
ATOM      1  C   UNL     1       9.277  -0.178  23.922  0.00  0.00    +0.010 A 
ATOM      2  C   UNL     1       9.015   0.978  23.145  0.00  0.00    +0.073 A 
ATOM      3  C   UNL     1       9.088   0.886  21.742  0.00  0.00    +0.028 A 
ATOM      4  C   UNL     1       9.310  -0.329  21.099  0.00  0.00    +0.004 A 
ATOM      5  C   UNL     1       9.546  -1.468  21.856  0.00  0.00    +0.020 A 
ATOM      6  C   UNL     1       9.549  -1.393  23.252  0.00  0.00    +0.047 A 
ATOM      7 CL   UNL     1       9.888  -2.868  24.096  0.00  0.00    -0.083 Cl
ENDROOT
BRANCH   2   8
ATOM      8  N   UNL     1       8.757   2.225  23.763  0.00  0.00    -0.213 NA
ATOM      9  C   UNL     1       9.574   3.232  23.723  0.00  0.00    +0.220 C 
BRANCH   9  10
ATOM     10  C   UNL     1       9.335   4.545  24.383  0.00  0.00    +0.036 A 
ATOM     11  C   UNL     1       8.389   4.673  25.416  0.00  0.00    +0.013 A 
ATOM     12  C   UNL     1       8.243   5.881  26.100  0.00  0.00    +0.001 A 
ATOM     13  C   UNL     1       9.030   6.977  25.751  0.00  0.00    +0.000 A 
ATOM     14  C   UNL     1       9.944   6.871  24.700  0.00  0.00    +0.001 A 
ATOM     15  C   UNL     1      10.096   5.659  24.017  0.00  0.00    +0.013 A 
ENDBRANCH   9  10
BRANCH   9  16
ATOM     16  O   UNL     1      10.727   3.262  23.024  0.00  0.00    -0.492 OA
ATOM     17  H   UNL     1      10.881   4.132  22.632  0.00  0.00    +0.294 HD
ENDBRANCH   9  16
ENDBRANCH   2   8
BRANCH   1  18
ATOM     18  C   UNL     1       9.258  -0.116  25.441  0.00  0.00    +0.123 C 
BRANCH  18  20
ATOM     19  C   UNL     1       7.398   0.865  26.656  0.00  0.00    +0.105 C 
ATOM     20  N   UNL     1       7.938  -0.367  26.069  0.00  0.00    -0.293 NA
BRANCH  20  21
ATOM     21  C   UNL     1       7.016  -0.937  25.052  0.00  0.00    +0.180 C 
BRANCH  21  22
ATOM     22  C   UNL     1       6.492  -2.356  25.376  0.00  0.00    +0.230 C 
ATOM     23  N   UNL     1       5.950  -3.074  24.311  0.00  0.00    -0.296 N 
ATOM     24  C   UNL     1       5.447  -4.432  24.532  0.00  0.00    +0.136 C 
ATOM     25  C   UNL     1       6.172  -5.420  23.613  0.00  0.00    +0.179 C 
ATOM     26  O   UNL     1       6.044  -5.025  22.234  0.00  0.00    -0.377 OA
ATOM     27  C   UNL     1       6.599  -3.718  22.023  0.00  0.00    +0.179 C 
ATOM     28  C   UNL     1       5.914  -2.664  22.905  0.00  0.00    +0.136 C 
ATOM     29  O   UNL     1       6.538  -2.851  26.504  0.00  0.00    -0.274 OA
ENDBRANCH  21  22
ENDBRANCH  20  21
ENDBRANCH  18  20
ENDBRANCH   1  18
TORSDOF 7
ENDMDL
MODEL 8
REMARK VINA RESULT:      -5.8      3.247      4.967
REMARK  Name = 
REMARK  8 active torsions:
REMARK  status: ('A' for Active; 'I' for Inactive)
REMARK    1  A    between atoms: C_1  and  N_2
REMARK    2  A    between atoms: N_2  and  C_3
REMARK    3  A    between atoms: N_2  and  C_12
REMARK    4  A    between atoms: C_3  and  C_4
REMARK    5  A    between atoms: C_12  and  C_13
REMARK    6  A    between atoms: C_19  and  N_20
REMARK    7  A    between atoms: C_21  and  O_22
REMARK    8  A    between atoms: C_21  and  C_23
REMARK                            x       y       z     vdW  Elec       q    Type
REMARK                         _______ _______ _______ _____ _____    ______ ____
ROOT
ATOM      1  C   UNL     1       7.748   4.736  22.936  0.00  0.00    +0.010 A 
ATOM      2  C   UNL     1       8.880   4.144  23.550  0.00  0.00    +0.073 A 
ATOM      3  C   UNL     1       9.927   4.976  23.991  0.00  0.00    +0.028 A 
ATOM      4  C   UNL     1       9.833   6.364  23.933  0.00  0.00    +0.004 A 
ATOM      5  C   UNL     1       8.717   6.949  23.352  0.00  0.00    +0.020 A 
ATOM      6  C   UNL     1       7.691   6.146  22.842  0.00  0.00    +0.047 A 
ATOM      7 CL   UNL     1       6.361   6.979  22.108  0.00  0.00    -0.083 Cl
ENDROOT
BRANCH   2   8
ATOM      8  N   UNL     1       8.998   2.738  23.653  0.00  0.00    -0.213 NA
ATOM      9  C   UNL     1       9.589   1.997  22.768  0.00  0.00    +0.220 C 
BRANCH   9  10
ATOM     10  C   UNL     1       9.706   0.516  22.843  0.00  0.00    +0.036 A 
ATOM     11  C   UNL     1      10.109  -0.119  24.033  0.00  0.00    +0.013 A 
ATOM     12  C   UNL     1      10.117  -1.511  24.127  0.00  0.00    +0.001 A 
ATOM     13  C   UNL     1       9.737  -2.285  23.032  0.00  0.00    +0.000 A 
ATOM     14  C   UNL     1       9.375  -1.665  21.834  0.00  0.00    +0.001 A 
ATOM     15  C   UNL     1       9.360  -0.269  21.739  0.00  0.00    +0.013 A 
ENDBRANCH   9  10
BRANCH   9  16
ATOM     16  O   UNL     1      10.242   2.465  21.684  0.00  0.00    -0.492 OA
ATOM     17  H   UNL     1       9.721   2.345  20.878  0.00  0.00    +0.294 HD
ENDBRANCH   9  16
ENDBRANCH   2   8
BRANCH   1  18
ATOM     18  C   UNL     1       6.614   3.877  22.400  0.00  0.00    +0.123 C 
BRANCH  18  20
ATOM     19  C   UNL     1       4.199   4.047  22.594  0.00  0.00    +0.105 C 
ATOM     20  N   UNL     1       5.446   3.735  23.302  0.00  0.00    -0.293 NA
BRANCH  20  21
ATOM     21  C   UNL     1       5.427   2.358  23.862  0.00  0.00    +0.180 C 
BRANCH  21  22
ATOM     22  C   UNL     1       5.981   2.235  25.300  0.00  0.00    +0.230 C 
ATOM     23  N   UNL     1       5.977   0.958  25.859  0.00  0.00    -0.296 N 
ATOM     24  C   UNL     1       6.501   0.755  27.212  0.00  0.00    +0.136 C 
ATOM     25  C   UNL     1       7.636  -0.273  27.190  0.00  0.00    +0.179 C 
ATOM     26  O   UNL     1       7.195  -1.511  26.601  0.00  0.00    -0.377 OA
ATOM     27  C   UNL     1       6.743  -1.304  25.254  0.00  0.00    +0.179 C 
ATOM     28  C   UNL     1       5.592  -0.289  25.193  0.00  0.00    +0.136 C 
ATOM     29  O   UNL     1       6.412   3.196  25.942  0.00  0.00    -0.274 OA
ENDBRANCH  21  22
ENDBRANCH  20  21
ENDBRANCH  18  20
ENDBRANCH   1  18
TORSDOF 7
ENDMDL
MODEL 9
REMARK VINA RESULT:      -5.6      3.711      7.538
REMARK  Name = 
REMARK  8 active torsions:
REMARK  status: ('A' for Active; 'I' for Inactive)
REMARK    1  A    between atoms: C_1  and  N_2
REMARK    2  A    between atoms: N_2  and  C_3
REMARK    3  A    between atoms: N_2  and  C_12
REMARK    4  A    between atoms: C_3  and  C_4
REMARK    5  A    between atoms: C_12  and  C_13
REMARK    6  A    between atoms: C_19  and  N_20
REMARK    7  A    between atoms: C_21  and  O_22
REMARK    8  A    between atoms: C_21  and  C_23
REMARK                            x       y       z     vdW  Elec       q    Type
REMARK                         _______ _______ _______ _____ _____    ______ ____
ROOT
ATOM      1  C   UNL     1       8.701  -0.524  24.288  0.00  0.00    +0.010 A 
ATOM      2  C   UNL     1       9.568   0.202  23.433  0.00  0.00    +0.073 A 
ATOM      3  C   UNL     1       9.927  -0.357  22.192  0.00  0.00    +0.028 A 
ATOM      4  C   UNL     1       9.373  -1.553  21.741  0.00  0.00    +0.004 A 
ATOM      5  C   UNL     1       8.507  -2.258  22.566  0.00  0.00    +0.020 A 
ATOM      6  C   UNL     1       8.187  -1.761  23.833  0.00  0.00    +0.047 A 
ATOM      7 CL   UNL     1       7.124  -2.737  24.791  0.00  0.00    -0.083 Cl
ENDROOT
BRANCH   2   8
ATOM      8  N   UNL     1      10.128   1.435  23.846  0.00  0.00    -0.213 NA
ATOM      9  C   UNL     1       9.925   2.560  23.233  0.00  0.00    +0.220 C 
BRANCH   9  10
ATOM     10  C   UNL     1      10.520   3.864  23.635  0.00  0.00    +0.036 A 
ATOM     11  C   UNL     1      11.864   4.165  23.346  0.00  0.00    +0.013 A 
ATOM     12  C   UNL     1      12.385   5.427  23.634  0.00  0.00    +0.001 A 
ATOM     13  C   UNL     1      11.577   6.397  24.224  0.00  0.00    +0.000 A 
ATOM     14  C   UNL     1      10.253   6.094  24.551  0.00  0.00    +0.001 A 
ATOM     15  C   UNL     1       9.726   4.831  24.259  0.00  0.00    +0.013 A 
ENDBRANCH   9  10
BRANCH   9  16
ATOM     16  O   UNL     1       9.094   2.727  22.183  0.00  0.00    -0.492 OA
ATOM     17  H   UNL     1       8.872   1.881  21.770  0.00  0.00    +0.294 HD
ENDBRANCH   9  16
ENDBRANCH   2   8
BRANCH   1  18
ATOM     18  C   UNL     1       8.324   0.016  25.658  0.00  0.00    +0.123 C 
BRANCH  18  20
ATOM     19  C   UNL     1       6.446   0.375  27.155  0.00  0.00    +0.105 C 
ATOM     20  N   UNL     1       6.935   0.520  25.779  0.00  0.00    -0.293 NA
BRANCH  20  21
ATOM     21  C   UNL     1       6.889   1.936  25.330  0.00  0.00    +0.180 C 
BRANCH  21  22
ATOM     22  C   UNL     1       6.072   2.181  24.040  0.00  0.00    +0.230 C 
ATOM     23  N   UNL     1       4.917   2.950  24.175  0.00  0.00    -0.296 N 
ATOM     24  C   UNL     1       4.096   3.241  22.997  0.00  0.00    +0.136 C 
ATOM     25  C   UNL     1       3.961   4.755  22.809  0.00  0.00    +0.179 C 
ATOM     26  O   UNL     1       3.425   5.373  23.994  0.00  0.00    -0.377 OA
ATOM     27  C   UNL     1       4.275   5.130  25.125  0.00  0.00    +0.179 C 
ATOM     28  C   UNL     1       4.452   3.628  25.388  0.00  0.00    +0.136 C 
ATOM     29  O   UNL     1       6.399   1.734  22.939  0.00  0.00    -0.274 OA
ENDBRANCH  21  22
ENDBRANCH  20  21
ENDBRANCH  18  20
ENDBRANCH   1  18
TORSDOF 7
ENDMDL
