MODEL 1
REMARK VINA RESULT:      -7.3      0.000      0.000
REMARK  Name = 
REMARK  10 active torsions:
REMARK  status: ('A' for Active; 'I' for Inactive)
REMARK    1  A    between atoms: C_1  and  O_2
REMARK    2  A    between atoms: O_2  and  C_3
REMARK    3  A    between atoms: C_5  and  C_6
REMARK    4  A    between atoms: C_6  and  N_7
REMARK    5  A    between atoms: N_7  and  C_8
REMARK    6  A    between atoms: N_7  and  C_9
REMARK    7  A    between atoms: C_22  and  O_23
REMARK    8  A    between atoms: O_23  and  C_24
REMARK    9  A    between atoms: C_25  and  O_26
REMARK   10  A    between atoms: O_26  and  C_27
REMARK                            x       y       z     vdW  Elec       q    Type
REMARK                         _______ _______ _______ _____ _____    ______ ____
ROOT
ATOM      1  C   UNL     1       9.037  -2.574  25.286  0.00  0.00    +0.049 A 
ATOM      2  C   UNL     1       8.879  -1.225  25.540  0.00  0.00    +0.039 A 
ATOM      3  C   UNL     1       9.266  -0.276  24.576  0.00  0.00    +0.061 A 
ATOM      4  C   UNL     1       9.894  -0.685  23.409  0.00  0.00    +0.167 A 
ATOM      5  N   UNL     1      10.213   0.168  22.451  0.00  0.00    -0.195 NA
ATOM      6  C   UNL     1       9.885   1.446  22.625  0.00  0.00    +0.216 A 
ATOM      7  N   UNL     1       9.322   1.956  23.716  0.00  0.00    -0.199 NA
ATOM      8  N   UNL     1      10.165   2.310  21.590  0.00  0.00    -0.327 N 
ATOM      9  H   UNL     1      10.282   3.247  21.945  0.00  0.00    +0.145 HD
ATOM     10  H   UNL     1      10.908   1.928  21.020  0.00  0.00    +0.145 HD
ATOM     11  N   UNL     1      10.166  -1.974  23.203  0.00  0.00    -0.234 NA
ATOM     12  C   UNL     1       9.004   1.092  24.681  0.00  0.00    +0.131 A 
ATOM     13  N   UNL     1       8.405   1.647  25.818  0.00  0.00    -0.342 N 
ATOM     14  H   UNL     1       7.536   1.182  26.061  0.00  0.00    +0.144 HD
ATOM     15  H   UNL     1       8.258   2.636  25.638  0.00  0.00    +0.144 HD
ATOM     16  C   UNL     1       9.730  -2.871  24.114  0.00  0.00    +0.136 A 
ENDROOT
BRANCH   1  17
ATOM     17  N   UNL     1       8.441  -3.547  26.072  0.00  0.00    -0.327 N 
ATOM     18  C   UNL     1       9.238  -4.750  26.268  0.00  0.00    +0.129 C 
BRANCH  17  19
ATOM     19  C   UNL     1       7.026  -3.483  26.456  0.00  0.00    +0.140 C 
BRANCH  19  24
ATOM     20  C   UNL     1       5.394  -5.914  23.969  0.00  0.00    +0.165 A 
ATOM     21  C   UNL     1       4.611  -6.736  24.810  0.00  0.00    +0.204 A 
ATOM     22  C   UNL     1       4.611  -6.466  26.198  0.00  0.00    +0.165 A 
ATOM     23  C   UNL     1       5.361  -5.388  26.710  0.00  0.00    +0.054 A 
ATOM     24  C   UNL     1       6.137  -4.571  25.884  0.00  0.00    -0.023 A 
ATOM     25  C   UNL     1       6.137  -4.857  24.520  0.00  0.00    +0.054 A 
BRANCH  20  27
ATOM     26  C   UNL     1       6.657  -6.209  21.960  0.00  0.00    +0.277 C 
ATOM     27  O   UNL     1       5.395  -6.138  22.615  0.00  0.00    -0.491 OA
ENDBRANCH  20  27
BRANCH  21  28
ATOM     28  O   UNL     1       3.831  -7.786  24.400  0.00  0.00    -0.488 OA
ATOM     29  C   UNL     1       2.475  -7.581  24.038  0.00  0.00    +0.277 C 
ENDBRANCH  21  28
BRANCH  22  30
ATOM     30  O   UNL     1       3.952  -7.132  27.203  0.00  0.00    -0.491 OA
ATOM     31  C   UNL     1       4.083  -6.685  28.545  0.00  0.00    +0.277 C 
ENDBRANCH  22  30
ENDBRANCH  19  24
ENDBRANCH  17  19
ENDBRANCH   1  17
TORSDOF 6
ENDMDL
MODEL 2
REMARK VINA RESULT:      -7.3      1.490      3.143
REMARK  Name = 
REMARK  10 active torsions:
REMARK  status: ('A' for Active; 'I' for Inactive)
REMARK    1  A    between atoms: C_1  and  O_2
REMARK    2  A    between atoms: O_2  and  C_3
REMARK    3  A    between atoms: C_5  and  C_6
REMARK    4  A    between atoms: C_6  and  N_7
REMARK    5  A    between atoms: N_7  and  C_8
REMARK    6  A    between atoms: N_7  and  C_9
REMARK    7  A    between atoms: C_22  and  O_23
REMARK    8  A    between atoms: O_23  and  C_24
REMARK    9  A    between atoms: C_25  and  O_26
REMARK   10  A    between atoms: O_26  and  C_27
REMARK                            x       y       z     vdW  Elec       q    Type
REMARK                         _______ _______ _______ _____ _____    ______ ____
ROOT
ATOM      1  C   UNL     1       8.606  -2.968  25.455  0.00  0.00    +0.049 A 
ATOM      2  C   UNL     1       8.980  -2.525  24.202  0.00  0.00    +0.039 A 
ATOM      3  C   UNL     1       9.371  -1.186  24.015  0.00  0.00    +0.061 A 
ATOM      4  C   UNL     1       9.290  -0.284  25.063  0.00  0.00    +0.167 A 
ATOM      5  N   UNL     1       9.709   0.965  24.947  0.00  0.00    -0.195 NA
ATOM      6  C   UNL     1      10.245   1.331  23.785  0.00  0.00    +0.216 A 
ATOM      7  N   UNL     1      10.334   0.566  22.701  0.00  0.00    -0.199 NA
ATOM      8  N   UNL     1      10.735   2.615  23.700  0.00  0.00    -0.327 N 
ATOM      9  H   UNL     1      10.721   2.927  22.741  0.00  0.00    +0.145 HD
ATOM     10  H   UNL     1      10.282   3.199  24.391  0.00  0.00    +0.145 HD
ATOM     11  N   UNL     1       8.814  -0.666  26.249  0.00  0.00    -0.234 NA
ATOM     12  C   UNL     1       9.908  -0.691  22.824  0.00  0.00    +0.131 A 
ATOM     13  N   UNL     1      10.018  -1.483  21.674  0.00  0.00    -0.342 N 
ATOM     14  H   UNL     1      10.505  -2.356  21.852  0.00  0.00    +0.144 HD
ATOM     15  H   UNL     1      10.493  -0.933  20.964  0.00  0.00    +0.144 HD
ATOM     16  C   UNL     1       8.503  -1.969  26.422  0.00  0.00    +0.136 A 
ENDROOT
BRANCH   1  17
ATOM     17  N   UNL     1       8.469  -4.315  25.752  0.00  0.00    -0.327 N 
ATOM     18  C   UNL     1       9.507  -5.173  25.199  0.00  0.00    +0.129 C 
BRANCH  17  19
ATOM     19  C   UNL     1       7.246  -4.863  26.349  0.00  0.00    +0.140 C 
BRANCH  19  24
ATOM     20  C   UNL     1       4.264  -6.735  24.811  0.00  0.00    +0.165 A 
ATOM     21  C   UNL     1       4.015  -6.000  23.631  0.00  0.00    +0.204 A 
ATOM     22  C   UNL     1       4.852  -4.900  23.338  0.00  0.00    +0.165 A 
ATOM     23  C   UNL     1       5.916  -4.569  24.201  0.00  0.00    +0.054 A 
ATOM     24  C   UNL     1       6.169  -5.291  25.370  0.00  0.00    -0.023 A 
ATOM     25  C   UNL     1       5.328  -6.366  25.652  0.00  0.00    +0.054 A 
BRANCH  20  27
ATOM     26  C   UNL     1       2.336  -7.606  25.928  0.00  0.00    +0.277 C 
ATOM     27  O   UNL     1       3.481  -7.823  25.109  0.00  0.00    -0.491 OA
ENDBRANCH  20  27
BRANCH  21  28
ATOM     28  O   UNL     1       3.024  -6.263  22.720  0.00  0.00    -0.488 OA
ATOM     29  C   UNL     1       1.718  -5.740  22.901  0.00  0.00    +0.277 C 
ENDBRANCH  21  28
BRANCH  22  30
ATOM     30  O   UNL     1       4.794  -4.035  22.272  0.00  0.00    -0.491 OA
ATOM     31  C   UNL     1       5.695  -2.939  22.206  0.00  0.00    +0.277 C 
ENDBRANCH  22  30
ENDBRANCH  19  24
ENDBRANCH  17  19
ENDBRANCH   1  17
TORSDOF 6
ENDMDL
MODEL 3
REMARK VINA RESULT:      -7.2      0.367      2.509
REMARK  Name = 
REMARK  10 active torsions:
REMARK  status: ('A' for Active; 'I' for Inactive)
REMARK    1  A    between atoms: C_1  and  O_2
REMARK    2  A    between atoms: O_2  and  C_3
REMARK    3  A    between atoms: C_5  and  C_6
REMARK    4  A    between atoms: C_6  and  N_7
REMARK    5  A    between atoms: N_7  and  C_8
REMARK    6  A    between atoms: N_7  and  C_9
REMARK    7  A    between atoms: C_22  and  O_23
REMARK    8  A    between atoms: O_23  and  C_24
REMARK    9  A    between atoms: C_25  and  O_26
REMARK   10  A    between atoms: O_26  and  C_27
REMARK                            x       y       z     vdW  Elec       q    Type
REMARK                         _______ _______ _______ _____ _____    ______ ____
ROOT
ATOM      1  C   UNL     1       9.017  -2.592  25.285  0.00  0.00    +0.049 A 
ATOM      2  C   UNL     1       8.846  -1.243  25.530  0.00  0.00    +0.039 A 
ATOM      3  C   UNL     1       9.213  -0.298  24.555  0.00  0.00    +0.061 A 
ATOM      4  C   UNL     1       9.835  -0.708  23.386  0.00  0.00    +0.167 A 
ATOM      5  N   UNL     1      10.135   0.140  22.417  0.00  0.00    -0.195 NA
ATOM      6  C   UNL     1       9.794   1.416  22.584  0.00  0.00    +0.216 A 
ATOM      7  N   UNL     1       9.235   1.928  23.677  0.00  0.00    -0.199 NA
ATOM      8  N   UNL     1      10.054   2.274  21.540  0.00  0.00    -0.327 N 
ATOM      9  H   UNL     1      10.163   3.215  21.887  0.00  0.00    +0.145 HD
ATOM     10  H   UNL     1      10.796   1.896  20.966  0.00  0.00    +0.145 HD
ATOM     11  N   UNL     1      10.119  -1.996  23.187  0.00  0.00    -0.234 NA
ATOM     12  C   UNL     1       8.937   1.068  24.651  0.00  0.00    +0.131 A 
ATOM     13  N   UNL     1       8.342   1.626  25.790  0.00  0.00    -0.342 N 
ATOM     14  H   UNL     1       7.480   1.153  26.045  0.00  0.00    +0.144 HD
ATOM     15  H   UNL     1       8.182   2.612  25.604  0.00  0.00    +0.144 HD
ATOM     16  C   UNL     1       9.703  -2.891  24.109  0.00  0.00    +0.136 A 
ENDROOT
BRANCH   1  17
ATOM     17  N   UNL     1       8.439  -3.566  26.085  0.00  0.00    -0.327 N 
ATOM     18  C   UNL     1       9.274  -4.733  26.329  0.00  0.00    +0.129 C 
BRANCH  17  19
ATOM     19  C   UNL     1       7.015  -3.543  26.439  0.00  0.00    +0.140 C 
BRANCH  19  24
ATOM     20  C   UNL     1       4.510  -6.453  26.327  0.00  0.00    +0.165 A 
ATOM     21  C   UNL     1       4.485  -6.786  24.954  0.00  0.00    +0.204 A 
ATOM     22  C   UNL     1       5.318  -6.057  24.075  0.00  0.00    +0.165 A 
ATOM     23  C   UNL     1       6.159  -5.043  24.572  0.00  0.00    +0.054 A 
ATOM     24  C   UNL     1       6.189  -4.708  25.928  0.00  0.00    -0.023 A 
ATOM     25  C   UNL     1       5.355  -5.427  26.782  0.00  0.00    +0.054 A 
BRANCH  20  27
ATOM     26  C   UNL     1       2.524  -6.548  27.657  0.00  0.00    +0.277 C 
ATOM     27  O   UNL     1       3.730  -7.159  27.209  0.00  0.00    -0.491 OA
ENDBRANCH  20  27
BRANCH  21  28
ATOM     28  O   UNL     1       3.722  -7.772  24.385  0.00  0.00    -0.488 OA
ATOM     29  C   UNL     1       2.385  -7.513  23.985  0.00  0.00    +0.277 C 
ENDBRANCH  21  28
BRANCH  22  30
ATOM     30  O   UNL     1       5.449  -6.185  22.712  0.00  0.00    -0.491 OA
ATOM     31  C   UNL     1       6.733  -6.074  22.117  0.00  0.00    +0.277 C 
ENDBRANCH  22  30
ENDBRANCH  19  24
ENDBRANCH  17  19
ENDBRANCH   1  17
TORSDOF 6
ENDMDL
MODEL 4
REMARK VINA RESULT:      -7.1      1.585      2.212
REMARK  Name = 
REMARK  10 active torsions:
REMARK  status: ('A' for Active; 'I' for Inactive)
REMARK    1  A    between atoms: C_1  and  O_2
REMARK    2  A    between atoms: O_2  and  C_3
REMARK    3  A    between atoms: C_5  and  C_6
REMARK    4  A    between atoms: C_6  and  N_7
REMARK    5  A    between atoms: N_7  and  C_8
REMARK    6  A    between atoms: N_7  and  C_9
REMARK    7  A    between atoms: C_22  and  O_23
REMARK    8  A    between atoms: O_23  and  C_24
REMARK    9  A    between atoms: C_25  and  O_26
REMARK   10  A    between atoms: O_26  and  C_27
REMARK                            x       y       z     vdW  Elec       q    Type
REMARK                         _______ _______ _______ _____ _____    ______ ____
ROOT
ATOM      1  C   UNL     1       8.696  -2.843  25.410  0.00  0.00    +0.049 A 
ATOM      2  C   UNL     1       9.002  -2.406  24.136  0.00  0.00    +0.039 A 
ATOM      3  C   UNL     1       9.335  -1.057  23.915  0.00  0.00    +0.061 A 
ATOM      4  C   UNL     1       9.264  -0.142  24.954  0.00  0.00    +0.167 A 
ATOM      5  N   UNL     1       9.632   1.119  24.803  0.00  0.00    -0.195 NA
ATOM      6  C   UNL     1      10.106   1.487  23.615  0.00  0.00    +0.216 A 
ATOM      7  N   UNL     1      10.179   0.709  22.539  0.00  0.00    -0.199 NA
ATOM      8  N   UNL     1      10.545   2.786  23.493  0.00  0.00    -0.327 N 
ATOM      9  H   UNL     1      10.480   3.083  22.531  0.00  0.00    +0.145 HD
ATOM     10  H   UNL     1      10.100   3.363  24.193  0.00  0.00    +0.145 HD
ATOM     11  N   UNL     1       8.852  -0.523  26.164  0.00  0.00    -0.234 NA
ATOM     12  C   UNL     1       9.805  -0.561  22.696  0.00  0.00    +0.131 A 
ATOM     13  N   UNL     1       9.896  -1.365  21.553  0.00  0.00    -0.342 N 
ATOM     14  H   UNL     1      10.422  -2.217  21.723  0.00  0.00    +0.144 HD
ATOM     15  H   UNL     1      10.321  -0.809  20.817  0.00  0.00    +0.144 HD
ATOM     16  C   UNL     1       8.596  -1.834  26.367  0.00  0.00    +0.136 A 
ENDROOT
BRANCH   1  17
ATOM     17  N   UNL     1       8.621  -4.189  25.731  0.00  0.00    -0.327 N 
ATOM     18  C   UNL     1       9.727  -4.999  25.241  0.00  0.00    +0.129 C 
BRANCH  17  19
ATOM     19  C   UNL     1       7.405  -4.793  26.288  0.00  0.00    +0.140 C 
BRANCH  19  24
ATOM     20  C   UNL     1       5.210  -5.225  23.164  0.00  0.00    +0.165 A 
ATOM     21  C   UNL     1       3.909  -5.016  23.671  0.00  0.00    +0.204 A 
ATOM     22  C   UNL     1       3.767  -4.709  25.043  0.00  0.00    +0.165 A 
ATOM     23  C   UNL     1       4.904  -4.599  25.867  0.00  0.00    +0.054 A 
ATOM     24  C   UNL     1       6.195  -4.805  25.373  0.00  0.00    -0.023 A 
ATOM     25  C   UNL     1       6.319  -5.118  24.021  0.00  0.00    +0.054 A 
BRANCH  20  27
ATOM     26  C   UNL     1       6.703  -5.772  21.377  0.00  0.00    +0.277 C 
ATOM     27  O   UNL     1       5.381  -5.502  21.830  0.00  0.00    -0.491 OA
ENDBRANCH  20  27
BRANCH  21  28
ATOM     28  O   UNL     1       2.749  -5.075  22.943  0.00  0.00    -0.488 OA
ATOM     29  C   UNL     1       1.992  -6.273  22.883  0.00  0.00    +0.277 C 
ENDBRANCH  21  28
BRANCH  22  30
ATOM     30  O   UNL     1       2.615  -4.485  25.760  0.00  0.00    -0.491 OA
ATOM     31  C   UNL     1       2.161  -5.463  26.683  0.00  0.00    +0.277 C 
ENDBRANCH  22  30
ENDBRANCH  19  24
ENDBRANCH  17  19
ENDBRANCH   1  17
TORSDOF 6
ENDMDL
MODEL 5
REMARK VINA RESULT:      -7.1      4.723      8.920
REMARK  Name = 
REMARK  10 active torsions:
REMARK  status: ('A' for Active; 'I' for Inactive)
REMARK    1  A    between atoms: C_1  and  O_2
REMARK    2  A    between atoms: O_2  and  C_3
REMARK    3  A    between atoms: C_5  and  C_6
REMARK    4  A    between atoms: C_6  and  N_7
REMARK    5  A    between atoms: N_7  and  C_8
REMARK    6  A    between atoms: N_7  and  C_9
REMARK    7  A    between atoms: C_22  and  O_23
REMARK    8  A    between atoms: O_23  and  C_24
REMARK    9  A    between atoms: C_25  and  O_26
REMARK   10  A    between atoms: O_26  and  C_27
REMARK                            x       y       z     vdW  Elec       q    Type
REMARK                         _______ _______ _______ _____ _____    ______ ____
ROOT
ATOM      1  C   UNL     1       9.421  -1.351  23.817  0.00  0.00    +0.049 A 
ATOM      2  C   UNL     1       8.342  -1.415  24.676  0.00  0.00    +0.039 A 
ATOM      3  C   UNL     1       8.072  -2.602  25.383  0.00  0.00    +0.061 A 
ATOM      4  C   UNL     1       8.828  -3.739  25.148  0.00  0.00    +0.167 A 
ATOM      5  N   UNL     1       8.650  -4.853  25.837  0.00  0.00    -0.195 NA
ATOM      6  C   UNL     1       7.729  -4.845  26.798  0.00  0.00    +0.216 A 
ATOM      7  N   UNL     1       6.918  -3.830  27.082  0.00  0.00    -0.199 NA
ATOM      8  N   UNL     1       7.600  -5.992  27.550  0.00  0.00    -0.327 N 
ATOM      9  H   UNL     1       6.666  -6.054  27.926  0.00  0.00    +0.145 HD
ATOM     10  H   UNL     1       7.949  -6.783  27.026  0.00  0.00    +0.145 HD
ATOM     11  N   UNL     1       9.797  -3.731  24.231  0.00  0.00    -0.234 NA
ATOM     12  C   UNL     1       7.102  -2.709  26.382  0.00  0.00    +0.131 A 
ATOM     13  N   UNL     1       6.244  -1.649  26.701  0.00  0.00    -0.342 N 
ATOM     14  H   UNL     1       6.750  -0.792  26.902  0.00  0.00    +0.144 HD
ATOM     15  H   UNL     1       5.677  -1.938  27.493  0.00  0.00    +0.144 HD
ATOM     16  C   UNL     1      10.077  -2.564  23.610  0.00  0.00    +0.136 A 
ENDROOT
BRANCH   1  17
ATOM     17  N   UNL     1       9.887  -0.151  23.305  0.00  0.00    -0.327 N 
ATOM     18  C   UNL     1       9.725   0.006  21.867  0.00  0.00    +0.129 C 
BRANCH  17  19
ATOM     19  C   UNL     1      10.708   0.772  24.098  0.00  0.00    +0.140 C 
BRANCH  19  24
ATOM     20  C   UNL     1      10.568   4.586  23.661  0.00  0.00    +0.165 A 
ATOM     21  C   UNL     1       9.255   4.896  24.078  0.00  0.00    +0.204 A 
ATOM     22  C   UNL     1       8.428   3.840  24.525  0.00  0.00    +0.165 A 
ATOM     23  C   UNL     1       8.922   2.521  24.566  0.00  0.00    +0.054 A 
ATOM     24  C   UNL     1      10.220   2.207  24.155  0.00  0.00    -0.023 A 
ATOM     25  C   UNL     1      11.020   3.256  23.706  0.00  0.00    +0.054 A 
BRANCH  20  27
ATOM     26  C   UNL     1      12.698   5.229  22.782  0.00  0.00    +0.277 C 
ATOM     27  O   UNL     1      11.402   5.594  23.245  0.00  0.00    -0.491 OA
ENDBRANCH  20  27
BRANCH  21  28
ATOM     28  O   UNL     1       8.698   6.148  24.099  0.00  0.00    -0.488 OA
ATOM     29  C   UNL     1       8.039   6.667  22.955  0.00  0.00    +0.277 C 
ENDBRANCH  21  28
BRANCH  22  30
ATOM     30  O   UNL     1       7.124   3.892  24.956  0.00  0.00    -0.491 OA
ATOM     31  C   UNL     1       6.069   3.672  24.032  0.00  0.00    +0.277 C 
ENDBRANCH  22  30
ENDBRANCH  19  24
ENDBRANCH  17  19
ENDBRANCH   1  17
TORSDOF 6
ENDMDL
MODEL 6
REMARK VINA RESULT:      -7.1      4.853      9.328
REMARK  Name = 
REMARK  10 active torsions:
REMARK  status: ('A' for Active; 'I' for Inactive)
REMARK    1  A    between atoms: C_1  and  O_2
REMARK    2  A    between atoms: O_2  and  C_3
REMARK    3  A    between atoms: C_5  and  C_6
REMARK    4  A    between atoms: C_6  and  N_7
REMARK    5  A    between atoms: N_7  and  C_8
REMARK    6  A    between atoms: N_7  and  C_9
REMARK    7  A    between atoms: C_22  and  O_23
REMARK    8  A    between atoms: O_23  and  C_24
REMARK    9  A    between atoms: C_25  and  O_26
REMARK   10  A    between atoms: O_26  and  C_27
REMARK                            x       y       z     vdW  Elec       q    Type
REMARK                         _______ _______ _______ _____ _____    ______ ____
ROOT
ATOM      1  C   UNL     1       9.287  -1.195  23.624  0.00  0.00    +0.049 A 
ATOM      2  C   UNL     1       8.212  -1.336  24.480  0.00  0.00    +0.039 A 
ATOM      3  C   UNL     1       8.039  -2.529  25.205  0.00  0.00    +0.061 A 
ATOM      4  C   UNL     1       8.890  -3.603  24.993  0.00  0.00    +0.167 A 
ATOM      5  N   UNL     1       8.803  -4.716  25.700  0.00  0.00    -0.195 NA
ATOM      6  C   UNL     1       7.879  -4.770  26.657  0.00  0.00    +0.216 A 
ATOM      7  N   UNL     1       6.984  -3.822  26.920  0.00  0.00    -0.199 NA
ATOM      8  N   UNL     1       7.843  -5.911  27.427  0.00  0.00    -0.327 N 
ATOM      9  H   UNL     1       6.916  -6.046  27.800  0.00  0.00    +0.145 HD
ATOM     10  H   UNL     1       8.261  -6.678  26.918  0.00  0.00    +0.145 HD
ATOM     11  N   UNL     1       9.859  -3.527  24.080  0.00  0.00    -0.234 NA
ATOM     12  C   UNL     1       7.076  -2.702  26.202  0.00  0.00    +0.131 A 
ATOM     13  N   UNL     1       6.130  -1.713  26.500  0.00  0.00    -0.342 N 
ATOM     14  H   UNL     1       6.561  -0.813  26.688  0.00  0.00    +0.144 HD
ATOM     15  H   UNL     1       5.585  -2.036  27.294  0.00  0.00    +0.144 HD
ATOM     16  C   UNL     1      10.044  -2.351  23.441  0.00  0.00    +0.136 A 
ENDROOT
BRANCH   1  17
ATOM     17  N   UNL     1       9.652   0.032  23.094  0.00  0.00    -0.327 N 
ATOM     18  C   UNL     1       9.249   0.247  21.712  0.00  0.00    +0.129 C 
BRANCH  17  19
ATOM     19  C   UNL     1      10.589   0.931  23.778  0.00  0.00    +0.140 C 
BRANCH  19  24
ATOM     20  C   UNL     1       8.524   4.013  24.775  0.00  0.00    +0.165 A 
ATOM     21  C   UNL     1       9.351   5.083  24.367  0.00  0.00    +0.204 A 
ATOM     22  C   UNL     1      10.581   4.777  23.742  0.00  0.00    +0.165 A 
ATOM     23  C   UNL     1      10.949   3.436  23.520  0.00  0.00    +0.054 A 
ATOM     24  C   UNL     1      10.136   2.372  23.920  0.00  0.00    -0.023 A 
ATOM     25  C   UNL     1       8.932   2.689  24.547  0.00  0.00    +0.054 A 
BRANCH  20  27
ATOM     26  C   UNL     1       7.236   4.188  26.783  0.00  0.00    +0.277 C 
ATOM     27  O   UNL     1       7.313   4.280  25.365  0.00  0.00    -0.491 OA
ENDBRANCH  20  27
BRANCH  21  28
ATOM     28  O   UNL     1       9.064   6.416  24.516  0.00  0.00    -0.488 OA
ATOM     29  C   UNL     1       9.430   7.107  25.700  0.00  0.00    +0.277 C 
ENDBRANCH  21  28
BRANCH  22  30
ATOM     30  O   UNL     1      11.549   5.638  23.281  0.00  0.00    -0.491 OA
ATOM     31  C   UNL     1      12.877   5.170  23.103  0.00  0.00    +0.277 C 
ENDBRANCH  22  30
ENDBRANCH  19  24
ENDBRANCH  17  19
ENDBRANCH   1  17
TORSDOF 6
ENDMDL
MODEL 7
REMARK VINA RESULT:      -6.8      1.382      1.782
REMARK  Name = 
REMARK  10 active torsions:
REMARK  status: ('A' for Active; 'I' for Inactive)
REMARK    1  A    between atoms: C_1  and  O_2
REMARK    2  A    between atoms: O_2  and  C_3
REMARK    3  A    between atoms: C_5  and  C_6
REMARK    4  A    between atoms: C_6  and  N_7
REMARK    5  A    between atoms: N_7  and  C_8
REMARK    6  A    between atoms: N_7  and  C_9
REMARK    7  A    between atoms: C_22  and  O_23
REMARK    8  A    between atoms: O_23  and  C_24
REMARK    9  A    between atoms: C_25  and  O_26
REMARK   10  A    between atoms: O_26  and  C_27
REMARK                            x       y       z     vdW  Elec       q    Type
REMARK                         _______ _______ _______ _____ _____    ______ ____
ROOT
ATOM      1  C   UNL     1       8.397  -0.858  25.311  0.00  0.00    +0.049 A 
ATOM      2  C   UNL     1       8.027   0.466  25.449  0.00  0.00    +0.039 A 
ATOM      3  C   UNL     1       8.828   1.483  24.897  0.00  0.00    +0.061 A 
ATOM      4  C   UNL     1      10.039   1.169  24.299  0.00  0.00    +0.167 A 
ATOM      5  N   UNL     1      10.788   2.087  23.712  0.00  0.00    -0.195 NA
ATOM      6  C   UNL     1      10.329   3.336  23.685  0.00  0.00    +0.216 A 
ATOM      7  N   UNL     1       9.207   3.758  24.261  0.00  0.00    -0.199 NA
ATOM      8  N   UNL     1      11.089   4.266  23.013  0.00  0.00    -0.327 N 
ATOM      9  H   UNL     1      10.914   5.188  23.385  0.00  0.00    +0.145 HD
ATOM     10  H   UNL     1      12.049   3.953  22.968  0.00  0.00    +0.145 HD
ATOM     11  N   UNL     1      10.470  -0.092  24.267  0.00  0.00    -0.234 NA
ATOM     12  C   UNL     1       8.456   2.829  24.854  0.00  0.00    +0.131 A 
ATOM     13  N   UNL     1       7.276   3.293  25.448  0.00  0.00    -0.342 N 
ATOM     14  H   UNL     1       6.460   2.773  25.139  0.00  0.00    +0.144 HD
ATOM     15  H   UNL     1       7.188   4.281  25.231  0.00  0.00    +0.144 HD
ATOM     16  C   UNL     1       9.657  -1.058  24.747  0.00  0.00    +0.136 A 
ENDROOT
BRANCH   1  17
ATOM     17  N   UNL     1       7.530  -1.900  25.596  0.00  0.00    -0.327 N 
ATOM     18  C   UNL     1       6.239  -1.495  26.134  0.00  0.00    +0.129 C 
BRANCH  17  19
ATOM     19  C   UNL     1       7.967  -3.301  25.602  0.00  0.00    +0.140 C 
BRANCH  19  24
ATOM     20  C   UNL     1       5.557  -5.450  23.520  0.00  0.00    +0.165 A 
ATOM     21  C   UNL     1       5.059  -6.366  24.474  0.00  0.00    +0.204 A 
ATOM     22  C   UNL     1       5.508  -6.251  25.809  0.00  0.00    +0.165 A 
ATOM     23  C   UNL     1       6.413  -5.233  26.168  0.00  0.00    +0.054 A 
ATOM     24  C   UNL     1       6.910  -4.324  25.231  0.00  0.00    -0.023 A 
ATOM     25  C   UNL     1       6.467  -4.456  23.916  0.00  0.00    +0.054 A 
BRANCH  20  27
ATOM     26  C   UNL     1       6.081  -5.843  21.220  0.00  0.00    +0.277 C 
ATOM     27  O   UNL     1       5.120  -5.522  22.221  0.00  0.00    -0.491 OA
ENDBRANCH  20  27
BRANCH  21  28
ATOM     28  O   UNL     1       4.158  -7.368  24.224  0.00  0.00    -0.488 OA
ATOM     29  C   UNL     1       2.762  -7.113  24.264  0.00  0.00    +0.277 C 
ENDBRANCH  21  28
BRANCH  22  30
ATOM     30  O   UNL     1       5.183  -7.029  26.895  0.00  0.00    -0.491 OA
ATOM     31  C   UNL     1       4.502  -6.448  27.997  0.00  0.00    +0.277 C 
ENDBRANCH  22  30
ENDBRANCH  19  24
ENDBRANCH  17  19
ENDBRANCH   1  17
TORSDOF 6
ENDMDL
MODEL 8
REMARK VINA RESULT:      -6.7      2.619      3.864
REMARK  Name = 
REMARK  10 active torsions:
REMARK  status: ('A' for Active; 'I' for Inactive)
REMARK    1  A    between atoms: C_1  and  O_2
REMARK    2  A    between atoms: O_2  and  C_3
REMARK    3  A    between atoms: C_5  and  C_6
REMARK    4  A    between atoms: C_6  and  N_7
REMARK    5  A    between atoms: N_7  and  C_8
REMARK    6  A    between atoms: N_7  and  C_9
REMARK    7  A    between atoms: C_22  and  O_23
REMARK    8  A    between atoms: O_23  and  C_24
REMARK    9  A    between atoms: C_25  and  O_26
REMARK   10  A    between atoms: O_26  and  C_27
REMARK                            x       y       z     vdW  Elec       q    Type
REMARK                         _______ _______ _______ _____ _____    ______ ____
ROOT
ATOM      1  C   UNL     1       7.033  -2.622  22.751  0.00  0.00    +0.049 A 
ATOM      2  C   UNL     1       6.684  -1.292  22.882  0.00  0.00    +0.039 A 
ATOM      3  C   UNL     1       7.650  -0.288  22.692  0.00  0.00    +0.061 A 
ATOM      4  C   UNL     1       8.975  -0.629  22.468  0.00  0.00    +0.167 A 
ATOM      5  N   UNL     1       9.901   0.282  22.219  0.00  0.00    -0.195 NA
ATOM      6  C   UNL     1       9.516   1.555  22.160  0.00  0.00    +0.216 A 
ATOM      7  N   UNL     1       8.286   2.001  22.399  0.00  0.00    -0.199 NA
ATOM      8  N   UNL     1      10.478   2.484  21.836  0.00  0.00    -0.327 N 
ATOM      9  H   UNL     1      10.228   3.386  22.214  0.00  0.00    +0.145 HD
ATOM     10  H   UNL     1      11.394   2.119  22.061  0.00  0.00    +0.145 HD
ATOM     11  N   UNL     1       9.352  -1.908  22.461  0.00  0.00    -0.234 NA
ATOM     12  C   UNL     1       7.357   1.078  22.652  0.00  0.00    +0.131 A 
ATOM     13  N   UNL     1       6.067   1.567  22.893  0.00  0.00    -0.342 N 
ATOM     14  H   UNL     1       5.370   1.120  22.305  0.00  0.00    +0.144 HD
ATOM     15  H   UNL     1       6.085   2.572  22.745  0.00  0.00    +0.144 HD
ATOM     16  C   UNL     1       8.397  -2.855  22.585  0.00  0.00    +0.136 A 
ENDROOT
BRANCH   1  17
ATOM     17  N   UNL     1       6.084  -3.629  22.666  0.00  0.00    -0.327 N 
ATOM     18  C   UNL     1       6.134  -4.416  21.442  0.00  0.00    +0.129 C 
BRANCH  17  19
ATOM     19  C   UNL     1       4.962  -3.727  23.606  0.00  0.00    +0.140 C 
BRANCH  19  24
ATOM     20  C   UNL     1       4.697  -4.223  27.406  0.00  0.00    +0.165 A 
ATOM     21  C   UNL     1       5.928  -4.839  27.723  0.00  0.00    +0.204 A 
ATOM     22  C   UNL     1       6.851  -5.065  26.677  0.00  0.00    +0.165 A 
ATOM     23  C   UNL     1       6.545  -4.664  25.361  0.00  0.00    +0.054 A 
ATOM     24  C   UNL     1       5.329  -4.055  25.041  0.00  0.00    -0.023 A 
ATOM     25  C   UNL     1       4.424  -3.849  26.080  0.00  0.00    +0.054 A 
BRANCH  20  27
ATOM     26  C   UNL     1       2.746  -4.918  28.605  0.00  0.00    +0.277 C 
ATOM     27  O   UNL     1       3.790  -3.969  28.406  0.00  0.00    -0.491 OA
ENDBRANCH  20  27
BRANCH  21  28
ATOM     28  O   UNL     1       6.324  -5.237  28.974  0.00  0.00    -0.488 OA
ATOM     29  C   UNL     1       6.049  -6.550  29.436  0.00  0.00    +0.277 C 
ENDBRANCH  21  28
BRANCH  22  30
ATOM     30  O   UNL     1       8.090  -5.658  26.737  0.00  0.00    -0.491 OA
ATOM     31  C   UNL     1       9.246  -4.905  26.401  0.00  0.00    +0.277 C 
ENDBRANCH  22  30
ENDBRANCH  19  24
ENDBRANCH  17  19
ENDBRANCH   1  17
TORSDOF 6
ENDMDL
MODEL 9
REMARK VINA RESULT:      -6.7      2.836      4.738
REMARK  Name = 
REMARK  10 active torsions:
REMARK  status: ('A' for Active; 'I' for Inactive)
REMARK    1  A    between atoms: C_1  and  O_2
REMARK    2  A    between atoms: O_2  and  C_3
REMARK    3  A    between atoms: C_5  and  C_6
REMARK    4  A    between atoms: C_6  and  N_7
REMARK    5  A    between atoms: N_7  and  C_8
REMARK    6  A    between atoms: N_7  and  C_9
REMARK    7  A    between atoms: C_22  and  O_23
REMARK    8  A    between atoms: O_23  and  C_24
REMARK    9  A    between atoms: C_25  and  O_26
REMARK   10  A    between atoms: O_26  and  C_27
REMARK                            x       y       z     vdW  Elec       q    Type
REMARK                         _______ _______ _______ _____ _____    ______ ____
ROOT
ATOM      1  C   UNL     1       9.483   1.370  23.142  0.00  0.00    +0.049 A 
ATOM      2  C   UNL     1       9.246   2.492  23.912  0.00  0.00    +0.039 A 
ATOM      3  C   UNL     1       8.264   3.420  23.520  0.00  0.00    +0.061 A 
ATOM      4  C   UNL     1       7.599   3.265  22.314  0.00  0.00    +0.167 A 
ATOM      5  N   UNL     1       6.625   4.077  21.942  0.00  0.00    -0.195 NA
ATOM      6  C   UNL     1       6.274   5.048  22.782  0.00  0.00    +0.216 A 
ATOM      7  N   UNL     1       6.867   5.317  23.941  0.00  0.00    -0.199 NA
ATOM      8  N   UNL     1       5.215   5.845  22.408  0.00  0.00    -0.327 N 
ATOM      9  H   UNL     1       5.292   6.749  22.849  0.00  0.00    +0.145 HD
ATOM     10  H   UNL     1       5.109   5.821  21.403  0.00  0.00    +0.145 HD
ATOM     11  N   UNL     1       7.904   2.254  21.499  0.00  0.00    -0.234 NA
ATOM     12  C   UNL     1       7.850   4.496  24.311  0.00  0.00    +0.131 A 
ATOM     13  N   UNL     1       8.457   4.791  25.538  0.00  0.00    -0.342 N 
ATOM     14  H   UNL     1       8.480   3.988  26.159  0.00  0.00    +0.144 HD
ATOM     15  H   UNL     1       7.950   5.566  25.955  0.00  0.00    +0.144 HD
ATOM     16  C   UNL     1       8.805   1.342  21.924  0.00  0.00    +0.136 A 
ENDROOT
BRANCH   1  17
ATOM     17  N   UNL     1      10.237   0.303  23.604  0.00  0.00    -0.327 N 
ATOM     18  C   UNL     1      11.000   0.570  24.815  0.00  0.00    +0.129 C 
BRANCH  17  19
ATOM     19  C   UNL     1      10.455  -0.906  22.802  0.00  0.00    +0.140 C 
BRANCH  19  24
ATOM     20  C   UNL     1       7.611  -3.470  22.491  0.00  0.00    +0.165 A 
ATOM     21  C   UNL     1       7.892  -4.372  23.541  0.00  0.00    +0.204 A 
ATOM     22  C   UNL     1       9.012  -4.112  24.363  0.00  0.00    +0.165 A 
ATOM     23  C   UNL     1       9.806  -2.969  24.141  0.00  0.00    +0.054 A 
ATOM     24  C   UNL     1       9.533  -2.073  23.103  0.00  0.00    -0.023 A 
ATOM     25  C   UNL     1       8.433  -2.348  22.294  0.00  0.00    +0.054 A 
BRANCH  20  27
ATOM     26  C   UNL     1       5.264  -3.171  22.135  0.00  0.00    +0.277 C 
ATOM     27  O   UNL     1       6.516  -3.684  21.690  0.00  0.00    -0.491 OA
ENDBRANCH  20  27
BRANCH  21  28
ATOM     28  O   UNL     1       7.164  -5.491  23.850  0.00  0.00    -0.488 OA
ATOM     29  C   UNL     1       6.110  -5.429  24.799  0.00  0.00    +0.277 C 
ENDBRANCH  21  28
BRANCH  22  30
ATOM     30  O   UNL     1       9.491  -4.847  25.422  0.00  0.00    -0.491 OA
ATOM     31  C   UNL     1       9.087  -4.519  26.743  0.00  0.00    +0.277 C 
ENDBRANCH  22  30
ENDBRANCH  19  24
ENDBRANCH  17  19
ENDBRANCH   1  17
TORSDOF 6
ENDMDL
