MODEL 1
REMARK VINA RESULT:      -6.8      0.000      0.000
REMARK  Name = 
REMARK  24 active torsions:
REMARK  status: ('A' for Active; 'I' for Inactive)
REMARK    1  A    between atoms: C_1  and  C_2
REMARK    2  A    between atoms: C_2  and  C_3
REMARK    3  A    between atoms: C_2  and  C_4
REMARK    4  A    between atoms: C_4  and  C_5
REMARK    5  A    between atoms: C_5  and  N_7
REMARK    6  A    between atoms: C_5  and  C_30
REMARK    7  A    between atoms: C_8  and  C_10
REMARK    8  A    between atoms: C_10  and  C_12
REMARK    9  A    between atoms: C_10  and  N_15
REMARK   10  A    between atoms: C_12  and  C_13
REMARK   11  A    between atoms: C_12  and  C_14
REMARK   12  A    between atoms: C_16  and  C_18
REMARK   13  A    between atoms: C_18  and  C_20
REMARK   14  A    between atoms: C_18  and  N_21
REMARK   15  A    between atoms: C_22  and  C_24
REMARK   16  A    between atoms: C_27  and  C_28
REMARK   17  A    between atoms: N_32  and  C_33
REMARK   18  A    between atoms: C_33  and  C_35
REMARK   19  A    between atoms: C_33  and  C_47
REMARK   20  A    between atoms: C_36  and  C_37
REMARK   21  A    between atoms: C_37  and  O_39
REMARK   22  A    between atoms: O_39  and  C_40
REMARK   23  A    between atoms: C_40  and  C_41
REMARK   24  A    between atoms: C_47  and  C_48
REMARK                            x       y       z     vdW  Elec       q    Type
REMARK                         _______ _______ _______ _____ _____    ______ ____
ROOT
ATOM      1  C   UNL     1       8.173   0.503  24.406  0.00  0.00    +0.159 C 
ENDROOT
BRANCH   1   2
ATOM      2  C   UNL     1       8.502  -0.811  25.155  0.00  0.00    +0.234 C 
ATOM      3  N   UNL     1       7.782  -1.919  24.747  0.00  0.00    -0.307 N 
ATOM      4  H   UNL     1       7.047  -1.806  24.063  0.00  0.00    +0.149 HD
ATOM      5  O   UNL     1       9.352  -0.853  26.044  0.00  0.00    -0.274 OA
BRANCH   3   6
ATOM      6  C   UNL     1       8.097  -3.267  25.198  0.00  0.00    +0.097 C 
BRANCH   6   7
ATOM      7  C   UNL     1       7.613  -4.216  24.131  0.00  0.00    +0.002 C 
ATOM      8  C   UNL     1       6.935  -3.912  23.008  0.00  0.00    +0.089 C 
BRANCH   8   9
ATOM      9  C   UNL     1       6.556  -4.993  22.066  0.00  0.00    +0.332 C 
ATOM     10  O   UNL     1       7.347  -5.772  21.556  0.00  0.00    -0.246 OA
BRANCH   9  11
ATOM     11  O   UNL     1       5.221  -4.940  21.855  0.00  0.00    -0.457 OA
BRANCH  11  12
ATOM     12  C   UNL     1       4.427  -4.545  22.984  0.00  0.00    +0.268 C 
BRANCH  12  13
ATOM     13  C   UNL     1       3.642  -5.728  23.492  0.00  0.00    -0.010 A 
ATOM     14  C   UNL     1       2.337  -5.960  23.031  0.00  0.00    +0.007 A 
ATOM     15  C   UNL     1       1.608  -7.058  23.493  0.00  0.00    +0.000 A 
ATOM     16  C   UNL     1       2.175  -7.935  24.415  0.00  0.00    +0.000 A 
ATOM     17  C   UNL     1       3.471  -7.714  24.879  0.00  0.00    +0.000 A 
ATOM     18  C   UNL     1       4.202  -6.617  24.419  0.00  0.00    +0.007 A 
ENDBRANCH  12  13
ENDBRANCH  11  12
ENDBRANCH   9  11
ENDBRANCH   8   9
ENDBRANCH   6   7
BRANCH   6  19
ATOM     19  C   UNL     1       7.528  -3.534  26.603  0.00  0.00    +0.039 C 
BRANCH  19  20
ATOM     20  C   UNL     1       6.392  -4.567  26.633  0.00  0.00    +0.078 C 
ATOM     21  C   UNL     1       6.382  -5.325  27.937  0.00  0.00    +0.216 C 
ATOM     22  O   UNL     1       7.122  -6.236  28.261  0.00  0.00    -0.276 OA
ATOM     23  N   UNL     1       5.411  -4.775  28.760  0.00  0.00    -0.315 N 
ATOM     24  H   UNL     1       5.324  -5.061  29.730  0.00  0.00    +0.149 HD
ATOM     25  C   UNL     1       4.748  -3.668  28.145  0.00  0.00    +0.105 C 
ATOM     26  C   UNL     1       5.008  -3.899  26.668  0.00  0.00    +0.031 C 
ENDBRANCH  19  20
ENDBRANCH   6  19
ENDBRANCH   3   6
ENDBRANCH   1   2
BRANCH   1  27
ATOM     27  N   UNL     1       7.394   1.423  25.257  0.00  0.00    -0.302 N 
ATOM     28  H   UNL     1       7.916   1.940  25.960  0.00  0.00    +0.150 HD
ATOM     29  C   UNL     1       6.038   1.239  25.450  0.00  0.00    +0.234 C 
ATOM     30  O   UNL     1       5.410   0.410  24.786  0.00  0.00    -0.274 OA
BRANCH  29  31
ATOM     31  C   UNL     1       5.286   2.266  26.353  0.00  0.00    +0.161 C 
BRANCH  31  32
ATOM     32  N   UNL     1       5.716   3.663  26.216  0.00  0.00    -0.302 N 
ATOM     33  H   UNL     1       5.335   4.260  25.493  0.00  0.00    +0.150 HD
ATOM     34  C   UNL     1       6.718   4.170  27.019  0.00  0.00    +0.234 C 
ATOM     35  O   UNL     1       7.340   3.458  27.810  0.00  0.00    -0.274 OA
BRANCH  34  36
ATOM     36  C   UNL     1       7.014   5.686  26.914  0.00  0.00    +0.156 C 
ATOM     37  C   UNL     1       5.833   6.389  26.242  0.00  0.00    +0.038 C 
BRANCH  36  38
ATOM     38  N   UNL     1       8.262   6.019  26.235  0.00  0.00    -0.299 N 
ATOM     39  H   UNL     1       8.945   6.626  26.678  0.00  0.00    +0.150 HD
ATOM     40  C   UNL     1       8.649   5.360  25.084  0.00  0.00    +0.266 C 
ATOM     41  O   UNL     1       7.917   4.575  24.496  0.00  0.00    -0.268 OA
BRANCH  40  42
ATOM     42  C   UNL     1      10.006   5.660  24.623  0.00  0.00    +0.168 A 
ATOM     43  C   UNL     1      10.736   4.966  23.625  0.00  0.00    +0.080 A 
ATOM     44  C   UNL     1      11.965   5.577  23.606  0.00  0.00    +0.135 A 
ATOM     45  C   UNL     1      13.214   5.334  22.862  0.00  0.00    +0.089 C 
ATOM     46  O   UNL     1      11.966   6.602  24.500  0.00  0.00    -0.359 OA
ATOM     47  N   UNL     1      10.737   6.663  25.140  0.00  0.00    -0.073 NA
ENDBRANCH  40  42
ENDBRANCH  36  38
ENDBRANCH  34  36
ENDBRANCH  31  32
BRANCH  31  48
ATOM     48  C   UNL     1       3.750   2.074  26.214  0.00  0.00    +0.012 C 
ATOM     49  C   UNL     1       2.983   3.373  25.981  0.00  0.00    +0.009 C 
ATOM     50  C   UNL     1       3.144   1.326  27.408  0.00  0.00    +0.009 C 
ENDBRANCH  31  48
ENDBRANCH  29  31
ENDBRANCH   1  27
BRANCH   1  51
ATOM     51  C   UNL     1       9.415   1.176  23.767  0.00  0.00    +0.034 C 
BRANCH  51  53
ATOM     52  C   UNL     1       9.521  -0.253  21.583  0.00  0.00    +0.007 C 
ATOM     53  C   UNL     1       9.575   1.134  22.228  0.00  0.00    -0.015 C 
ATOM     54  C   UNL     1       8.478   1.988  21.573  0.00  0.00    +0.007 C 
ENDBRANCH  51  53
ENDBRANCH   1  51
TORSDOF 18
ENDMDL
MODEL 2
REMARK VINA RESULT:      -6.7      2.789      6.310
REMARK  Name = 
REMARK  24 active torsions:
REMARK  status: ('A' for Active; 'I' for Inactive)
REMARK    1  A    between atoms: C_1  and  C_2
REMARK    2  A    between atoms: C_2  and  C_3
REMARK    3  A    between atoms: C_2  and  C_4
REMARK    4  A    between atoms: C_4  and  C_5
REMARK    5  A    between atoms: C_5  and  N_7
REMARK    6  A    between atoms: C_5  and  C_30
REMARK    7  A    between atoms: C_8  and  C_10
REMARK    8  A    between atoms: C_10  and  C_12
REMARK    9  A    between atoms: C_10  and  N_15
REMARK   10  A    between atoms: C_12  and  C_13
REMARK   11  A    between atoms: C_12  and  C_14
REMARK   12  A    between atoms: C_16  and  C_18
REMARK   13  A    between atoms: C_18  and  C_20
REMARK   14  A    between atoms: C_18  and  N_21
REMARK   15  A    between atoms: C_22  and  C_24
REMARK   16  A    between atoms: C_27  and  C_28
REMARK   17  A    between atoms: N_32  and  C_33
REMARK   18  A    between atoms: C_33  and  C_35
REMARK   19  A    between atoms: C_33  and  C_47
REMARK   20  A    between atoms: C_36  and  C_37
REMARK   21  A    between atoms: C_37  and  O_39
REMARK   22  A    between atoms: O_39  and  C_40
REMARK   23  A    between atoms: C_40  and  C_41
REMARK   24  A    between atoms: C_47  and  C_48
REMARK                            x       y       z     vdW  Elec       q    Type
REMARK                         _______ _______ _______ _____ _____    ______ ____
ROOT
ATOM      1  C   UNL     1       5.797   2.873  23.010  0.00  0.00    +0.159 C 
ENDROOT
BRANCH   1   2
ATOM      2  C   UNL     1       6.854   1.781  22.715  0.00  0.00    +0.234 C 
ATOM      3  N   UNL     1       6.767   0.648  23.504  0.00  0.00    -0.307 N 
ATOM      4  H   UNL     1       6.097   0.622  24.259  0.00  0.00    +0.149 HD
ATOM      5  O   UNL     1       7.701   1.921  21.833  0.00  0.00    -0.274 OA
BRANCH   3   6
ATOM      6  C   UNL     1       7.546  -0.553  23.237  0.00  0.00    +0.097 C 
BRANCH   6   7
ATOM      7  C   UNL     1       6.608  -1.563  22.626  0.00  0.00    +0.002 C 
ATOM      8  C   UNL     1       6.883  -2.835  22.281  0.00  0.00    +0.089 C 
BRANCH   8   9
ATOM      9  C   UNL     1       5.816  -3.684  21.700  0.00  0.00    +0.332 C 
ATOM     10  O   UNL     1       5.719  -3.953  20.512  0.00  0.00    -0.246 OA
BRANCH   9  11
ATOM     11  O   UNL     1       4.975  -4.068  22.688  0.00  0.00    -0.457 OA
BRANCH  11  12
ATOM     12  C   UNL     1       4.838  -5.485  22.874  0.00  0.00    +0.268 C 
BRANCH  12  13
ATOM     13  C   UNL     1       4.193  -5.763  24.208  0.00  0.00    -0.010 A 
ATOM     14  C   UNL     1       3.115  -4.979  24.648  0.00  0.00    +0.007 A 
ATOM     15  C   UNL     1       2.509  -5.236  25.880  0.00  0.00    +0.000 A 
ATOM     16  C   UNL     1       2.970  -6.278  26.681  0.00  0.00    +0.000 A 
ATOM     17  C   UNL     1       4.039  -7.064  26.254  0.00  0.00    +0.000 A 
ATOM     18  C   UNL     1       4.647  -6.809  25.023  0.00  0.00    +0.007 A 
ENDBRANCH  12  13
ENDBRANCH  11  12
ENDBRANCH   9  11
ENDBRANCH   8   9
ENDBRANCH   6   7
BRANCH   6  19
ATOM     19  C   UNL     1       8.278  -1.038  24.501  0.00  0.00    +0.039 C 
BRANCH  19  20
ATOM     20  C   UNL     1       9.808  -0.928  24.419  0.00  0.00    +0.078 C 
ATOM     21  C   UNL     1      10.252  -0.561  23.025  0.00  0.00    +0.216 C 
ATOM     22  O   UNL     1      10.325  -1.300  22.060  0.00  0.00    -0.276 OA
ATOM     23  N   UNL     1      10.519   0.799  22.992  0.00  0.00    -0.315 N 
ATOM     24  H   UNL     1      10.715   1.273  22.115  0.00  0.00    +0.149 HD
ATOM     25  C   UNL     1      10.275   1.427  24.252  0.00  0.00    +0.105 C 
ATOM     26  C   UNL     1      10.344   0.266  25.225  0.00  0.00    +0.031 C 
ENDBRANCH  19  20
ENDBRANCH   6  19
ENDBRANCH   3   6
ENDBRANCH   1   2
BRANCH   1  27
ATOM     27  N   UNL     1       5.288   2.765  24.390  0.00  0.00    -0.302 N 
ATOM     28  H   UNL     1       5.946   2.437  25.091  0.00  0.00    +0.150 HD
ATOM     29  C   UNL     1       3.936   2.622  24.640  0.00  0.00    +0.234 C 
ATOM     30  O   UNL     1       3.107   2.752  23.736  0.00  0.00    -0.274 OA
BRANCH  29  31
ATOM     31  C   UNL     1       3.478   2.530  26.129  0.00  0.00    +0.161 C 
BRANCH  31  32
ATOM     32  N   UNL     1       4.145   1.499  26.934  0.00  0.00    -0.302 N 
ATOM     33  H   UNL     1       5.105   1.608  27.234  0.00  0.00    +0.150 HD
ATOM     34  C   UNL     1       3.501   0.313  27.227  0.00  0.00    +0.234 C 
ATOM     35  O   UNL     1       2.393   0.043  26.761  0.00  0.00    -0.274 OA
BRANCH  34  36
ATOM     36  C   UNL     1       4.212  -0.660  28.199  0.00  0.00    +0.156 C 
ATOM     37  C   UNL     1       4.988   0.143  29.245  0.00  0.00    +0.038 C 
BRANCH  36  38
ATOM     38  N   UNL     1       5.084  -1.638  27.555  0.00  0.00    -0.299 N 
ATOM     39  H   UNL     1       5.915  -1.337  27.054  0.00  0.00    +0.150 HD
ATOM     40  C   UNL     1       4.935  -2.991  27.784  0.00  0.00    +0.266 C 
ATOM     41  O   UNL     1       3.994  -3.454  28.414  0.00  0.00    -0.268 OA
BRANCH  40  42
ATOM     42  C   UNL     1       5.995  -3.835  27.228  0.00  0.00    +0.168 A 
ATOM     43  C   UNL     1       6.609  -3.699  25.956  0.00  0.00    +0.080 A 
ATOM     44  C   UNL     1       7.480  -4.756  25.878  0.00  0.00    +0.135 A 
ATOM     45  C   UNL     1       8.386  -5.256  24.827  0.00  0.00    +0.089 C 
ATOM     46  O   UNL     1       7.431  -5.461  27.040  0.00  0.00    -0.359 OA
ATOM     47  N   UNL     1       6.504  -4.885  27.895  0.00  0.00    -0.073 NA
ENDBRANCH  40  42
ENDBRANCH  36  38
ENDBRANCH  34  36
ENDBRANCH  31  32
BRANCH  31  48
ATOM     48  C   UNL     1       3.504   3.939  26.784  0.00  0.00    +0.012 C 
ATOM     49  C   UNL     1       4.443   4.048  27.984  0.00  0.00    +0.009 C 
ATOM     50  C   UNL     1       2.104   4.427  27.179  0.00  0.00    +0.009 C 
ENDBRANCH  31  48
ENDBRANCH  29  31
ENDBRANCH   1  27
BRANCH   1  51
ATOM     51  C   UNL     1       6.274   4.305  22.651  0.00  0.00    +0.034 C 
BRANCH  51  53
ATOM     52  C   UNL     1       6.218   6.027  24.615  0.00  0.00    +0.007 C 
ATOM     53  C   UNL     1       5.577   5.511  23.325  0.00  0.00    -0.015 C 
ATOM     54  C   UNL     1       5.518   6.688  22.338  0.00  0.00    +0.007 C 
ENDBRANCH  51  53
ENDBRANCH   1  51
TORSDOF 18
ENDMDL
MODEL 3
REMARK VINA RESULT:      -6.6      2.586      8.156
REMARK  Name = 
REMARK  24 active torsions:
REMARK  status: ('A' for Active; 'I' for Inactive)
REMARK    1  A    between atoms: C_1  and  C_2
REMARK    2  A    between atoms: C_2  and  C_3
REMARK    3  A    between atoms: C_2  and  C_4
REMARK    4  A    between atoms: C_4  and  C_5
REMARK    5  A    between atoms: C_5  and  N_7
REMARK    6  A    between atoms: C_5  and  C_30
REMARK    7  A    between atoms: C_8  and  C_10
REMARK    8  A    between atoms: C_10  and  C_12
REMARK    9  A    between atoms: C_10  and  N_15
REMARK   10  A    between atoms: C_12  and  C_13
REMARK   11  A    between atoms: C_12  and  C_14
REMARK   12  A    between atoms: C_16  and  C_18
REMARK   13  A    between atoms: C_18  and  C_20
REMARK   14  A    between atoms: C_18  and  N_21
REMARK   15  A    between atoms: C_22  and  C_24
REMARK   16  A    between atoms: C_27  and  C_28
REMARK   17  A    between atoms: N_32  and  C_33
REMARK   18  A    between atoms: C_33  and  C_35
REMARK   19  A    between atoms: C_33  and  C_47
REMARK   20  A    between atoms: C_36  and  C_37
REMARK   21  A    between atoms: C_37  and  O_39
REMARK   22  A    between atoms: O_39  and  C_40
REMARK   23  A    between atoms: C_40  and  C_41
REMARK   24  A    between atoms: C_47  and  C_48
REMARK                            x       y       z     vdW  Elec       q    Type
REMARK                         _______ _______ _______ _____ _____    ______ ____
ROOT
ATOM      1  C   UNL     1       7.644   2.434  25.786  0.00  0.00    +0.159 C 
ENDROOT
BRANCH   1   2
ATOM      2  C   UNL     1       6.724   1.966  26.939  0.00  0.00    +0.234 C 
ATOM      3  N   UNL     1       5.429   1.649  26.569  0.00  0.00    -0.307 N 
ATOM      4  H   UNL     1       5.134   1.809  25.616  0.00  0.00    +0.149 HD
ATOM      5  O   UNL     1       7.131   1.880  28.097  0.00  0.00    -0.274 OA
BRANCH   3   6
ATOM      6  C   UNL     1       4.490   1.008  27.478  0.00  0.00    +0.097 C 
BRANCH   6   7
ATOM      7  C   UNL     1       3.950  -0.210  26.772  0.00  0.00    +0.002 C 
ATOM      8  C   UNL     1       4.501  -1.438  26.715  0.00  0.00    +0.089 C 
BRANCH   8   9
ATOM      9  C   UNL     1       3.806  -2.519  25.977  0.00  0.00    +0.332 C 
ATOM     10  O   UNL     1       2.647  -2.852  26.173  0.00  0.00    -0.246 OA
BRANCH   9  11
ATOM     11  O   UNL     1       4.670  -3.074  25.097  0.00  0.00    -0.457 OA
BRANCH  11  12
ATOM     12  C   UNL     1       4.076  -3.855  24.049  0.00  0.00    +0.268 C 
BRANCH  12  13
ATOM     13  C   UNL     1       5.158  -4.468  23.196  0.00  0.00    -0.010 A 
ATOM     14  C   UNL     1       6.187  -3.667  22.677  0.00  0.00    +0.007 A 
ATOM     15  C   UNL     1       7.195  -4.229  21.892  0.00  0.00    +0.000 A 
ATOM     16  C   UNL     1       7.189  -5.596  21.622  0.00  0.00    +0.000 A 
ATOM     17  C   UNL     1       6.173  -6.402  22.133  0.00  0.00    +0.000 A 
ATOM     18  C   UNL     1       5.163  -5.841  22.917  0.00  0.00    +0.007 A 
ENDBRANCH  12  13
ENDBRANCH  11  12
ENDBRANCH   9  11
ENDBRANCH   8   9
ENDBRANCH   6   7
BRANCH   6  19
ATOM     19  C   UNL     1       3.417   1.999  27.964  0.00  0.00    +0.039 C 
BRANCH  19  20
ATOM     20  C   UNL     1       3.360   3.305  27.159  0.00  0.00    +0.078 C 
ATOM     21  C   UNL     1       2.503   3.148  25.929  0.00  0.00    +0.216 C 
ATOM     22  O   UNL     1       2.811   2.603  24.885  0.00  0.00    -0.276 OA
ATOM     23  N   UNL     1       1.251   3.685  26.192  0.00  0.00    -0.315 N 
ATOM     24  H   UNL     1       0.485   3.571  25.536  0.00  0.00    +0.149 HD
ATOM     25  C   UNL     1       1.151   4.189  27.525  0.00  0.00    +0.105 C 
ATOM     26  C   UNL     1       2.602   4.411  27.910  0.00  0.00    +0.031 C 
ENDBRANCH  19  20
ENDBRANCH   6  19
ENDBRANCH   3   6
ENDBRANCH   1   2
BRANCH   1  27
ATOM     27  N   UNL     1       8.639   1.400  25.442  0.00  0.00    -0.302 N 
ATOM     28  H   UNL     1       9.615   1.663  25.537  0.00  0.00    +0.150 HD
ATOM     29  C   UNL     1       8.319   0.359  24.591  0.00  0.00    +0.234 C 
ATOM     30  O   UNL     1       7.154   0.169  24.233  0.00  0.00    -0.274 OA
BRANCH  29  31
ATOM     31  C   UNL     1       9.424  -0.701  24.291  0.00  0.00    +0.161 C 
BRANCH  31  32
ATOM     32  N   UNL     1       9.062  -2.093  24.585  0.00  0.00    -0.302 N 
ATOM     33  H   UNL     1       8.990  -2.783  23.849  0.00  0.00    +0.150 HD
ATOM     34  C   UNL     1       8.725  -2.474  25.869  0.00  0.00    +0.234 C 
ATOM     35  O   UNL     1       8.634  -1.656  26.787  0.00  0.00    -0.274 OA
BRANCH  34  36
ATOM     36  C   UNL     1       8.498  -3.984  26.126  0.00  0.00    +0.156 C 
ATOM     37  C   UNL     1       9.124  -4.793  24.988  0.00  0.00    +0.038 C 
BRANCH  36  38
ATOM     38  N   UNL     1       7.102  -4.367  26.318  0.00  0.00    -0.299 N 
ATOM     39  H   UNL     1       6.374  -3.975  25.727  0.00  0.00    +0.150 HD
ATOM     40  C   UNL     1       6.754  -5.417  27.144  0.00  0.00    +0.266 C 
ATOM     41  O   UNL     1       7.565  -5.987  27.862  0.00  0.00    -0.268 OA
BRANCH  40  42
ATOM     42  C   UNL     1       5.345  -5.809  27.089  0.00  0.00    +0.168 A 
ATOM     43  C   UNL     1       4.757  -6.739  26.193  0.00  0.00    +0.080 A 
ATOM     44  C   UNL     1       3.418  -6.710  26.493  0.00  0.00    +0.135 A 
ATOM     45  C   UNL     1       2.230  -7.372  25.923  0.00  0.00    +0.089 C 
ATOM     46  O   UNL     1       3.213  -5.854  27.530  0.00  0.00    -0.359 OA
ATOM     47  N   UNL     1       4.419  -5.288  27.913  0.00  0.00    -0.073 NA
ENDBRANCH  40  42
ENDBRANCH  36  38
ENDBRANCH  34  36
ENDBRANCH  31  32
BRANCH  31  48
ATOM     48  C   UNL     1       9.985  -0.496  22.857  0.00  0.00    +0.012 C 
ATOM     49  C   UNL     1       9.843   0.932  22.334  0.00  0.00    +0.009 C 
ATOM     50  C   UNL     1       9.378  -1.477  21.846  0.00  0.00    +0.009 C 
ENDBRANCH  31  48
ENDBRANCH  29  31
ENDBRANCH   1  27
BRANCH   1  51
ATOM     51  C   UNL     1       6.866   2.958  24.550  0.00  0.00    +0.034 C 
BRANCH  51  53
ATOM     52  C   UNL     1       8.830   4.643  24.190  0.00  0.00    +0.007 C 
ATOM     53  C   UNL     1       7.442   4.159  23.763  0.00  0.00    -0.015 C 
ATOM     54  C   UNL     1       7.518   3.807  22.269  0.00  0.00    +0.007 C 
ENDBRANCH  51  53
ENDBRANCH   1  51
TORSDOF 18
ENDMDL
MODEL 4
REMARK VINA RESULT:      -6.6      2.166      6.073
REMARK  Name = 
REMARK  24 active torsions:
REMARK  status: ('A' for Active; 'I' for Inactive)
REMARK    1  A    between atoms: C_1  and  C_2
REMARK    2  A    between atoms: C_2  and  C_3
REMARK    3  A    between atoms: C_2  and  C_4
REMARK    4  A    between atoms: C_4  and  C_5
REMARK    5  A    between atoms: C_5  and  N_7
REMARK    6  A    between atoms: C_5  and  C_30
REMARK    7  A    between atoms: C_8  and  C_10
REMARK    8  A    between atoms: C_10  and  C_12
REMARK    9  A    between atoms: C_10  and  N_15
REMARK   10  A    between atoms: C_12  and  C_13
REMARK   11  A    between atoms: C_12  and  C_14
REMARK   12  A    between atoms: C_16  and  C_18
REMARK   13  A    between atoms: C_18  and  C_20
REMARK   14  A    between atoms: C_18  and  N_21
REMARK   15  A    between atoms: C_22  and  C_24
REMARK   16  A    between atoms: C_27  and  C_28
REMARK   17  A    between atoms: N_32  and  C_33
REMARK   18  A    between atoms: C_33  and  C_35
REMARK   19  A    between atoms: C_33  and  C_47
REMARK   20  A    between atoms: C_36  and  C_37
REMARK   21  A    between atoms: C_37  and  O_39
REMARK   22  A    between atoms: O_39  and  C_40
REMARK   23  A    between atoms: C_40  and  C_41
REMARK   24  A    between atoms: C_47  and  C_48
REMARK                            x       y       z     vdW  Elec       q    Type
REMARK                         _______ _______ _______ _____ _____    ______ ____
ROOT
ATOM      1  C   UNL     1       4.429  -2.577  28.096  0.00  0.00    +0.159 C 
ENDROOT
BRANCH   1   2
ATOM      2  C   UNL     1       5.006  -3.983  27.803  0.00  0.00    +0.234 C 
ATOM      3  N   UNL     1       5.310  -4.232  26.477  0.00  0.00    -0.307 N 
ATOM      4  H   UNL     1       5.075  -3.541  25.778  0.00  0.00    +0.149 HD
ATOM      5  O   UNL     1       5.184  -4.808  28.698  0.00  0.00    -0.274 OA
BRANCH   3   6
ATOM      6  C   UNL     1       6.040  -5.417  26.050  0.00  0.00    +0.097 C 
BRANCH   6   7
ATOM      7  C   UNL     1       7.245  -4.942  25.277  0.00  0.00    +0.002 C 
ATOM      8  C   UNL     1       7.710  -3.683  25.175  0.00  0.00    +0.089 C 
BRANCH   8   9
ATOM      9  C   UNL     1       8.928  -3.415  24.373  0.00  0.00    +0.332 C 
ATOM     10  O   UNL     1       9.981  -4.022  24.496  0.00  0.00    -0.246 OA
BRANCH   9  11
ATOM     11  O   UNL     1       8.680  -2.386  23.530  0.00  0.00    -0.457 OA
BRANCH  11  12
ATOM     12  C   UNL     1       9.778  -1.985  22.697  0.00  0.00    +0.268 C 
BRANCH  12  13
ATOM     13  C   UNL     1      10.017  -0.504  22.848  0.00  0.00    -0.010 A 
ATOM     14  C   UNL     1      10.605  -0.000  24.018  0.00  0.00    +0.007 A 
ATOM     15  C   UNL     1      10.835   1.370  24.161  0.00  0.00    +0.000 A 
ATOM     16  C   UNL     1      10.484   2.248  23.137  0.00  0.00    +0.000 A 
ATOM     17  C   UNL     1       9.900   1.758  21.971  0.00  0.00    +0.000 A 
ATOM     18  C   UNL     1       9.669   0.389  21.825  0.00  0.00    +0.007 A 
ENDBRANCH  12  13
ENDBRANCH  11  12
ENDBRANCH   9  11
ENDBRANCH   8   9
ENDBRANCH   6   7
BRANCH   6  19
ATOM     19  C   UNL     1       5.126  -6.390  25.284  0.00  0.00    +0.039 C 
BRANCH  19  20
ATOM     20  C   UNL     1       3.787  -5.779  24.847  0.00  0.00    +0.078 C 
ATOM     21  C   UNL     1       3.670  -5.747  23.343  0.00  0.00    +0.216 C 
ATOM     22  O   UNL     1       4.196  -4.955  22.584  0.00  0.00    -0.276 OA
ATOM     23  N   UNL     1       2.893  -6.822  22.938  0.00  0.00    -0.315 N 
ATOM     24  H   UNL     1       2.792  -7.054  21.955  0.00  0.00    +0.149 HD
ATOM     25  C   UNL     1       2.471  -7.627  24.041  0.00  0.00    +0.105 C 
ATOM     26  C   UNL     1       2.596  -6.678  25.218  0.00  0.00    +0.031 C 
ENDBRANCH  19  20
ENDBRANCH   6  19
ENDBRANCH   3   6
ENDBRANCH   1   2
BRANCH   1  27
ATOM     27  N   UNL     1       4.706  -1.644  26.987  0.00  0.00    -0.302 N 
ATOM     28  H   UNL     1       5.057  -2.054  26.127  0.00  0.00    +0.150 HD
ATOM     29  C   UNL     1       4.963  -0.307  27.229  0.00  0.00    +0.234 C 
ATOM     30  O   UNL     1       4.801   0.176  28.352  0.00  0.00    -0.274 OA
BRANCH  29  31
ATOM     31  C   UNL     1       5.231   0.615  26.000  0.00  0.00    +0.161 C 
BRANCH  31  32
ATOM     32  N   UNL     1       5.144   2.058  26.260  0.00  0.00    -0.302 N 
ATOM     33  H   UNL     1       5.708   2.496  26.977  0.00  0.00    +0.150 HD
ATOM     34  C   UNL     1       4.223   2.837  25.588  0.00  0.00    +0.234 C 
ATOM     35  O   UNL     1       3.395   2.346  24.819  0.00  0.00    -0.274 OA
BRANCH  34  36
ATOM     36  C   UNL     1       4.291   4.368  25.810  0.00  0.00    +0.156 C 
ATOM     37  C   UNL     1       3.339   5.065  24.837  0.00  0.00    +0.038 C 
BRANCH  36  38
ATOM     38  N   UNL     1       5.631   4.940  25.715  0.00  0.00    -0.299 N 
ATOM     39  H   UNL     1       6.107   5.280  26.545  0.00  0.00    +0.150 HD
ATOM     40  C   UNL     1       6.371   4.840  24.553  0.00  0.00    +0.266 C 
ATOM     41  O   UNL     1       5.905   4.402  23.510  0.00  0.00    -0.268 OA
BRANCH  40  42
ATOM     42  C   UNL     1       7.761   5.285  24.663  0.00  0.00    +0.168 A 
ATOM     43  C   UNL     1       8.726   5.321  23.623  0.00  0.00    +0.080 A 
ATOM     44  C   UNL     1       9.879   5.743  24.235  0.00  0.00    +0.135 A 
ATOM     45  C   UNL     1      11.265   5.945  23.772  0.00  0.00    +0.089 C 
ATOM     46  O   UNL     1       9.623   5.988  25.548  0.00  0.00    -0.359 OA
ATOM     47  N   UNL     1       8.293   5.707  25.823  0.00  0.00    -0.073 NA
ENDBRANCH  40  42
ENDBRANCH  36  38
ENDBRANCH  34  36
ENDBRANCH  31  32
BRANCH  31  48
ATOM     48  C   UNL     1       6.548   0.192  25.292  0.00  0.00    +0.012 C 
ATOM     49  C   UNL     1       7.809   0.478  26.106  0.00  0.00    +0.009 C 
ATOM     50  C   UNL     1       6.687   0.812  23.895  0.00  0.00    +0.009 C 
ENDBRANCH  31  48
ENDBRANCH  29  31
ENDBRANCH   1  27
BRANCH   1  51
ATOM     51  C   UNL     1       2.935  -2.598  28.509  0.00  0.00    +0.034 C 
BRANCH  51  53
ATOM     52  C   UNL     1       0.780  -4.061  28.707  0.00  0.00    +0.007 C 
ATOM     53  C   UNL     1       2.003  -3.662  27.880  0.00  0.00    -0.015 C 
ATOM     54  C   UNL     1       1.494  -3.159  26.519  0.00  0.00    +0.007 C 
ENDBRANCH  51  53
ENDBRANCH   1  51
TORSDOF 18
ENDMDL
MODEL 5
REMARK VINA RESULT:      -6.5      2.493      8.672
REMARK  Name = 
REMARK  24 active torsions:
REMARK  status: ('A' for Active; 'I' for Inactive)
REMARK    1  A    between atoms: C_1  and  C_2
REMARK    2  A    between atoms: C_2  and  C_3
REMARK    3  A    between atoms: C_2  and  C_4
REMARK    4  A    between atoms: C_4  and  C_5
REMARK    5  A    between atoms: C_5  and  N_7
REMARK    6  A    between atoms: C_5  and  C_30
REMARK    7  A    between atoms: C_8  and  C_10
REMARK    8  A    between atoms: C_10  and  C_12
REMARK    9  A    between atoms: C_10  and  N_15
REMARK   10  A    between atoms: C_12  and  C_13
REMARK   11  A    between atoms: C_12  and  C_14
REMARK   12  A    between atoms: C_16  and  C_18
REMARK   13  A    between atoms: C_18  and  C_20
REMARK   14  A    between atoms: C_18  and  N_21
REMARK   15  A    between atoms: C_22  and  C_24
REMARK   16  A    between atoms: C_27  and  C_28
REMARK   17  A    between atoms: N_32  and  C_33
REMARK   18  A    between atoms: C_33  and  C_35
REMARK   19  A    between atoms: C_33  and  C_47
REMARK   20  A    between atoms: C_36  and  C_37
REMARK   21  A    between atoms: C_37  and  O_39
REMARK   22  A    between atoms: O_39  and  C_40
REMARK   23  A    between atoms: C_40  and  C_41
REMARK   24  A    between atoms: C_47  and  C_48
REMARK                            x       y       z     vdW  Elec       q    Type
REMARK                         _______ _______ _______ _____ _____    ______ ____
ROOT
ATOM      1  C   UNL     1       6.065   0.672  27.266  0.00  0.00    +0.159 C 
ENDROOT
BRANCH   1   2
ATOM      2  C   UNL     1       6.107   1.772  26.178  0.00  0.00    +0.234 C 
ATOM      3  N   UNL     1       7.078   2.741  26.356  0.00  0.00    -0.307 N 
ATOM      4  H   UNL     1       7.638   2.731  27.197  0.00  0.00    +0.149 HD
ATOM      5  O   UNL     1       5.330   1.768  25.224  0.00  0.00    -0.274 OA
BRANCH   3   6
ATOM      6  C   UNL     1       7.390   3.732  25.336  0.00  0.00    +0.097 C 
BRANCH   6   7
ATOM      7  C   UNL     1       8.762   3.403  24.803  0.00  0.00    +0.002 C 
ATOM      8  C   UNL     1       9.198   3.514  23.533  0.00  0.00    +0.089 C 
BRANCH   8   9
ATOM      9  C   UNL     1      10.596   3.150  23.205  0.00  0.00    +0.332 C 
ATOM     10  O   UNL     1      11.558   3.883  23.381  0.00  0.00    -0.246 OA
BRANCH   9  11
ATOM     11  O   UNL     1      10.611   1.912  22.660  0.00  0.00    -0.457 OA
BRANCH  11  12
ATOM     12  C   UNL     1       9.555   1.630  21.728  0.00  0.00    +0.268 C 
BRANCH  12  13
ATOM     13  C   UNL     1       8.840   0.368  22.138  0.00  0.00    -0.010 A 
ATOM     14  C   UNL     1       7.533   0.429  22.643  0.00  0.00    +0.007 A 
ATOM     15  C   UNL     1       6.862  -0.737  23.018  0.00  0.00    +0.000 A 
ATOM     16  C   UNL     1       7.489  -1.975  22.889  0.00  0.00    +0.000 A 
ATOM     17  C   UNL     1       8.787  -2.048  22.387  0.00  0.00    +0.000 A 
ATOM     18  C   UNL     1       9.460  -0.883  22.012  0.00  0.00    +0.007 A 
ENDBRANCH  12  13
ENDBRANCH  11  12
ENDBRANCH   9  11
ENDBRANCH   8   9
ENDBRANCH   6   7
BRANCH   6  19
ATOM     19  C   UNL     1       7.239   5.164  25.881  0.00  0.00    +0.039 C 
BRANCH  19  20
ATOM     20  C   UNL     1       6.108   5.968  25.223  0.00  0.00    +0.078 C 
ATOM     21  C   UNL     1       5.399   5.149  24.173  0.00  0.00    +0.216 C 
ATOM     22  O   UNL     1       5.787   4.908  23.045  0.00  0.00    -0.276 OA
ATOM     23  N   UNL     1       4.228   4.648  24.722  0.00  0.00    -0.315 N 
ATOM     24  H   UNL     1       3.664   3.969  24.220  0.00  0.00    +0.149 HD
ATOM     25  C   UNL     1       4.066   5.032  26.089  0.00  0.00    +0.105 C 
ATOM     26  C   UNL     1       4.959   6.254  26.203  0.00  0.00    +0.031 C 
ENDBRANCH  19  20
ENDBRANCH   6  19
ENDBRANCH   3   6
ENDBRANCH   1   2
BRANCH   1  27
ATOM     27  N   UNL     1       4.963  -0.279  27.024  0.00  0.00    -0.302 N 
ATOM     28  H   UNL     1       4.949  -0.733  26.116  0.00  0.00    +0.150 HD
ATOM     29  C   UNL     1       3.780  -0.193  27.733  0.00  0.00    +0.234 C 
ATOM     30  O   UNL     1       3.675   0.566  28.701  0.00  0.00    -0.274 OA
BRANCH  29  31
ATOM     31  C   UNL     1       2.671  -1.246  27.427  0.00  0.00    +0.161 C 
BRANCH  31  32
ATOM     32  N   UNL     1       3.085  -2.375  26.583  0.00  0.00    -0.302 N 
ATOM     33  H   UNL     1       4.029  -2.738  26.620  0.00  0.00    +0.150 HD
ATOM     34  C   UNL     1       2.216  -2.911  25.653  0.00  0.00    +0.234 C 
ATOM     35  O   UNL     1       1.108  -2.417  25.439  0.00  0.00    -0.274 OA
BRANCH  34  36
ATOM     36  C   UNL     1       2.675  -4.187  24.906  0.00  0.00    +0.156 C 
ATOM     37  C   UNL     1       2.072  -5.418  25.585  0.00  0.00    +0.038 C 
BRANCH  36  38
ATOM     38  N   UNL     1       4.122  -4.331  24.776  0.00  0.00    -0.299 N 
ATOM     39  H   UNL     1       4.731  -4.155  25.569  0.00  0.00    +0.150 HD
ATOM     40  C   UNL     1       4.686  -4.912  23.657  0.00  0.00    +0.266 C 
ATOM     41  O   UNL     1       4.032  -5.205  22.665  0.00  0.00    -0.268 OA
BRANCH  40  42
ATOM     42  C   UNL     1       6.125  -5.166  23.748  0.00  0.00    +0.168 A 
ATOM     43  C   UNL     1       6.937  -5.038  24.904  0.00  0.00    +0.080 A 
ATOM     44  C   UNL     1       8.208  -5.317  24.467  0.00  0.00    +0.135 A 
ATOM     45  C   UNL     1       9.533  -5.313  25.113  0.00  0.00    +0.089 C 
ATOM     46  O   UNL     1       8.164  -5.634  23.145  0.00  0.00    -0.359 OA
ATOM     47  N   UNL     1       6.858  -5.546  22.687  0.00  0.00    -0.073 NA
ENDBRANCH  40  42
ENDBRANCH  36  38
ENDBRANCH  34  36
ENDBRANCH  31  32
BRANCH  31  48
ATOM     48  C   UNL     1       1.970  -1.683  28.743  0.00  0.00    +0.012 C 
ATOM     49  C   UNL     1       2.277  -3.119  29.162  0.00  0.00    +0.009 C 
ATOM     50  C   UNL     1       0.452  -1.474  28.695  0.00  0.00    +0.009 C 
ENDBRANCH  31  48
ENDBRANCH  29  31
ENDBRANCH   1  27
BRANCH   1  51
ATOM     51  C   UNL     1       7.431  -0.029  27.487  0.00  0.00    +0.034 C 
BRANCH  51  53
ATOM     52  C   UNL     1       9.446  -0.067  25.825  0.00  0.00    +0.007 C 
ATOM     53  C   UNL     1       8.127  -0.698  26.277  0.00  0.00    -0.015 C 
ATOM     54  C   UNL     1       8.411  -2.174  26.599  0.00  0.00    +0.007 C 
ENDBRANCH  51  53
ENDBRANCH   1  51
TORSDOF 18
ENDMDL
MODEL 6
REMARK VINA RESULT:      -6.5      2.177      4.882
REMARK  Name = 
REMARK  24 active torsions:
REMARK  status: ('A' for Active; 'I' for Inactive)
REMARK    1  A    between atoms: C_1  and  C_2
REMARK    2  A    between atoms: C_2  and  C_3
REMARK    3  A    between atoms: C_2  and  C_4
REMARK    4  A    between atoms: C_4  and  C_5
REMARK    5  A    between atoms: C_5  and  N_7
REMARK    6  A    between atoms: C_5  and  C_30
REMARK    7  A    between atoms: C_8  and  C_10
REMARK    8  A    between atoms: C_10  and  C_12
REMARK    9  A    between atoms: C_10  and  N_15
REMARK   10  A    between atoms: C_12  and  C_13
REMARK   11  A    between atoms: C_12  and  C_14
REMARK   12  A    between atoms: C_16  and  C_18
REMARK   13  A    between atoms: C_18  and  C_20
REMARK   14  A    between atoms: C_18  and  N_21
REMARK   15  A    between atoms: C_22  and  C_24
REMARK   16  A    between atoms: C_27  and  C_28
REMARK   17  A    between atoms: N_32  and  C_33
REMARK   18  A    between atoms: C_33  and  C_35
REMARK   19  A    between atoms: C_33  and  C_47
REMARK   20  A    between atoms: C_36  and  C_37
REMARK   21  A    between atoms: C_37  and  O_39
REMARK   22  A    between atoms: O_39  and  C_40
REMARK   23  A    between atoms: C_40  and  C_41
REMARK   24  A    between atoms: C_47  and  C_48
REMARK                            x       y       z     vdW  Elec       q    Type
REMARK                         _______ _______ _______ _____ _____    ______ ____
ROOT
ATOM      1  C   UNL     1       4.971   0.222  25.621  0.00  0.00    +0.159 C 
ENDROOT
BRANCH   1   2
ATOM      2  C   UNL     1       5.005  -1.215  26.197  0.00  0.00    +0.234 C 
ATOM      3  N   UNL     1       5.514  -2.180  25.346  0.00  0.00    -0.307 N 
ATOM      4  H   UNL     1       5.754  -1.925  24.398  0.00  0.00    +0.149 HD
ATOM      5  O   UNL     1       4.611  -1.464  27.335  0.00  0.00    -0.274 OA
BRANCH   3   6
ATOM      6  C   UNL     1       5.803  -3.537  25.786  0.00  0.00    +0.097 C 
BRANCH   6   7
ATOM      7  C   UNL     1       7.246  -3.815  25.447  0.00  0.00    +0.002 C 
ATOM      8  C   UNL     1       8.031  -3.142  24.584  0.00  0.00    +0.089 C 
BRANCH   8   9
ATOM      9  C   UNL     1       9.440  -3.563  24.395  0.00  0.00    +0.332 C 
ATOM     10  O   UNL     1       9.909  -4.610  24.816  0.00  0.00    -0.246 OA
BRANCH   9  11
ATOM     11  O   UNL     1      10.100  -2.593  23.721  0.00  0.00    -0.457 OA
BRANCH  11  12
ATOM     12  C   UNL     1       9.297  -1.788  22.844  0.00  0.00    +0.268 C 
BRANCH  12  13
ATOM     13  C   UNL     1       9.760  -0.354  22.905  0.00  0.00    -0.010 A 
ATOM     14  C   UNL     1      10.408   0.130  24.051  0.00  0.00    +0.007 A 
ATOM     15  C   UNL     1      10.845   1.455  24.111  0.00  0.00    +0.000 A 
ATOM     16  C   UNL     1      10.642   2.307  23.027  0.00  0.00    +0.000 A 
ATOM     17  C   UNL     1      10.000   1.836  21.883  0.00  0.00    +0.000 A 
ATOM     18  C   UNL     1       9.562   0.512  21.821  0.00  0.00    +0.007 A 
ENDBRANCH  12  13
ENDBRANCH  11  12
ENDBRANCH   9  11
ENDBRANCH   8   9
ENDBRANCH   6   7
BRANCH   6  19
ATOM     19  C   UNL     1       4.798  -4.542  25.196  0.00  0.00    +0.039 C 
BRANCH  19  20
ATOM     20  C   UNL     1       5.321  -5.985  25.131  0.00  0.00    +0.078 C 
ATOM     21  C   UNL     1       4.994  -6.738  26.396  0.00  0.00    +0.216 C 
ATOM     22  O   UNL     1       5.566  -6.656  27.467  0.00  0.00    -0.276 OA
ATOM     23  N   UNL     1       3.873  -7.522  26.166  0.00  0.00    -0.315 N 
ATOM     24  H   UNL     1       3.414  -8.015  26.926  0.00  0.00    +0.149 HD
ATOM     25  C   UNL     1       3.368  -7.362  24.839  0.00  0.00    +0.105 C 
ATOM     26  C   UNL     1       4.569  -6.823  24.085  0.00  0.00    +0.031 C 
ENDBRANCH  19  20
ENDBRANCH   6  19
ENDBRANCH   3   6
ENDBRANCH   1   2
BRANCH   1  27
ATOM     27  N   UNL     1       4.606   1.206  26.658  0.00  0.00    -0.302 N 
ATOM     28  H   UNL     1       4.845   0.964  27.615  0.00  0.00    +0.150 HD
ATOM     29  C   UNL     1       3.591   2.120  26.446  0.00  0.00    +0.234 C 
ATOM     30  O   UNL     1       3.081   2.253  25.330  0.00  0.00    -0.274 OA
BRANCH  29  31
ATOM     31  C   UNL     1       3.278   3.136  27.587  0.00  0.00    +0.161 C 
BRANCH  31  32
ATOM     32  N   UNL     1       3.943   4.441  27.474  0.00  0.00    -0.302 N 
ATOM     33  H   UNL     1       3.478   5.230  27.045  0.00  0.00    +0.150 HD
ATOM     34  C   UNL     1       5.256   4.596  27.873  0.00  0.00    +0.234 C 
ATOM     35  O   UNL     1       5.936   3.642  28.255  0.00  0.00    -0.274 OA
BRANCH  34  36
ATOM     36  C   UNL     1       5.838   6.030  27.858  0.00  0.00    +0.156 C 
ATOM     37  C   UNL     1       4.710   7.034  27.614  0.00  0.00    +0.038 C 
BRANCH  36  38
ATOM     38  N   UNL     1       6.923   6.238  26.903  0.00  0.00    -0.299 N 
ATOM     39  H   UNL     1       7.864   6.439  27.228  0.00  0.00    +0.150 HD
ATOM     40  C   UNL     1       6.760   5.958  25.561  0.00  0.00    +0.266 C 
ATOM     41  O   UNL     1       5.675   5.662  25.076  0.00  0.00    -0.268 OA
BRANCH  40  42
ATOM     42  C   UNL     1       7.982   6.029  24.759  0.00  0.00    +0.168 A 
ATOM     43  C   UNL     1       9.296   5.707  25.185  0.00  0.00    +0.080 A 
ATOM     44  C   UNL     1      10.092   5.998  24.106  0.00  0.00    +0.135 A 
ATOM     45  C   UNL     1      11.547   5.960  23.871  0.00  0.00    +0.089 C 
ATOM     46  O   UNL     1       9.310   6.426  23.079  0.00  0.00    -0.359 OA
ATOM     47  N   UNL     1       7.982   6.443  23.480  0.00  0.00    -0.073 NA
ENDBRANCH  40  42
ENDBRANCH  36  38
ENDBRANCH  34  36
ENDBRANCH  31  32
BRANCH  31  48
ATOM     48  C   UNL     1       1.743   3.240  27.804  0.00  0.00    +0.012 C 
ATOM     49  C   UNL     1       1.151   4.589  27.402  0.00  0.00    +0.009 C 
ATOM     50  C   UNL     1       1.331   2.905  29.243  0.00  0.00    +0.009 C 
ENDBRANCH  31  48
ENDBRANCH  29  31
ENDBRANCH   1  27
BRANCH   1  51
ATOM     51  C   UNL     1       6.260   0.607  24.849  0.00  0.00    +0.034 C 
BRANCH  51  53
ATOM     52  C   UNL     1       7.949   2.447  25.616  0.00  0.00    +0.007 C 
ATOM     53  C   UNL     1       6.692   2.093  24.818  0.00  0.00    -0.015 C 
ATOM     54  C   UNL     1       6.934   2.527  23.363  0.00  0.00    +0.007 C 
ENDBRANCH  51  53
ENDBRANCH   1  51
TORSDOF 18
ENDMDL
MODEL 7
REMARK VINA RESULT:      -6.5      2.699      8.171
REMARK  Name = 
REMARK  24 active torsions:
REMARK  status: ('A' for Active; 'I' for Inactive)
REMARK    1  A    between atoms: C_1  and  C_2
REMARK    2  A    between atoms: C_2  and  C_3
REMARK    3  A    between atoms: C_2  and  C_4
REMARK    4  A    between atoms: C_4  and  C_5
REMARK    5  A    between atoms: C_5  and  N_7
REMARK    6  A    between atoms: C_5  and  C_30
REMARK    7  A    between atoms: C_8  and  C_10
REMARK    8  A    between atoms: C_10  and  C_12
REMARK    9  A    between atoms: C_10  and  N_15
REMARK   10  A    between atoms: C_12  and  C_13
REMARK   11  A    between atoms: C_12  and  C_14
REMARK   12  A    between atoms: C_16  and  C_18
REMARK   13  A    between atoms: C_18  and  C_20
REMARK   14  A    between atoms: C_18  and  N_21
REMARK   15  A    between atoms: C_22  and  C_24
REMARK   16  A    between atoms: C_27  and  C_28
REMARK   17  A    between atoms: N_32  and  C_33
REMARK   18  A    between atoms: C_33  and  C_35
REMARK   19  A    between atoms: C_33  and  C_47
REMARK   20  A    between atoms: C_36  and  C_37
REMARK   21  A    between atoms: C_37  and  O_39
REMARK   22  A    between atoms: O_39  and  C_40
REMARK   23  A    between atoms: C_40  and  C_41
REMARK   24  A    between atoms: C_47  and  C_48
REMARK                            x       y       z     vdW  Elec       q    Type
REMARK                         _______ _______ _______ _____ _____    ______ ____
ROOT
ATOM      1  C   UNL     1       6.324   1.793  26.531  0.00  0.00    +0.159 C 
ENDROOT
BRANCH   1   2
ATOM      2  C   UNL     1       7.600   1.004  26.148  0.00  0.00    +0.234 C 
ATOM      3  N   UNL     1       7.566  -0.349  26.436  0.00  0.00    -0.307 N 
ATOM      4  H   UNL     1       6.774  -0.728  26.936  0.00  0.00    +0.149 HD
ATOM      5  O   UNL     1       8.566   1.553  25.620  0.00  0.00    -0.274 OA
BRANCH   3   6
ATOM      6  C   UNL     1       8.588  -1.274  25.969  0.00  0.00    +0.097 C 
BRANCH   6   7
ATOM      7  C   UNL     1       8.518  -1.290  24.463  0.00  0.00    +0.002 C 
ATOM      8  C   UNL     1       9.543  -1.228  23.593  0.00  0.00    +0.089 C 
BRANCH   8   9
ATOM      9  C   UNL     1       9.271  -1.271  22.136  0.00  0.00    +0.332 C 
ATOM     10  O   UNL     1       8.682  -2.181  21.572  0.00  0.00    -0.246 OA
BRANCH   9  11
ATOM     11  O   UNL     1       9.806  -0.172  21.558  0.00  0.00    -0.457 OA
BRANCH  11  12
ATOM     12  C   UNL     1       8.877   0.872  21.225  0.00  0.00    +0.268 C 
BRANCH  12  13
ATOM     13  C   UNL     1       9.118   2.068  22.110  0.00  0.00    -0.010 A 
ATOM     14  C   UNL     1       8.071   2.958  22.395  0.00  0.00    +0.007 A 
ATOM     15  C   UNL     1       8.286   4.064  23.220  0.00  0.00    +0.000 A 
ATOM     16  C   UNL     1       9.545   4.289  23.771  0.00  0.00    +0.000 A 
ATOM     17  C   UNL     1      10.592   3.411  23.496  0.00  0.00    +0.000 A 
ATOM     18  C   UNL     1      10.380   2.305  22.671  0.00  0.00    +0.007 A 
ENDBRANCH  12  13
ENDBRANCH  11  12
ENDBRANCH   9  11
ENDBRANCH   8   9
ENDBRANCH   6   7
BRANCH   6  19
ATOM     19  C   UNL     1       8.441  -2.654  26.635  0.00  0.00    +0.039 C 
BRANCH  19  20
ATOM     20  C   UNL     1       7.758  -3.707  25.749  0.00  0.00    +0.078 C 
ATOM     21  C   UNL     1       8.655  -4.900  25.535  0.00  0.00    +0.216 C 
ATOM     22  O   UNL     1       9.602  -4.978  24.773  0.00  0.00    -0.276 OA
ATOM     23  N   UNL     1       8.264  -5.908  26.403  0.00  0.00    -0.315 N 
ATOM     24  H   UNL     1       8.816  -6.754  26.505  0.00  0.00    +0.149 HD
ATOM     25  C   UNL     1       7.171  -5.509  27.233  0.00  0.00    +0.105 C 
ATOM     26  C   UNL     1       6.558  -4.360  26.454  0.00  0.00    +0.031 C 
ENDBRANCH  19  20
ENDBRANCH   6  19
ENDBRANCH   3   6
ENDBRANCH   1   2
BRANCH   1  27
ATOM     27  N   UNL     1       5.346   0.927  27.217  0.00  0.00    -0.302 N 
ATOM     28  H   UNL     1       5.715   0.093  27.664  0.00  0.00    +0.150 HD
ATOM     29  C   UNL     1       4.009   0.946  26.864  0.00  0.00    +0.234 C 
ATOM     30  O   UNL     1       3.569   1.802  26.093  0.00  0.00    -0.274 OA
BRANCH  29  31
ATOM     31  C   UNL     1       3.038   0.010  27.649  0.00  0.00    +0.161 C 
BRANCH  31  32
ATOM     32  N   UNL     1       2.992  -1.384  27.189  0.00  0.00    -0.302 N 
ATOM     33  H   UNL     1       3.802  -1.985  27.259  0.00  0.00    +0.150 HD
ATOM     34  C   UNL     1       1.863  -1.881  26.570  0.00  0.00    +0.234 C 
ATOM     35  O   UNL     1       0.896  -1.163  26.306  0.00  0.00    -0.274 OA
BRANCH  34  36
ATOM     36  C   UNL     1       1.838  -3.395  26.246  0.00  0.00    +0.156 C 
ATOM     37  C   UNL     1       1.715  -4.191  27.547  0.00  0.00    +0.038 C 
BRANCH  36  38
ATOM     38  N   UNL     1       2.975  -3.869  25.462  0.00  0.00    -0.299 N 
ATOM     39  H   UNL     1       3.925  -3.698  25.775  0.00  0.00    +0.150 HD
ATOM     40  C   UNL     1       2.801  -4.739  24.403  0.00  0.00    +0.266 C 
ATOM     41  O   UNL     1       1.696  -5.047  23.977  0.00  0.00    -0.268 OA
BRANCH  40  42
ATOM     42  C   UNL     1       4.037  -5.279  23.835  0.00  0.00    +0.168 A 
ATOM     43  C   UNL     1       4.981  -4.581  23.039  0.00  0.00    +0.080 A 
ATOM     44  C   UNL     1       5.916  -5.527  22.700  0.00  0.00    +0.135 A 
ATOM     45  C   UNL     1       7.123  -5.511  21.853  0.00  0.00    +0.089 C 
ATOM     46  O   UNL     1       5.586  -6.709  23.286  0.00  0.00    -0.359 OA
ATOM     47  N   UNL     1       4.409  -6.560  24.005  0.00  0.00    -0.073 NA
ENDBRANCH  40  42
ENDBRANCH  36  38
ENDBRANCH  34  36
ENDBRANCH  31  32
BRANCH  31  48
ATOM     48  C   UNL     1       3.279   0.151  29.177  0.00  0.00    +0.012 C 
ATOM     49  C   UNL     1       2.550  -0.895  30.018  0.00  0.00    +0.009 C 
ATOM     50  C   UNL     1       2.942   1.554  29.697  0.00  0.00    +0.009 C 
ENDBRANCH  31  48
ENDBRANCH  29  31
ENDBRANCH   1  27
BRANCH   1  51
ATOM     51  C   UNL     1       6.619   3.103  27.306  0.00  0.00    +0.034 C 
BRANCH  51  53
ATOM     52  C   UNL     1       7.297   2.451  29.743  0.00  0.00    +0.007 C 
ATOM     53  C   UNL     1       6.303   3.159  28.820  0.00  0.00    -0.015 C 
ATOM     54  C   UNL     1       6.219   4.625  29.274  0.00  0.00    +0.007 C 
ENDBRANCH  51  53
ENDBRANCH   1  51
TORSDOF 18
ENDMDL
MODEL 8
REMARK VINA RESULT:      -6.4      2.350      8.723
REMARK  Name = 
REMARK  24 active torsions:
REMARK  status: ('A' for Active; 'I' for Inactive)
REMARK    1  A    between atoms: C_1  and  C_2
REMARK    2  A    between atoms: C_2  and  C_3
REMARK    3  A    between atoms: C_2  and  C_4
REMARK    4  A    between atoms: C_4  and  C_5
REMARK    5  A    between atoms: C_5  and  N_7
REMARK    6  A    between atoms: C_5  and  C_30
REMARK    7  A    between atoms: C_8  and  C_10
REMARK    8  A    between atoms: C_10  and  C_12
REMARK    9  A    between atoms: C_10  and  N_15
REMARK   10  A    between atoms: C_12  and  C_13
REMARK   11  A    between atoms: C_12  and  C_14
REMARK   12  A    between atoms: C_16  and  C_18
REMARK   13  A    between atoms: C_18  and  C_20
REMARK   14  A    between atoms: C_18  and  N_21
REMARK   15  A    between atoms: C_22  and  C_24
REMARK   16  A    between atoms: C_27  and  C_28
REMARK   17  A    between atoms: N_32  and  C_33
REMARK   18  A    between atoms: C_33  and  C_35
REMARK   19  A    between atoms: C_33  and  C_47
REMARK   20  A    between atoms: C_36  and  C_37
REMARK   21  A    between atoms: C_37  and  O_39
REMARK   22  A    between atoms: O_39  and  C_40
REMARK   23  A    between atoms: C_40  and  C_41
REMARK   24  A    between atoms: C_47  and  C_48
REMARK                            x       y       z     vdW  Elec       q    Type
REMARK                         _______ _______ _______ _____ _____    ______ ____
ROOT
ATOM      1  C   UNL     1       9.483   2.633  24.500  0.00  0.00    +0.159 C 
ENDROOT
BRANCH   1   2
ATOM      2  C   UNL     1       8.232   3.306  25.115  0.00  0.00    +0.234 C 
ATOM      3  N   UNL     1       7.018   2.841  24.641  0.00  0.00    -0.307 N 
ATOM      4  H   UNL     1       7.007   2.169  23.887  0.00  0.00    +0.149 HD
ATOM      5  O   UNL     1       8.325   4.186  25.970  0.00  0.00    -0.274 OA
BRANCH   3   6
ATOM      6  C   UNL     1       5.747   3.215  25.244  0.00  0.00    +0.097 C 
BRANCH   6   7
ATOM      7  C   UNL     1       5.025   1.936  25.585  0.00  0.00    +0.002 C 
ATOM      8  C   UNL     1       4.601   1.531  26.798  0.00  0.00    +0.089 C 
BRANCH   8   9
ATOM      9  C   UNL     1       3.891   0.237  26.931  0.00  0.00    +0.332 C 
ATOM     10  O   UNL     1       2.711   0.067  26.661  0.00  0.00    -0.246 OA
BRANCH   9  11
ATOM     11  O   UNL     1       4.750  -0.685  27.422  0.00  0.00    -0.457 OA
BRANCH  11  12
ATOM     12  C   UNL     1       4.324  -1.360  28.616  0.00  0.00    +0.268 C 
BRANCH  12  13
ATOM     13  C   UNL     1       3.975  -2.791  28.295  0.00  0.00    -0.010 A 
ATOM     14  C   UNL     1       4.990  -3.741  28.112  0.00  0.00    +0.007 A 
ATOM     15  C   UNL     1       4.673  -5.070  27.821  0.00  0.00    +0.000 A 
ATOM     16  C   UNL     1       3.340  -5.462  27.714  0.00  0.00    +0.000 A 
ATOM     17  C   UNL     1       2.323  -4.526  27.894  0.00  0.00    +0.000 A 
ATOM     18  C   UNL     1       2.638  -3.198  28.184  0.00  0.00    +0.007 A 
ENDBRANCH  12  13
ENDBRANCH  11  12
ENDBRANCH   9  11
ENDBRANCH   8   9
ENDBRANCH   6   7
BRANCH   6  19
ATOM     19  C   UNL     1       4.959   4.177  24.337  0.00  0.00    +0.039 C 
BRANCH  19  20
ATOM     20  C   UNL     1       5.676   5.508  24.064  0.00  0.00    +0.078 C 
ATOM     21  C   UNL     1       6.197   5.563  22.649  0.00  0.00    +0.216 C 
ATOM     22  O   UNL     1       7.195   5.019  22.214  0.00  0.00    -0.276 OA
ATOM     23  N   UNL     1       5.310   6.303  21.881  0.00  0.00    -0.315 N 
ATOM     24  H   UNL     1       5.412   6.358  20.872  0.00  0.00    +0.149 HD
ATOM     25  C   UNL     1       4.188   6.756  22.641  0.00  0.00    +0.105 C 
ATOM     26  C   UNL     1       4.702   6.697  24.067  0.00  0.00    +0.031 C 
ENDBRANCH  19  20
ENDBRANCH   6  19
ENDBRANCH   3   6
ENDBRANCH   1   2
BRANCH   1  27
ATOM     27  N   UNL     1       9.199   1.241  24.102  0.00  0.00    -0.302 N 
ATOM     28  H   UNL     1       8.222   0.968  24.074  0.00  0.00    +0.150 HD
ATOM     29  C   UNL     1      10.153   0.251  24.249  0.00  0.00    +0.234 C 
ATOM     30  O   UNL     1      11.315   0.531  24.553  0.00  0.00    -0.274 OA
BRANCH  29  31
ATOM     31  C   UNL     1       9.779  -1.192  23.790  0.00  0.00    +0.161 C 
BRANCH  31  32
ATOM     32  N   UNL     1       8.825  -1.904  24.651  0.00  0.00    -0.302 N 
ATOM     33  H   UNL     1       8.084  -1.410  25.132  0.00  0.00    +0.150 HD
ATOM     34  C   UNL     1       8.972  -3.255  24.894  0.00  0.00    +0.234 C 
ATOM     35  O   UNL     1       9.942  -3.889  24.473  0.00  0.00    -0.274 OA
BRANCH  34  36
ATOM     36  C   UNL     1       7.849  -3.960  25.691  0.00  0.00    +0.156 C 
ATOM     37  C   UNL     1       8.453  -5.081  26.539  0.00  0.00    +0.038 C 
BRANCH  36  38
ATOM     38  N   UNL     1       6.750  -4.470  24.877  0.00  0.00    -0.299 N 
ATOM     39  H   UNL     1       6.666  -5.465  24.689  0.00  0.00    +0.150 HD
ATOM     40  C   UNL     1       5.686  -3.664  24.522  0.00  0.00    +0.266 C 
ATOM     41  O   UNL     1       5.669  -2.460  24.743  0.00  0.00    -0.268 OA
BRANCH  40  42
ATOM     42  C   UNL     1       4.572  -4.356  23.873  0.00  0.00    +0.168 A 
ATOM     43  C   UNL     1       3.206  -4.312  24.256  0.00  0.00    +0.080 A 
ATOM     44  C   UNL     1       2.575  -5.169  23.390  0.00  0.00    +0.135 A 
ATOM     45  C   UNL     1       1.185  -5.643  23.255  0.00  0.00    +0.089 C 
ATOM     46  O   UNL     1       3.488  -5.667  22.513  0.00  0.00    -0.359 OA
ATOM     47  N   UNL     1       4.743  -5.157  22.807  0.00  0.00    -0.073 NA
ENDBRANCH  40  42
ENDBRANCH  36  38
ENDBRANCH  34  36
ENDBRANCH  31  32
BRANCH  31  48
ATOM     48  C   UNL     1       9.373  -1.187  22.290  0.00  0.00    +0.012 C 
ATOM     49  C   UNL     1       9.776   0.083  21.544  0.00  0.00    +0.009 C 
ATOM     50  C   UNL     1       7.876  -1.451  22.087  0.00  0.00    +0.009 C 
ENDBRANCH  31  48
ENDBRANCH  29  31
ENDBRANCH   1  27
BRANCH   1  51
ATOM     51  C   UNL     1      10.135   3.465  23.365  0.00  0.00    +0.034 C 
BRANCH  51  53
ATOM     52  C   UNL     1      12.380   4.753  23.010  0.00  0.00    +0.007 C 
ATOM     53  C   UNL     1      11.041   4.660  23.746  0.00  0.00    -0.015 C 
ATOM     54  C   UNL     1      10.288   5.977  23.496  0.00  0.00    +0.007 C 
ENDBRANCH  51  53
ENDBRANCH   1  51
TORSDOF 18
ENDMDL
MODEL 9
REMARK VINA RESULT:      -6.4      2.274      6.723
REMARK  Name = 
REMARK  24 active torsions:
REMARK  status: ('A' for Active; 'I' for Inactive)
REMARK    1  A    between atoms: C_1  and  C_2
REMARK    2  A    between atoms: C_2  and  C_3
REMARK    3  A    between atoms: C_2  and  C_4
REMARK    4  A    between atoms: C_4  and  C_5
REMARK    5  A    between atoms: C_5  and  N_7
REMARK    6  A    between atoms: C_5  and  C_30
REMARK    7  A    between atoms: C_8  and  C_10
REMARK    8  A    between atoms: C_10  and  C_12
REMARK    9  A    between atoms: C_10  and  N_15
REMARK   10  A    between atoms: C_12  and  C_13
REMARK   11  A    between atoms: C_12  and  C_14
REMARK   12  A    between atoms: C_16  and  C_18
REMARK   13  A    between atoms: C_18  and  C_20
REMARK   14  A    between atoms: C_18  and  N_21
REMARK   15  A    between atoms: C_22  and  C_24
REMARK   16  A    between atoms: C_27  and  C_28
REMARK   17  A    between atoms: N_32  and  C_33
REMARK   18  A    between atoms: C_33  and  C_35
REMARK   19  A    between atoms: C_33  and  C_47
REMARK   20  A    between atoms: C_36  and  C_37
REMARK   21  A    between atoms: C_37  and  O_39
REMARK   22  A    between atoms: O_39  and  C_40
REMARK   23  A    between atoms: C_40  and  C_41
REMARK   24  A    between atoms: C_47  and  C_48
REMARK                            x       y       z     vdW  Elec       q    Type
REMARK                         _______ _______ _______ _____ _____    ______ ____
ROOT
ATOM      1  C   UNL     1       6.423   4.610  26.244  0.00  0.00    +0.159 C 
ENDROOT
BRANCH   1   2
ATOM      2  C   UNL     1       6.549   3.726  27.509  0.00  0.00    +0.234 C 
ATOM      3  N   UNL     1       5.863   2.525  27.460  0.00  0.00    -0.307 N 
ATOM      4  H   UNL     1       5.271   2.327  26.667  0.00  0.00    +0.149 HD
ATOM      5  O   UNL     1       7.221   4.076  28.478  0.00  0.00    -0.274 OA
BRANCH   3   6
ATOM      6  C   UNL     1       6.028   1.489  28.469  0.00  0.00    +0.097 C 
BRANCH   6   7
ATOM      7  C   UNL     1       6.834   0.381  27.840  0.00  0.00    +0.002 C 
ATOM      8  C   UNL     1       6.955   0.097  26.529  0.00  0.00    +0.089 C 
BRANCH   8   9
ATOM      9  C   UNL     1       7.812  -1.035  26.101  0.00  0.00    +0.332 C 
ATOM     10  O   UNL     1       9.027  -0.974  25.984  0.00  0.00    -0.246 OA
BRANCH   9  11
ATOM     11  O   UNL     1       7.026  -2.104  25.838  0.00  0.00    -0.457 OA
BRANCH  11  12
ATOM     12  C   UNL     1       7.147  -3.205  26.753  0.00  0.00    +0.268 C 
BRANCH  12  13
ATOM     13  C   UNL     1       6.017  -4.177  26.530  0.00  0.00    -0.010 A 
ATOM     14  C   UNL     1       6.173  -5.531  26.865  0.00  0.00    +0.007 A 
ATOM     15  C   UNL     1       5.127  -6.435  26.667  0.00  0.00    +0.000 A 
ATOM     16  C   UNL     1       3.915  -5.996  26.138  0.00  0.00    +0.000 A 
ATOM     17  C   UNL     1       3.748  -4.653  25.803  0.00  0.00    +0.000 A 
ATOM     18  C   UNL     1       4.793  -3.748  25.998  0.00  0.00    +0.007 A 
ENDBRANCH  12  13
ENDBRANCH  11  12
ENDBRANCH   9  11
ENDBRANCH   8   9
ENDBRANCH   6   7
BRANCH   6  19
ATOM     19  C   UNL     1       4.671   1.050  29.047  0.00  0.00    +0.039 C 
BRANCH  19  20
ATOM     20  C   UNL     1       3.472   1.372  28.143  0.00  0.00    +0.078 C 
ATOM     21  C   UNL     1       3.010   0.146  27.396  0.00  0.00    +0.216 C 
ATOM     22  O   UNL     1       3.526  -0.351  26.412  0.00  0.00    -0.276 OA
ATOM     23  N   UNL     1       1.907  -0.380  28.051  0.00  0.00    -0.315 N 
ATOM     24  H   UNL     1       1.517  -1.278  27.781  0.00  0.00    +0.149 HD
ATOM     25  C   UNL     1       1.567   0.368  29.220  0.00  0.00    +0.105 C 
ATOM     26  C   UNL     1       2.214   1.715  28.956  0.00  0.00    +0.031 C 
ENDBRANCH  19  20
ENDBRANCH   6  19
ENDBRANCH   3   6
ENDBRANCH   1   2
BRANCH   1  27
ATOM     27  N   UNL     1       7.427   4.239  25.230  0.00  0.00    -0.302 N 
ATOM     28  H   UNL     1       7.260   3.375  24.722  0.00  0.00    +0.150 HD
ATOM     29  C   UNL     1       8.722   4.717  25.303  0.00  0.00    +0.234 C 
ATOM     30  O   UNL     1       9.029   5.596  26.112  0.00  0.00    -0.274 OA
BRANCH  29  31
ATOM     31  C   UNL     1       9.719   4.288  24.182  0.00  0.00    +0.161 C 
BRANCH  31  32
ATOM     32  N   UNL     1       9.223   3.267  23.250  0.00  0.00    -0.302 N 
ATOM     33  H   UNL     1       8.549   3.496  22.531  0.00  0.00    +0.150 HD
ATOM     34  C   UNL     1       9.603   1.946  23.390  0.00  0.00    +0.234 C 
ATOM     35  O   UNL     1      10.293   1.566  24.338  0.00  0.00    -0.274 OA
BRANCH  34  36
ATOM     36  C   UNL     1       9.156   0.958  22.286  0.00  0.00    +0.156 C 
ATOM     37  C   UNL     1       8.037   1.593  21.458  0.00  0.00    +0.038 C 
BRANCH  36  38
ATOM     38  N   UNL     1       8.750  -0.357  22.773  0.00  0.00    -0.299 N 
ATOM     39  H   UNL     1       7.809  -0.509  23.125  0.00  0.00    +0.150 HD
ATOM     40  C   UNL     1       9.541  -1.472  22.572  0.00  0.00    +0.266 C 
ATOM     41  O   UNL     1      10.672  -1.402  22.110  0.00  0.00    -0.268 OA
BRANCH  40  42
ATOM     42  C   UNL     1       8.922  -2.746  22.939  0.00  0.00    +0.168 A 
ATOM     43  C   UNL     1       7.702  -3.272  22.441  0.00  0.00    +0.080 A 
ATOM     44  C   UNL     1       7.521  -4.443  23.133  0.00  0.00    +0.135 A 
ATOM     45  C   UNL     1       6.450  -5.456  23.163  0.00  0.00    +0.089 C 
ATOM     46  O   UNL     1       8.581  -4.638  23.963  0.00  0.00    -0.359 OA
ATOM     47  N   UNL     1       9.467  -3.578  23.843  0.00  0.00    -0.073 NA
ENDBRANCH  40  42
ENDBRANCH  36  38
ENDBRANCH  34  36
ENDBRANCH  31  32
BRANCH  31  48
ATOM     48  C   UNL     1      10.298   5.544  23.473  0.00  0.00    +0.012 C 
ATOM     49  C   UNL     1      11.592   6.065  24.095  0.00  0.00    +0.009 C 
ATOM     50  C   UNL     1       9.277   6.685  23.378  0.00  0.00    +0.009 C 
ENDBRANCH  31  48
ENDBRANCH  29  31
ENDBRANCH   1  27
BRANCH   1  51
ATOM     51  C   UNL     1       4.981   4.668  25.674  0.00  0.00    +0.034 C 
BRANCH  51  53
ATOM     52  C   UNL     1       4.437   2.611  24.159  0.00  0.00    +0.007 C 
ATOM     53  C   UNL     1       4.720   4.112  24.254  0.00  0.00    -0.015 C 
ATOM     54  C   UNL     1       3.524   4.845  23.626  0.00  0.00    +0.007 C 
ENDBRANCH  51  53
ENDBRANCH   1  51
TORSDOF 18
ENDMDL
