MODEL 1
REMARK VINA RESULT:      -6.2      0.000      0.000
REMARK  Name = 
REMARK  8 active torsions:
REMARK  status: ('A' for Active; 'I' for Inactive)
REMARK    1  A    between atoms: N_1  and  C_2
REMARK    2  A    between atoms: C_2  and  C_3
REMARK    3  A    between atoms: N_5  and  C_6
REMARK    4  A    between atoms: C_9  and  C_11
REMARK    5  A    between atoms: C_11  and  O_12
REMARK    6  A    between atoms: O_12  and  P_13
REMARK    7  A    between atoms: C_17  and  O_19
REMARK    8  A    between atoms: C_20  and  O_22
REMARK                            x       y       z     vdW  Elec       q    Type
REMARK                         _______ _______ _______ _____ _____    ______ ____
ROOT
ATOM      1  C   UNL     1      10.272   3.000  23.687  0.00  0.00    +0.237 C 
ATOM      2  C   UNL     1       9.056   2.800  22.765  0.00  0.00    +0.192 C 
ATOM      3  C   UNL     1       9.022   1.296  22.478  0.00  0.00    +0.178 C 
ATOM      4  C   UNL     1      10.310   0.755  23.097  0.00  0.00    +0.178 C 
ATOM      5  O   UNL     1      10.751   1.715  24.078  0.00  0.00    -0.348 OA
ENDROOT
BRANCH   1   7
ATOM      6  C   UNL     1      11.712   4.978  23.291  0.00  0.00    +0.229 C 
ATOM      7  N   UNL     1      11.382   3.668  23.053  0.00  0.00    -0.287 N 
ATOM      8  H   UNL     1      11.881   3.185  22.313  0.00  0.00    +0.151 HD
ATOM      9  O   UNL     1      11.154   5.697  24.113  0.00  0.00    -0.274 OA
BRANCH   6  10
ATOM     10  C   UNL     1      12.914   5.476  22.477  0.00  0.00    +0.174 C 
BRANCH  10  11
ATOM     11  N   UNL     1      14.192   5.116  23.118  0.00  0.00    -0.322 NA
ATOM     12  H   UNL     1      14.071   5.165  24.132  0.00  0.00    +0.119 HD
ATOM     13  H   UNL     1      14.403   4.143  22.907  0.00  0.00    +0.119 HD
ENDBRANCH  10  11
ENDBRANCH   6  10
ENDBRANCH   1   7
BRANCH   2  14
ATOM     14  O   UNL     1       7.844   3.227  23.422  0.00  0.00    -0.385 OA
ATOM     15  H   UNL     1       7.129   3.182  22.760  0.00  0.00    +0.210 HD
ENDBRANCH   2  14
BRANCH   3  16
ATOM     16  O   UNL     1       8.992   1.052  21.065  0.00  0.00    -0.386 OA
ATOM     17  H   UNL     1       8.069   0.732  20.907  0.00  0.00    +0.210 HD
ENDBRANCH   3  16
BRANCH   4  18
ATOM     18  C   UNL     1      10.124  -0.621  23.733  0.00  0.00    +0.198 C 
BRANCH  18  19
ATOM     19  O   UNL     1       8.835  -1.119  23.427  0.00  0.00    -0.365 OA
BRANCH  19  20
ATOM     20  P   UNL     1       8.724  -2.834  23.619  0.00  0.00    -0.015 P 
ATOM     21  O   UNL     1       8.625  -4.369  23.790  0.00  0.00    -0.638 OA
ATOM     22  O   UNL     1      10.263  -2.761  23.697  0.00  0.00    -0.577 OA
ATOM     23  O   UNL     1       7.977  -2.776  22.268  0.00  0.00    -0.577 OA
ENDBRANCH  19  20
ENDBRANCH  18  19
ENDBRANCH   4  18
TORSDOF 8
ENDMDL
MODEL 2
REMARK VINA RESULT:      -5.7      4.444      6.953
REMARK  Name = 
REMARK  8 active torsions:
REMARK  status: ('A' for Active; 'I' for Inactive)
REMARK    1  A    between atoms: N_1  and  C_2
REMARK    2  A    between atoms: C_2  and  C_3
REMARK    3  A    between atoms: N_5  and  C_6
REMARK    4  A    between atoms: C_9  and  C_11
REMARK    5  A    between atoms: C_11  and  O_12
REMARK    6  A    between atoms: O_12  and  P_13
REMARK    7  A    between atoms: C_17  and  O_19
REMARK    8  A    between atoms: C_20  and  O_22
REMARK                            x       y       z     vdW  Elec       q    Type
REMARK                         _______ _______ _______ _____ _____    ______ ____
ROOT
ATOM      1  C   UNL     1       9.166  -3.534  24.219  0.00  0.00    +0.237 C 
ATOM      2  C   UNL     1       9.412  -4.497  25.394  0.00  0.00    +0.192 C 
ATOM      3  C   UNL     1       8.018  -4.964  25.822  0.00  0.00    +0.178 C 
ATOM      4  C   UNL     1       7.056  -4.112  24.995  0.00  0.00    +0.178 C 
ATOM      5  O   UNL     1       7.789  -3.616  23.858  0.00  0.00    -0.348 OA
ENDROOT
BRANCH   1   7
ATOM      6  C   UNL     1      10.060  -1.283  23.690  0.00  0.00    +0.229 C 
ATOM      7  N   UNL     1       9.417  -2.149  24.538  0.00  0.00    -0.287 N 
ATOM      8  H   UNL     1       9.207  -1.821  25.474  0.00  0.00    +0.151 HD
ATOM      9  O   UNL     1      10.424  -1.566  22.553  0.00  0.00    -0.274 OA
BRANCH   6  10
ATOM     10  C   UNL     1      10.237   0.130  24.260  0.00  0.00    +0.174 C 
BRANCH  10  11
ATOM     11  N   UNL     1       9.904   0.185  25.695  0.00  0.00    -0.322 NA
ATOM     12  H   UNL     1       9.187  -0.518  25.889  0.00  0.00    +0.119 HD
ATOM     13  H   UNL     1      10.722  -0.094  26.233  0.00  0.00    +0.119 HD
ENDBRANCH  10  11
ENDBRANCH   6  10
ENDBRANCH   1   7
BRANCH   2  14
ATOM     14  O   UNL     1      10.223  -5.614  24.974  0.00  0.00    -0.385 OA
ATOM     15  H   UNL     1       9.869  -6.408  25.417  0.00  0.00    +0.210 HD
ENDBRANCH   2  14
BRANCH   3  16
ATOM     16  O   UNL     1       7.820  -4.745  27.225  0.00  0.00    -0.386 OA
ATOM     17  H   UNL     1       6.839  -4.815  27.332  0.00  0.00    +0.210 HD
ENDBRANCH   3  16
BRANCH   4  18
ATOM     18  C   UNL     1       5.820  -4.888  24.546  0.00  0.00    +0.198 C 
BRANCH  18  19
ATOM     19  O   UNL     1       5.859  -6.199  25.079  0.00  0.00    -0.365 OA
BRANCH  19  20
ATOM     20  P   UNL     1       4.458  -6.574  26.021  0.00  0.00    -0.015 P 
ATOM     21  O   UNL     1       3.204  -6.910  26.864  0.00  0.00    -0.638 OA
ATOM     22  O   UNL     1       5.488  -6.900  27.123  0.00  0.00    -0.577 OA
ATOM     23  O   UNL     1       4.152  -7.568  24.878  0.00  0.00    -0.577 OA
ENDBRANCH  19  20
ENDBRANCH  18  19
ENDBRANCH   4  18
TORSDOF 8
ENDMDL
MODEL 3
REMARK VINA RESULT:      -5.6      5.319      8.360
REMARK  Name = 
REMARK  8 active torsions:
REMARK  status: ('A' for Active; 'I' for Inactive)
REMARK    1  A    between atoms: N_1  and  C_2
REMARK    2  A    between atoms: C_2  and  C_3
REMARK    3  A    between atoms: N_5  and  C_6
REMARK    4  A    between atoms: C_9  and  C_11
REMARK    5  A    between atoms: C_11  and  O_12
REMARK    6  A    between atoms: O_12  and  P_13
REMARK    7  A    between atoms: C_17  and  O_19
REMARK    8  A    between atoms: C_20  and  O_22
REMARK                            x       y       z     vdW  Elec       q    Type
REMARK                         _______ _______ _______ _____ _____    ______ ____
ROOT
ATOM      1  C   UNL     1       8.453  -4.118  26.275  0.00  0.00    +0.237 C 
ATOM      2  C   UNL     1       9.038  -4.500  24.904  0.00  0.00    +0.192 C 
ATOM      3  C   UNL     1       9.177  -3.175  24.151  0.00  0.00    +0.178 C 
ATOM      4  C   UNL     1       8.502  -2.144  25.055  0.00  0.00    +0.178 C 
ATOM      5  O   UNL     1       8.468  -2.697  26.386  0.00  0.00    -0.348 OA
ENDROOT
BRANCH   1   7
ATOM      6  C   UNL     1       6.689  -5.516  27.317  0.00  0.00    +0.229 C 
ATOM      7  N   UNL     1       7.079  -4.522  26.456  0.00  0.00    -0.287 N 
ATOM      8  H   UNL     1       6.374  -4.130  25.841  0.00  0.00    +0.151 HD
ATOM      9  O   UNL     1       7.447  -6.115  28.073  0.00  0.00    -0.274 OA
BRANCH   6  10
ATOM     10  C   UNL     1       5.179  -5.785  27.315  0.00  0.00    +0.174 C 
BRANCH  10  11
ATOM     11  N   UNL     1       4.879  -7.207  27.567  0.00  0.00    -0.322 NA
ATOM     12  H   UNL     1       4.290  -7.554  26.807  0.00  0.00    +0.119 HD
ATOM     13  H   UNL     1       5.746  -7.739  27.516  0.00  0.00    +0.119 HD
ENDBRANCH  10  11
ENDBRANCH   6  10
ENDBRANCH   1   7
BRANCH   2  14
ATOM     14  O   UNL     1      10.322  -5.141  25.060  0.00  0.00    -0.385 OA
ATOM     15  H   UNL     1      10.862  -4.892  24.287  0.00  0.00    +0.210 HD
ENDBRANCH   2  14
BRANCH   3  16
ATOM     16  O   UNL     1       8.521  -3.246  22.878  0.00  0.00    -0.386 OA
ATOM     17  H   UNL     1       8.769  -4.142  22.541  0.00  0.00    +0.210 HD
ENDBRANCH   3  16
BRANCH   4  18
ATOM     18  C   UNL     1       9.218  -0.796  25.048  0.00  0.00    +0.198 C 
BRANCH  18  19
ATOM     19  O   UNL     1      10.228  -0.796  24.055  0.00  0.00    -0.365 OA
BRANCH  19  20
ATOM     20  P   UNL     1      10.068   0.521  22.946  0.00  0.00    -0.015 P 
ATOM     21  O   UNL     1       9.924   1.700  21.953  0.00  0.00    -0.638 OA
ATOM     22  O   UNL     1       9.102   1.085  24.009  0.00  0.00    -0.577 OA
ATOM     23  O   UNL     1       9.628  -0.578  21.953  0.00  0.00    -0.577 OA
ENDBRANCH  19  20
ENDBRANCH  18  19
ENDBRANCH   4  18
TORSDOF 8
ENDMDL
MODEL 4
REMARK VINA RESULT:      -5.6      3.966      7.104
REMARK  Name = 
REMARK  8 active torsions:
REMARK  status: ('A' for Active; 'I' for Inactive)
REMARK    1  A    between atoms: N_1  and  C_2
REMARK    2  A    between atoms: C_2  and  C_3
REMARK    3  A    between atoms: N_5  and  C_6
REMARK    4  A    between atoms: C_9  and  C_11
REMARK    5  A    between atoms: C_11  and  O_12
REMARK    6  A    between atoms: O_12  and  P_13
REMARK    7  A    between atoms: C_17  and  O_19
REMARK    8  A    between atoms: C_20  and  O_22
REMARK                            x       y       z     vdW  Elec       q    Type
REMARK                         _______ _______ _______ _____ _____    ______ ____
ROOT
ATOM      1  C   UNL     1       9.762  -2.041  23.811  0.00  0.00    +0.237 C 
ATOM      2  C   UNL     1       9.232  -1.491  22.475  0.00  0.00    +0.192 C 
ATOM      3  C   UNL     1       9.008   0.003  22.723  0.00  0.00    +0.178 C 
ATOM      4  C   UNL     1       9.248   0.185  24.222  0.00  0.00    +0.178 C 
ATOM      5  O   UNL     1      10.033  -0.937  24.671  0.00  0.00    -0.348 OA
ENDROOT
BRANCH   1   7
ATOM      6  C   UNL     1       9.087  -4.164  24.899  0.00  0.00    +0.229 C 
ATOM      7  N   UNL     1       8.817  -2.876  24.513  0.00  0.00    -0.287 N 
ATOM      8  H   UNL     1       7.869  -2.538  24.637  0.00  0.00    +0.151 HD
ATOM      9  O   UNL     1      10.172  -4.719  24.755  0.00  0.00    -0.274 OA
BRANCH   6  10
ATOM     10  C   UNL     1       7.917  -4.861  25.606  0.00  0.00    +0.174 C 
BRANCH  10  11
ATOM     11  N   UNL     1       8.377  -5.672  26.748  0.00  0.00    -0.322 NA
ATOM     12  H   UNL     1       8.601  -6.610  26.411  0.00  0.00    +0.119 HD
ATOM     13  H   UNL     1       9.251  -5.283  27.096  0.00  0.00    +0.119 HD
ENDBRANCH  10  11
ENDBRANCH   6  10
ENDBRANCH   1   7
BRANCH   2  14
ATOM     14  O   UNL     1      10.196  -1.700  21.421  0.00  0.00    -0.385 OA
ATOM     15  H   UNL     1      10.095  -2.621  21.118  0.00  0.00    +0.210 HD
ENDBRANCH   2  14
BRANCH   3  16
ATOM     16  O   UNL     1       7.671   0.380  22.369  0.00  0.00    -0.386 OA
ATOM     17  H   UNL     1       7.387  -0.338  21.751  0.00  0.00    +0.210 HD
ENDBRANCH   3  16
BRANCH   4  18
ATOM     18  C   UNL     1       9.947   1.502  24.550  0.00  0.00    +0.198 C 
BRANCH  18  19
ATOM     19  O   UNL     1       9.781   2.412  23.479  0.00  0.00    -0.365 OA
BRANCH  19  20
ATOM     20  P   UNL     1       8.782   3.759  23.903  0.00  0.00    -0.015 P 
ATOM     21  O   UNL     1       7.890   4.966  24.282  0.00  0.00    -0.638 OA
ATOM     22  O   UNL     1       8.001   3.372  22.631  0.00  0.00    -0.577 OA
ATOM     23  O   UNL     1      10.104   4.556  23.831  0.00  0.00    -0.577 OA
ENDBRANCH  19  20
ENDBRANCH  18  19
ENDBRANCH   4  18
TORSDOF 8
ENDMDL
MODEL 5
REMARK VINA RESULT:      -5.6      4.916      7.262
REMARK  Name = 
REMARK  8 active torsions:
REMARK  status: ('A' for Active; 'I' for Inactive)
REMARK    1  A    between atoms: N_1  and  C_2
REMARK    2  A    between atoms: C_2  and  C_3
REMARK    3  A    between atoms: N_5  and  C_6
REMARK    4  A    between atoms: C_9  and  C_11
REMARK    5  A    between atoms: C_11  and  O_12
REMARK    6  A    between atoms: O_12  and  P_13
REMARK    7  A    between atoms: C_17  and  O_19
REMARK    8  A    between atoms: C_20  and  O_22
REMARK                            x       y       z     vdW  Elec       q    Type
REMARK                         _______ _______ _______ _____ _____    ______ ____
ROOT
ATOM      1  C   UNL     1       8.037  -3.076  24.582  0.00  0.00    +0.237 C 
ATOM      2  C   UNL     1       8.919  -4.318  24.800  0.00  0.00    +0.192 C 
ATOM      3  C   UNL     1       8.509  -4.857  26.174  0.00  0.00    +0.178 C 
ATOM      4  C   UNL     1       7.556  -3.802  26.734  0.00  0.00    +0.178 C 
ATOM      5  O   UNL     1       7.059  -3.036  25.619  0.00  0.00    -0.348 OA
ENDROOT
BRANCH   1   7
ATOM      6  C   UNL     1       9.552  -1.349  23.650  0.00  0.00    +0.229 C 
ATOM      7  N   UNL     1       8.758  -1.828  24.660  0.00  0.00    -0.287 N 
ATOM      8  H   UNL     1       8.768  -1.329  25.543  0.00  0.00    +0.151 HD
ATOM      9  O   UNL     1       9.679  -1.884  22.553  0.00  0.00    -0.274 OA
BRANCH   6  10
ATOM     10  C   UNL     1      10.239  -0.016  23.976  0.00  0.00    +0.174 C 
BRANCH  10  11
ATOM     11  N   UNL     1      10.160   0.300  25.414  0.00  0.00    -0.322 NA
ATOM     12  H   UNL     1       9.681  -0.468  25.889  0.00  0.00    +0.119 HD
ATOM     13  H   UNL     1      11.103   0.320  25.797  0.00  0.00    +0.119 HD
ENDBRANCH  10  11
ENDBRANCH   6  10
ENDBRANCH   1   7
BRANCH   2  14
ATOM     14  O   UNL     1       8.680  -5.299  23.769  0.00  0.00    -0.385 OA
ATOM     15  H   UNL     1       7.870  -5.028  23.298  0.00  0.00    +0.210 HD
ENDBRANCH   2  14
BRANCH   3  16
ATOM     16  O   UNL     1       9.656  -5.012  27.020  0.00  0.00    -0.386 OA
ATOM     17  H   UNL     1       9.933  -5.948  26.862  0.00  0.00    +0.210 HD
ENDBRANCH   3  16
BRANCH   4  18
ATOM     18  C   UNL     1       6.404  -4.412  27.529  0.00  0.00    +0.198 C 
BRANCH  18  19
ATOM     19  O   UNL     1       6.868  -5.530  28.262  0.00  0.00    -0.365 OA
BRANCH  19  20
ATOM     20  P   UNL     1       5.611  -6.292  29.174  0.00  0.00    -0.015 P 
ATOM     21  O   UNL     1       4.487  -6.975  29.990  0.00  0.00    -0.638 OA
ATOM     22  O   UNL     1       5.860  -5.141  30.170  0.00  0.00    -0.577 OA
ATOM     23  O   UNL     1       6.538  -7.528  29.115  0.00  0.00    -0.577 OA
ENDBRANCH  19  20
ENDBRANCH  18  19
ENDBRANCH   4  18
TORSDOF 8
ENDMDL
MODEL 6
REMARK VINA RESULT:      -5.5      3.128      4.754
REMARK  Name = 
REMARK  8 active torsions:
REMARK  status: ('A' for Active; 'I' for Inactive)
REMARK    1  A    between atoms: N_1  and  C_2
REMARK    2  A    between atoms: C_2  and  C_3
REMARK    3  A    between atoms: N_5  and  C_6
REMARK    4  A    between atoms: C_9  and  C_11
REMARK    5  A    between atoms: C_11  and  O_12
REMARK    6  A    between atoms: O_12  and  P_13
REMARK    7  A    between atoms: C_17  and  O_19
REMARK    8  A    between atoms: C_20  and  O_22
REMARK                            x       y       z     vdW  Elec       q    Type
REMARK                         _______ _______ _______ _____ _____    ______ ____
ROOT
ATOM      1  C   UNL     1       9.454  -1.295  24.347  0.00  0.00    +0.237 C 
ATOM      2  C   UNL     1       8.129  -1.176  25.121  0.00  0.00    +0.192 C 
ATOM      3  C   UNL     1       7.328  -2.420  24.727  0.00  0.00    +0.178 C 
ATOM      4  C   UNL     1       8.156  -3.078  23.624  0.00  0.00    +0.178 C 
ATOM      5  O   UNL     1       9.505  -2.588  23.749  0.00  0.00    -0.348 OA
ENDROOT
BRANCH   1   7
ATOM      6  C   UNL     1      10.099   0.916  23.430  0.00  0.00    +0.229 C 
ATOM      7  N   UNL     1       9.587  -0.347  23.268  0.00  0.00    -0.287 N 
ATOM      8  H   UNL     1       9.185  -0.578  22.366  0.00  0.00    +0.151 HD
ATOM      9  O   UNL     1      10.562   1.348  24.480  0.00  0.00    -0.274 OA
BRANCH   6  10
ATOM     10  C   UNL     1      10.113   1.752  22.143  0.00  0.00    +0.174 C 
BRANCH  10  11
ATOM     11  N   UNL     1       9.052   1.332  21.209  0.00  0.00    -0.322 NA
ATOM     12  H   UNL     1       9.491   0.906  20.390  0.00  0.00    +0.119 HD
ATOM     13  H   UNL     1       8.502   0.596  21.647  0.00  0.00    +0.119 HD
ENDBRANCH  10  11
ENDBRANCH   6  10
ENDBRANCH   1   7
BRANCH   2  14
ATOM     14  O   UNL     1       8.372  -1.149  26.543  0.00  0.00    -0.385 OA
ATOM     15  H   UNL     1       7.790  -0.462  26.920  0.00  0.00    +0.210 HD
ENDBRANCH   2  14
BRANCH   3  16
ATOM     16  O   UNL     1       6.030  -2.052  24.241  0.00  0.00    -0.386 OA
ATOM     17  H   UNL     1       5.932  -2.590  23.417  0.00  0.00    +0.210 HD
ENDBRANCH   3  16
BRANCH   4  18
ATOM     18  C   UNL     1       8.125  -4.603  23.696  0.00  0.00    +0.198 C 
BRANCH  18  19
ATOM     19  O   UNL     1       6.798  -5.064  23.518  0.00  0.00    -0.365 OA
BRANCH  19  20
ATOM     20  P   UNL     1       6.329  -5.103  21.853  0.00  0.00    -0.015 P 
ATOM     21  O   UNL     1       5.909  -5.139  20.364  0.00  0.00    -0.638 OA
ATOM     22  O   UNL     1       5.084  -4.343  22.356  0.00  0.00    -0.577 OA
ATOM     23  O   UNL     1       6.465  -6.634  22.017  0.00  0.00    -0.577 OA
ENDBRANCH  19  20
ENDBRANCH  18  19
ENDBRANCH   4  18
TORSDOF 8
ENDMDL
MODEL 7
REMARK VINA RESULT:      -5.5      5.783      8.402
REMARK  Name = 
REMARK  8 active torsions:
REMARK  status: ('A' for Active; 'I' for Inactive)
REMARK    1  A    between atoms: N_1  and  C_2
REMARK    2  A    between atoms: C_2  and  C_3
REMARK    3  A    between atoms: N_5  and  C_6
REMARK    4  A    between atoms: C_9  and  C_11
REMARK    5  A    between atoms: C_11  and  O_12
REMARK    6  A    between atoms: O_12  and  P_13
REMARK    7  A    between atoms: C_17  and  O_19
REMARK    8  A    between atoms: C_20  and  O_22
REMARK                            x       y       z     vdW  Elec       q    Type
REMARK                         _______ _______ _______ _____ _____    ______ ____
ROOT
ATOM      1  C   UNL     1       6.786  -4.482  25.465  0.00  0.00    +0.237 C 
ATOM      2  C   UNL     1       7.893  -5.412  25.990  0.00  0.00    +0.192 C 
ATOM      3  C   UNL     1       9.184  -4.886  25.355  0.00  0.00    +0.178 C 
ATOM      4  C   UNL     1       8.720  -3.812  24.372  0.00  0.00    +0.178 C 
ATOM      5  O   UNL     1       7.403  -3.394  24.782  0.00  0.00    -0.348 OA
ENDROOT
BRANCH   1   7
ATOM      6  C   UNL     1       4.632  -4.662  24.250  0.00  0.00    +0.229 C 
ATOM      7  N   UNL     1       5.903  -5.108  24.510  0.00  0.00    -0.287 N 
ATOM      8  H   UNL     1       6.190  -5.984  24.086  0.00  0.00    +0.151 HD
ATOM      9  O   UNL     1       4.136  -3.652  24.739  0.00  0.00    -0.274 OA
BRANCH   6  10
ATOM     10  C   UNL     1       3.875  -5.507  23.217  0.00  0.00    +0.174 C 
BRANCH  10  11
ATOM     11  N   UNL     1       4.775  -6.023  22.170  0.00  0.00    -0.322 NA
ATOM     12  H   UNL     1       5.618  -5.445  22.152  0.00  0.00    +0.119 HD
ATOM     13  H   UNL     1       5.083  -6.958  22.433  0.00  0.00    +0.119 HD
ENDBRANCH  10  11
ENDBRANCH   6  10
ENDBRANCH   1   7
BRANCH   2  14
ATOM     14  O   UNL     1       7.967  -5.352  27.430  0.00  0.00    -0.385 OA
ATOM     15  H   UNL     1       7.507  -6.141  27.774  0.00  0.00    +0.210 HD
ENDBRANCH   2  14
BRANCH   3  16
ATOM     16  O   UNL     1       9.877  -5.940  24.672  0.00  0.00    -0.386 OA
ATOM     17  H   UNL     1      10.828  -5.687  24.766  0.00  0.00    +0.210 HD
ENDBRANCH   3  16
BRANCH   4  18
ATOM     18  C   UNL     1       9.672  -2.620  24.312  0.00  0.00    +0.198 C 
BRANCH  18  19
ATOM     19  O   UNL     1      10.270  -2.548  23.031  0.00  0.00    -0.365 OA
BRANCH  19  20
ATOM     20  P   UNL     1      10.033  -1.012  22.273  0.00  0.00    -0.015 P 
ATOM     21  O   UNL     1       9.819   0.363  21.595  0.00  0.00    -0.638 OA
ATOM     22  O   UNL     1      10.175  -0.465  23.709  0.00  0.00    -0.577 OA
ATOM     23  O   UNL     1       8.713  -1.642  21.773  0.00  0.00    -0.577 OA
ENDBRANCH  19  20
ENDBRANCH  18  19
ENDBRANCH   4  18
TORSDOF 8
ENDMDL
MODEL 8
REMARK VINA RESULT:      -5.5      4.155      6.281
REMARK  Name = 
REMARK  8 active torsions:
REMARK  status: ('A' for Active; 'I' for Inactive)
REMARK    1  A    between atoms: N_1  and  C_2
REMARK    2  A    between atoms: C_2  and  C_3
REMARK    3  A    between atoms: N_5  and  C_6
REMARK    4  A    between atoms: C_9  and  C_11
REMARK    5  A    between atoms: C_11  and  O_12
REMARK    6  A    between atoms: O_12  and  P_13
REMARK    7  A    between atoms: C_17  and  O_19
REMARK    8  A    between atoms: C_20  and  O_22
REMARK                            x       y       z     vdW  Elec       q    Type
REMARK                         _______ _______ _______ _____ _____    ______ ____
ROOT
ATOM      1  C   UNL     1       7.035  -2.605  22.908  0.00  0.00    +0.237 C 
ATOM      2  C   UNL     1       6.455  -3.789  22.115  0.00  0.00    +0.192 C 
ATOM      3  C   UNL     1       6.932  -5.037  22.864  0.00  0.00    +0.178 C 
ATOM      4  C   UNL     1       7.897  -4.506  23.923  0.00  0.00    +0.178 C 
ATOM      5  O   UNL     1       7.596  -3.110  24.117  0.00  0.00    -0.348 OA
ENDROOT
BRANCH   1   7
ATOM      6  C   UNL     1       8.411  -0.596  22.441  0.00  0.00    +0.229 C 
ATOM      7  N   UNL     1       8.104  -1.915  22.226  0.00  0.00    -0.287 N 
ATOM      8  H   UNL     1       8.586  -2.392  21.471  0.00  0.00    +0.151 HD
ATOM      9  O   UNL     1       7.867   0.116  23.280  0.00  0.00    -0.274 OA
BRANCH   6  10
ATOM     10  C   UNL     1       9.569  -0.076  21.578  0.00  0.00    +0.174 C 
BRANCH  10  11
ATOM     11  N   UNL     1       9.530   1.391  21.442  0.00  0.00    -0.322 NA
ATOM     12  H   UNL     1      10.366   1.780  21.884  0.00  0.00    +0.119 HD
ATOM     13  H   UNL     1       9.597   1.631  20.455  0.00  0.00    +0.119 HD
ENDBRANCH  10  11
ENDBRANCH   6  10
ENDBRANCH   1   7
BRANCH   2  14
ATOM     14  O   UNL     1       5.013  -3.725  22.088  0.00  0.00    -0.385 OA
ATOM     15  H   UNL     1       4.734  -3.947  21.180  0.00  0.00    +0.210 HD
ENDBRANCH   2  14
BRANCH   3  16
ATOM     16  O   UNL     1       7.599  -5.939  21.970  0.00  0.00    -0.386 OA
ATOM     17  H   UNL     1       8.387  -5.422  21.669  0.00  0.00    +0.210 HD
ENDBRANCH   3  16
BRANCH   4  18
ATOM     18  C   UNL     1       7.800  -5.269  25.242  0.00  0.00    +0.198 C 
BRANCH  18  19
ATOM     19  O   UNL     1       6.475  -5.206  25.735  0.00  0.00    -0.365 OA
BRANCH  19  20
ATOM     20  P   UNL     1       6.400  -5.353  27.457  0.00  0.00    -0.015 P 
ATOM     21  O   UNL     1       6.333  -5.485  28.998  0.00  0.00    -0.638 OA
ATOM     22  O   UNL     1       7.924  -5.129  27.379  0.00  0.00    -0.577 OA
ATOM     23  O   UNL     1       5.766  -6.729  27.152  0.00  0.00    -0.577 OA
ENDBRANCH  19  20
ENDBRANCH  18  19
ENDBRANCH   4  18
TORSDOF 8
ENDMDL
MODEL 9
REMARK VINA RESULT:      -5.4      2.609      4.322
REMARK  Name = 
REMARK  8 active torsions:
REMARK  status: ('A' for Active; 'I' for Inactive)
REMARK    1  A    between atoms: N_1  and  C_2
REMARK    2  A    between atoms: C_2  and  C_3
REMARK    3  A    between atoms: N_5  and  C_6
REMARK    4  A    between atoms: C_9  and  C_11
REMARK    5  A    between atoms: C_11  and  O_12
REMARK    6  A    between atoms: O_12  and  P_13
REMARK    7  A    between atoms: C_17  and  O_19
REMARK    8  A    between atoms: C_20  and  O_22
REMARK                            x       y       z     vdW  Elec       q    Type
REMARK                         _______ _______ _______ _____ _____    ______ ____
ROOT
ATOM      1  C   UNL     1       8.520  -0.171  22.371  0.00  0.00    +0.237 C 
ATOM      2  C   UNL     1       9.575  -1.256  22.647  0.00  0.00    +0.192 C 
ATOM      3  C   UNL     1       8.807  -2.389  23.332  0.00  0.00    +0.178 C 
ATOM      4  C   UNL     1       7.409  -1.819  23.569  0.00  0.00    +0.178 C 
ATOM      5  O   UNL     1       7.234  -0.716  22.658  0.00  0.00    -0.348 OA
ENDROOT
BRANCH   1   7
ATOM      6  C   UNL     1       9.551   2.009  22.951  0.00  0.00    +0.229 C 
ATOM      7  N   UNL     1       8.656   1.000  23.203  0.00  0.00    -0.287 N 
ATOM      8  H   UNL     1       8.144   1.035  24.079  0.00  0.00    +0.151 HD
ATOM      9  O   UNL     1      10.275   2.063  21.961  0.00  0.00    -0.274 OA
BRANCH   6  10
ATOM     10  C   UNL     1       9.532   3.135  23.992  0.00  0.00    +0.174 C 
BRANCH  10  11
ATOM     11  N   UNL     1      10.161   4.364  23.477  0.00  0.00    -0.322 NA
ATOM     12  H   UNL     1       9.617   5.167  23.799  0.00  0.00    +0.119 HD
ATOM     13  H   UNL     1      11.082   4.463  23.898  0.00  0.00    +0.119 HD
ENDBRANCH  10  11
ENDBRANCH   6  10
ENDBRANCH   1   7
BRANCH   2  14
ATOM     14  O   UNL     1      10.172  -1.710  21.414  0.00  0.00    -0.385 OA
ATOM     15  H   UNL     1       9.470  -1.706  20.737  0.00  0.00    +0.210 HD
ENDBRANCH   2  14
BRANCH   3  16
ATOM     16  O   UNL     1       9.431  -2.746  24.572  0.00  0.00    -0.386 OA
ATOM     17  H   UNL     1       8.699  -3.171  25.084  0.00  0.00    +0.210 HD
ENDBRANCH   3  16
BRANCH   4  18
ATOM     18  C   UNL     1       6.308  -2.860  23.375  0.00  0.00    +0.198 C 
BRANCH  18  19
ATOM     19  O   UNL     1       6.886  -4.141  23.204  0.00  0.00    -0.365 OA
BRANCH  19  20
ATOM     20  P   UNL     1       6.390  -4.901  21.732  0.00  0.00    -0.015 P 
ATOM     21  O   UNL     1       5.947  -5.581  20.414  0.00  0.00    -0.638 OA
ATOM     22  O   UNL     1       4.967  -4.648  22.272  0.00  0.00    -0.577 OA
ATOM     23  O   UNL     1       7.252  -6.080  22.238  0.00  0.00    -0.577 OA
ENDBRANCH  19  20
ENDBRANCH  18  19
ENDBRANCH   4  18
TORSDOF 8
ENDMDL
