MODEL 1
REMARK VINA RESULT:      -3.4      0.000      0.000
REMARK  Name = 
REMARK  5 active torsions:
REMARK  status: ('A' for Active; 'I' for Inactive)
REMARK    1  A    between atoms: N_1  and  CA_2
REMARK    2  A    between atoms: CA_2  and  C_4
REMARK    3  A    between atoms: CA_2  and  C_7
REMARK    4  A    between atoms: C_4  and  SE_5
REMARK    5  A    between atoms: C_7  and  O_8
REMARK                            x       y       z     vdW  Elec       q    Type
REMARK                         _______ _______ _______ _____ _____    ______ ____
ROOT
ATOM      1  CA  UNL     1       9.086  -4.648  25.562  0.00  0.00    +0.000 C 
ENDROOT
BRANCH   1   2
ATOM      2  N   UNL     1      10.175  -5.610  25.372  0.00  0.00    +0.000 NA
ATOM      3  H1  UNL     1      11.055  -5.120  25.091  0.00  0.00    +0.000 HD
ATOM      4  H2  UNL     1      10.352  -6.138  26.256  0.00  0.00    +0.000 HD
ENDBRANCH   1   2
BRANCH   1   5
ATOM      5  C   UNL     1       7.912  -5.340  26.215  0.00  0.00    +0.000 C 
ATOM      6  OXT UNL     1       6.860  -5.447  25.604  0.00  0.00    +0.000 OA
BRANCH   5   7
ATOM      7  O   UNL     1       7.996  -5.843  27.466  0.00  0.00    +0.000 OA
ATOM      8  H   UNL     1       8.813  -5.805  27.984  0.00  0.00    +0.000 HD
ENDBRANCH   5   7
ENDBRANCH   1   5
BRANCH   1   9
ATOM      9  C   UNL     1       8.656  -3.999  24.233  0.00  0.00    +0.000 C 
BRANCH   9  10
ATOM     10 SE   UNL     1       9.719  -2.411  23.833  0.00  0.00    +0.000 Se
ATOM     11  H   UNL     1      10.585  -2.643  25.081  0.00  0.00    +0.000 HD
ENDBRANCH   9  10
ENDBRANCH   1   9
TORSDOF 5
ENDMDL
MODEL 2
REMARK VINA RESULT:      -3.3      2.249      2.417
REMARK  Name = 
REMARK  5 active torsions:
REMARK  status: ('A' for Active; 'I' for Inactive)
REMARK    1  A    between atoms: N_1  and  CA_2
REMARK    2  A    between atoms: CA_2  and  C_4
REMARK    3  A    between atoms: CA_2  and  C_7
REMARK    4  A    between atoms: C_4  and  SE_5
REMARK    5  A    between atoms: C_7  and  O_8
REMARK                            x       y       z     vdW  Elec       q    Type
REMARK                         _______ _______ _______ _____ _____    ______ ____
ROOT
ATOM      1  CA  UNL     1       8.040  -4.869  26.081  0.00  0.00    +0.000 C 
ENDROOT
BRANCH   1   2
ATOM      2  N   UNL     1       8.080  -5.736  27.261  0.00  0.00    +0.000 NA
ATOM      3  H1  UNL     1       8.809  -6.478  27.149  0.00  0.00    +0.000 HD
ATOM      4  H2  UNL     1       8.300  -5.177  28.116  0.00  0.00    +0.000 HD
ENDBRANCH   1   2
BRANCH   1   5
ATOM      5  C   UNL     1       9.074  -5.334  25.081  0.00  0.00    +0.000 C 
ATOM      6  OXT UNL     1       8.757  -5.477  23.910  0.00  0.00    +0.000 OA
BRANCH   5   7
ATOM      7  O   UNL     1      10.346  -5.600  25.453  0.00  0.00    +0.000 OA
ATOM      8  H   UNL     1      10.667  -5.430  26.349  0.00  0.00    +0.000 HD
ENDBRANCH   5   7
ENDBRANCH   1   5
BRANCH   1   9
ATOM      9  C   UNL     1       8.272  -3.391  26.445  0.00  0.00    +0.000 C 
BRANCH   9  10
ATOM     10 SE   UNL     1       7.379  -2.193  25.188  0.00  0.00    +0.000 Se
ATOM     11  H   UNL     1       7.965  -0.965  25.903  0.00  0.00    +0.000 HD
ENDBRANCH   9  10
ENDBRANCH   1   9
TORSDOF 5
ENDMDL
MODEL 3
REMARK VINA RESULT:      -3.2      6.568      6.968
REMARK  Name = 
REMARK  5 active torsions:
REMARK  status: ('A' for Active; 'I' for Inactive)
REMARK    1  A    between atoms: N_1  and  CA_2
REMARK    2  A    between atoms: CA_2  and  C_4
REMARK    3  A    between atoms: CA_2  and  C_7
REMARK    4  A    between atoms: C_4  and  SE_5
REMARK    5  A    between atoms: C_7  and  O_8
REMARK                            x       y       z     vdW  Elec       q    Type
REMARK                         _______ _______ _______ _____ _____    ______ ____
ROOT
ATOM      1  CA  UNL     1       9.361  -0.068  22.242  0.00  0.00    +0.000 C 
ENDROOT
BRANCH   1   2
ATOM      2  N   UNL     1       9.641  -0.977  21.127  0.00  0.00    +0.000 NA
ATOM      3  H1  UNL     1       9.785  -0.441  20.241  0.00  0.00    +0.000 HD
ATOM      4  H2  UNL     1      10.499  -1.538  21.322  0.00  0.00    +0.000 HD
ENDBRANCH   1   2
BRANCH   1   5
ATOM      5  C   UNL     1       9.190   1.338  21.712  0.00  0.00    +0.000 C 
ATOM      6  OXT UNL     1       8.084   1.717  21.358  0.00  0.00    +0.000 OA
BRANCH   5   7
ATOM      7  O   UNL     1      10.235   2.188  21.616  0.00  0.00    +0.000 OA
ATOM      8  H   UNL     1      10.371   2.912  22.244  0.00  0.00    +0.000 HD
ENDBRANCH   5   7
ENDBRANCH   1   5
BRANCH   1   9
ATOM      9  C   UNL     1      10.471  -0.108  23.308  0.00  0.00    +0.000 C 
BRANCH   9  10
ATOM     10 SE   UNL     1       9.739   0.040  25.112  0.00  0.00    +0.000 Se
ATOM     11  H   UNL     1      10.212   1.499  25.213  0.00  0.00    +0.000 HD
ENDBRANCH   9  10
ENDBRANCH   1   9
TORSDOF 5
ENDMDL
MODEL 4
REMARK VINA RESULT:      -3.2      5.984      6.419
REMARK  Name = 
REMARK  5 active torsions:
REMARK  status: ('A' for Active; 'I' for Inactive)
REMARK    1  A    between atoms: N_1  and  CA_2
REMARK    2  A    between atoms: CA_2  and  C_4
REMARK    3  A    between atoms: CA_2  and  C_7
REMARK    4  A    between atoms: C_4  and  SE_5
REMARK    5  A    between atoms: C_7  and  O_8
REMARK                            x       y       z     vdW  Elec       q    Type
REMARK                         _______ _______ _______ _____ _____    ______ ____
ROOT
ATOM      1  CA  UNL     1       9.679   0.809  21.938  0.00  0.00    +0.000 C 
ENDROOT
BRANCH   1   2
ATOM      2  N   UNL     1       8.795   1.471  20.976  0.00  0.00    +0.000 NA
ATOM      3  H1  UNL     1       8.045   0.817  20.654  0.00  0.00    +0.000 HD
ATOM      4  H2  UNL     1       8.345   2.308  21.410  0.00  0.00    +0.000 HD
ENDBRANCH   1   2
BRANCH   1   5
ATOM      5  C   UNL     1       9.395  -0.676  21.942  0.00  0.00    +0.000 C 
ATOM      6  OXT UNL     1       8.309  -1.079  22.330  0.00  0.00    +0.000 OA
BRANCH   5   7
ATOM      7  O   UNL     1      10.317  -1.572  21.529  0.00  0.00    +0.000 OA
ATOM      8  H   UNL     1      10.156  -2.526  21.550  0.00  0.00    +0.000 HD
ENDBRANCH   5   7
ENDBRANCH   1   5
BRANCH   1   9
ATOM      9  C   UNL     1       9.523   1.390  23.356  0.00  0.00    +0.000 C 
BRANCH   9  10
ATOM     10 SE   UNL     1      10.726   0.520  24.624  0.00  0.00    +0.000 Se
ATOM     11  H   UNL     1       9.577   0.333  25.627  0.00  0.00    +0.000 HD
ENDBRANCH   9  10
ENDBRANCH   1   9
TORSDOF 5
ENDMDL
MODEL 5
REMARK VINA RESULT:      -3.2      5.976      6.665
REMARK  Name = 
REMARK  5 active torsions:
REMARK  status: ('A' for Active; 'I' for Inactive)
REMARK    1  A    between atoms: N_1  and  CA_2
REMARK    2  A    between atoms: CA_2  and  C_4
REMARK    3  A    between atoms: CA_2  and  C_7
REMARK    4  A    between atoms: C_4  and  SE_5
REMARK    5  A    between atoms: C_7  and  O_8
REMARK                            x       y       z     vdW  Elec       q    Type
REMARK                         _______ _______ _______ _____ _____    ______ ____
ROOT
ATOM      1  CA  UNL     1       9.076  -0.044  22.133  0.00  0.00    +0.000 C 
ENDROOT
BRANCH   1   2
ATOM      2  N   UNL     1       9.774  -0.962  21.229  0.00  0.00    +0.000 NA
ATOM      3  H1  UNL     1       9.340  -0.943  20.277  0.00  0.00    +0.000 HD
ATOM      4  H2  UNL     1      10.780  -0.694  21.144  0.00  0.00    +0.000 HD
ENDBRANCH   1   2
BRANCH   1   5
ATOM      5  C   UNL     1       9.951   1.158  22.403  0.00  0.00    +0.000 C 
ATOM      6  OXT UNL     1      10.546   1.243  23.467  0.00  0.00    +0.000 OA
BRANCH   5   7
ATOM      7  O   UNL     1      10.091   2.148  21.494  0.00  0.00    +0.000 OA
ATOM      8  H   UNL     1      10.794   2.143  20.829  0.00  0.00    +0.000 HD
ENDBRANCH   5   7
ENDBRANCH   1   5
BRANCH   1   9
ATOM      9  C   UNL     1       8.681  -0.729  23.454  0.00  0.00    +0.000 C 
BRANCH   9  10
ATOM     10 SE   UNL     1       9.740  -2.338  23.773  0.00  0.00    +0.000 Se
ATOM     11  H   UNL     1      10.954  -1.490  24.183  0.00  0.00    +0.000 HD
ENDBRANCH   9  10
ENDBRANCH   1   9
TORSDOF 5
ENDMDL
MODEL 6
REMARK VINA RESULT:      -3.1      1.981      2.083
REMARK  Name = 
REMARK  5 active torsions:
REMARK  status: ('A' for Active; 'I' for Inactive)
REMARK    1  A    between atoms: N_1  and  CA_2
REMARK    2  A    between atoms: CA_2  and  C_4
REMARK    3  A    between atoms: CA_2  and  C_7
REMARK    4  A    between atoms: C_4  and  SE_5
REMARK    5  A    between atoms: C_7  and  O_8
REMARK                            x       y       z     vdW  Elec       q    Type
REMARK                         _______ _______ _______ _____ _____    ______ ____
ROOT
ATOM      1  CA  UNL     1       8.614  -4.099  24.663  0.00  0.00    +0.000 C 
ENDROOT
BRANCH   1   2
ATOM      2  N   UNL     1       9.843  -3.457  24.190  0.00  0.00    +0.000 NA
ATOM      3  H1  UNL     1      10.651  -4.118  24.251  0.00  0.00    +0.000 HD
ATOM      4  H2  UNL     1       9.735  -3.150  23.198  0.00  0.00    +0.000 HD
ENDBRANCH   1   2
BRANCH   1   5
ATOM      5  C   UNL     1       8.968  -5.235  25.596  0.00  0.00    +0.000 C 
ATOM      6  OXT UNL     1       8.091  -5.758  26.267  0.00  0.00    +0.000 OA
BRANCH   5   7
ATOM      7  O   UNL     1      10.237  -5.686  25.710  0.00  0.00    +0.000 OA
ATOM      8  H   UNL     1      10.457  -6.626  25.654  0.00  0.00    +0.000 HD
ENDBRANCH   5   7
ENDBRANCH   1   5
BRANCH   1   9
ATOM      9  C   UNL     1       7.749  -4.612  23.497  0.00  0.00    +0.000 C 
BRANCH   9  10
ATOM     10 SE   UNL     1       7.113  -3.146  22.375  0.00  0.00    +0.000 Se
ATOM     11  H   UNL     1       5.653  -3.492  22.704  0.00  0.00    +0.000 HD
ENDBRANCH   9  10
ENDBRANCH   1   9
TORSDOF 5
ENDMDL
MODEL 7
REMARK VINA RESULT:      -3.0      6.574      7.088
REMARK  Name = 
REMARK  5 active torsions:
REMARK  status: ('A' for Active; 'I' for Inactive)
REMARK    1  A    between atoms: N_1  and  CA_2
REMARK    2  A    between atoms: CA_2  and  C_4
REMARK    3  A    between atoms: CA_2  and  C_7
REMARK    4  A    between atoms: C_4  and  SE_5
REMARK    5  A    between atoms: C_7  and  O_8
REMARK                            x       y       z     vdW  Elec       q    Type
REMARK                         _______ _______ _______ _____ _____    ______ ____
ROOT
ATOM      1  CA  UNL     1      10.395   0.682  23.596  0.00  0.00    +0.000 C 
ENDROOT
BRANCH   1   2
ATOM      2  N   UNL     1      10.271   0.846  25.047  0.00  0.00    +0.000 NA
ATOM      3  H1  UNL     1      11.142   1.266  25.446  0.00  0.00    +0.000 HD
ATOM      4  H2  UNL     1       9.464   1.467  25.275  0.00  0.00    +0.000 HD
ENDBRANCH   1   2
BRANCH   1   5
ATOM      5  C   UNL     1      10.228   2.024  22.922  0.00  0.00    +0.000 C 
ATOM      6  OXT UNL     1      10.228   3.041  23.599  0.00  0.00    +0.000 OA
BRANCH   5   7
ATOM      7  O   UNL     1      10.075   2.128  21.583  0.00  0.00    +0.000 OA
ATOM      8  H   UNL     1      10.166   2.971  21.118  0.00  0.00    +0.000 HD
ENDBRANCH   5   7
ENDBRANCH   1   5
BRANCH   1   9
ATOM      9  C   UNL     1       9.373  -0.328  23.043  0.00  0.00    +0.000 C 
BRANCH   9  10
ATOM     10 SE   UNL     1       9.790  -2.152  23.601  0.00  0.00    +0.000 Se
ATOM     11  H   UNL     1       8.970  -2.724  22.434  0.00  0.00    +0.000 HD
ENDBRANCH   9  10
ENDBRANCH   1   9
TORSDOF 5
ENDMDL
MODEL 8
REMARK VINA RESULT:      -3.0      6.564      6.765
REMARK  Name = 
REMARK  5 active torsions:
REMARK  status: ('A' for Active; 'I' for Inactive)
REMARK    1  A    between atoms: N_1  and  CA_2
REMARK    2  A    between atoms: CA_2  and  C_4
REMARK    3  A    between atoms: CA_2  and  C_7
REMARK    4  A    between atoms: C_4  and  SE_5
REMARK    5  A    between atoms: C_7  and  O_8
REMARK                            x       y       z     vdW  Elec       q    Type
REMARK                         _______ _______ _______ _____ _____    ______ ____
ROOT
ATOM      1  CA  UNL     1       9.590   1.194  22.606  0.00  0.00    +0.000 C 
ENDROOT
BRANCH   1   2
ATOM      2  N   UNL     1      10.198   2.265  21.812  0.00  0.00    +0.000 NA
ATOM      3  H1  UNL     1      10.226   2.003  20.800  0.00  0.00    +0.000 HD
ATOM      4  H2  UNL     1       9.653   3.149  21.914  0.00  0.00    +0.000 HD
ENDBRANCH   1   2
BRANCH   1   5
ATOM      5  C   UNL     1      10.104   1.267  24.026  0.00  0.00    +0.000 C 
ATOM      6  OXT UNL     1      11.244   0.906  24.272  0.00  0.00    +0.000 OA
BRANCH   5   7
ATOM      7  O   UNL     1       9.328   1.722  25.035  0.00  0.00    +0.000 OA
ATOM      8  H   UNL     1       8.370   1.824  24.943  0.00  0.00    +0.000 HD
ENDBRANCH   5   7
ENDBRANCH   1   5
BRANCH   1   9
ATOM      9  C   UNL     1       9.868  -0.196  22.005  0.00  0.00    +0.000 C 
BRANCH   9  10
ATOM     10 SE   UNL     1       8.882  -1.595  22.945  0.00  0.00    +0.000 Se
ATOM     11  H   UNL     1       7.863  -0.566  23.461  0.00  0.00    +0.000 HD
ENDBRANCH   9  10
ENDBRANCH   1   9
TORSDOF 5
ENDMDL
MODEL 9
REMARK VINA RESULT:      -2.9      6.778      7.361
REMARK  Name = 
REMARK  5 active torsions:
REMARK  status: ('A' for Active; 'I' for Inactive)
REMARK    1  A    between atoms: N_1  and  CA_2
REMARK    2  A    between atoms: CA_2  and  C_4
REMARK    3  A    between atoms: CA_2  and  C_7
REMARK    4  A    between atoms: C_4  and  SE_5
REMARK    5  A    between atoms: C_7  and  O_8
REMARK                            x       y       z     vdW  Elec       q    Type
REMARK                         _______ _______ _______ _____ _____    ______ ____
ROOT
ATOM      1  CA  UNL     1       9.839   1.178  23.765  0.00  0.00    +0.000 C 
ENDROOT
BRANCH   1   2
ATOM      2  N   UNL     1      11.101   0.759  24.381  0.00  0.00    +0.000 NA
ATOM      3  H1  UNL     1      11.913   1.210  23.900  0.00  0.00    +0.000 HD
ATOM      4  H2  UNL     1      11.119   1.025  25.391  0.00  0.00    +0.000 HD
ENDBRANCH   1   2
BRANCH   1   5
ATOM      5  C   UNL     1       9.983   1.156  22.261  0.00  0.00    +0.000 C 
ATOM      6  OXT UNL     1       9.904   0.093  21.664  0.00  0.00    +0.000 OA
BRANCH   5   7
ATOM      7  O   UNL     1      10.200   2.289  21.556  0.00  0.00    +0.000 OA
ATOM      8  H   UNL     1      10.932   2.888  21.755  0.00  0.00    +0.000 HD
ENDBRANCH   5   7
ENDBRANCH   1   5
BRANCH   1   9
ATOM      9  C   UNL     1       9.404   2.576  24.243  0.00  0.00    +0.000 C 
BRANCH   9  10
ATOM     10 SE   UNL     1       7.459   2.741  24.304  0.00  0.00    +0.000 Se
ATOM     11  H   UNL     1       7.298   1.231  24.065  0.00  0.00    +0.000 HD
ENDBRANCH   9  10
ENDBRANCH   1   9
TORSDOF 5
ENDMDL
