MODEL 1
REMARK VINA RESULT:      -7.1      0.000      0.000
REMARK  Name = 
REMARK  5 active torsions:
REMARK  status: ('A' for Active; 'I' for Inactive)
REMARK    1  A    between atoms: C_2  and  O_3
REMARK    2  A    between atoms: C_5  and  N_16
REMARK    3  A    between atoms: C_8  and  C_10
REMARK    4  A    between atoms: C_10  and  N_11
REMARK    5  A    between atoms: C_18  and  C_19
REMARK                            x       y       z     vdW  Elec       q    Type
REMARK                         _______ _______ _______ _____ _____    ______ ____
ROOT
ATOM      1  C   UNL     1       9.479  -4.332  25.462  0.00  0.00    +0.149 C 
ATOM      2  C   UNL     1       9.409  -3.346  24.291  0.00  0.00    +0.163 C 
ATOM      3  O   UNL     1       8.336  -3.786  23.423  0.00  0.00    -0.349 OA
ATOM      4  C   UNL     1       7.789  -4.994  23.976  0.00  0.00    +0.226 C 
ATOM      5  C   UNL     1       8.100  -4.948  25.467  0.00  0.00    +0.088 C 
ENDROOT
BRANCH   4   6
ATOM      6  N   UNL     1       6.362  -5.090  23.690  0.00  0.00    -0.274 N 
ATOM      7  C   UNL     1       5.968  -5.946  22.671  0.00  0.00    +0.331 A 
ATOM      8  O   UNL     1       6.741  -6.631  22.004  0.00  0.00    -0.246 OA
ATOM      9  N   UNL     1       4.620  -6.010  22.440  0.00  0.00    -0.275 N 
ATOM     10  H   UNL     1       4.316  -6.631  21.705  0.00  0.00    +0.173 HD
ATOM     11  C   UNL     1       3.647  -5.369  23.151  0.00  0.00    +0.257 A 
ATOM     12  O   UNL     1       2.453  -5.534  22.920  0.00  0.00    -0.267 OA
ATOM     13  C   UNL     1       4.120  -4.472  24.228  0.00  0.00    +0.030 A 
ATOM     14  C   UNL     1       3.095  -3.708  25.000  0.00  0.00    +0.051 C 
ATOM     15  C   UNL     1       5.438  -4.388  24.442  0.00  0.00    +0.101 A 
ENDBRANCH   4   6
BRANCH   1  16
ATOM     16  O   UNL     1      10.438  -5.354  25.176  0.00  0.00    -0.389 OA
ATOM     17  H   UNL     1       9.986  -6.043  24.658  0.00  0.00    +0.210 HD
ENDBRANCH   1  16
BRANCH   2  18
ATOM     18  C   UNL     1       9.100  -1.899  24.727  0.00  0.00    +0.118 C 
BRANCH  18  19
ATOM     19  N   UNL     1       9.916  -0.870  24.069  0.00  0.00    -0.300 NA
ATOM     20  C   UNL     1      10.302   0.204  24.994  0.00  0.00    +0.084 C 
ATOM     21  C   UNL     1      10.411   1.466  24.143  0.00  0.00    +0.017 C 
ATOM     22  C   UNL     1      10.055   1.029  22.734  0.00  0.00    +0.017 C 
ATOM     23  C   UNL     1       9.226  -0.221  22.950  0.00  0.00    +0.084 C 
ENDBRANCH  18  19
ENDBRANCH   2  18
TORSDOF 4
ENDMDL
MODEL 2
REMARK VINA RESULT:      -7.0      2.999      3.780
REMARK  Name = 
REMARK  5 active torsions:
REMARK  status: ('A' for Active; 'I' for Inactive)
REMARK    1  A    between atoms: C_2  and  O_3
REMARK    2  A    between atoms: C_5  and  N_16
REMARK    3  A    between atoms: C_8  and  C_10
REMARK    4  A    between atoms: C_10  and  N_11
REMARK    5  A    between atoms: C_18  and  C_19
REMARK                            x       y       z     vdW  Elec       q    Type
REMARK                         _______ _______ _______ _____ _____    ______ ____
ROOT
ATOM      1  C   UNL     1       9.716  -1.170  22.916  0.00  0.00    +0.149 C 
ATOM      2  C   UNL     1       8.212  -1.142  22.624  0.00  0.00    +0.163 C 
ATOM      3  O   UNL     1       7.645  -2.355  23.178  0.00  0.00    -0.349 OA
ATOM      4  C   UNL     1       8.719  -3.126  23.742  0.00  0.00    +0.226 C 
ATOM      5  C   UNL     1       9.817  -2.125  24.081  0.00  0.00    +0.088 C 
ENDROOT
BRANCH   4   6
ATOM      6  N   UNL     1       8.255  -3.883  24.899  0.00  0.00    -0.274 N 
ATOM      7  C   UNL     1       8.987  -5.003  25.267  0.00  0.00    +0.331 A 
ATOM      8  O   UNL     1      10.001  -5.390  24.688  0.00  0.00    -0.246 OA
ATOM      9  N   UNL     1       8.521  -5.682  26.362  0.00  0.00    -0.275 N 
ATOM     10  H   UNL     1       9.044  -6.497  26.646  0.00  0.00    +0.173 HD
ATOM     11  C   UNL     1       7.460  -5.323  27.143  0.00  0.00    +0.257 A 
ATOM     12  O   UNL     1       7.149  -5.952  28.149  0.00  0.00    -0.267 OA
ATOM     13  C   UNL     1       6.717  -4.120  26.709  0.00  0.00    +0.030 A 
ATOM     14  C   UNL     1       5.517  -3.717  27.502  0.00  0.00    +0.051 C 
ATOM     15  C   UNL     1       7.155  -3.468  25.625  0.00  0.00    +0.101 A 
ENDBRANCH   4   6
BRANCH   1  16
ATOM     16  O   UNL     1      10.413  -1.731  21.800  0.00  0.00    -0.389 OA
ATOM     17  H   UNL     1      10.150  -2.666  21.731  0.00  0.00    +0.210 HD
ENDBRANCH   1  16
BRANCH   2  18
ATOM     18  C   UNL     1       7.485   0.055  23.271  0.00  0.00    +0.118 C 
BRANCH  18  19
ATOM     19  N   UNL     1       8.335   1.226  23.523  0.00  0.00    -0.300 NA
ATOM     20  C   UNL     1       8.278   1.659  24.925  0.00  0.00    +0.084 C 
ATOM     21  C   UNL     1       8.493   3.170  24.904  0.00  0.00    +0.017 C 
ATOM     22  C   UNL     1       8.652   3.528  23.438  0.00  0.00    +0.017 C 
ATOM     23  C   UNL     1       7.957   2.391  22.717  0.00  0.00    +0.084 C 
ENDBRANCH  18  19
ENDBRANCH   2  18
TORSDOF 4
ENDMDL
MODEL 3
REMARK VINA RESULT:      -6.8      2.467      6.314
REMARK  Name = 
REMARK  5 active torsions:
REMARK  status: ('A' for Active; 'I' for Inactive)
REMARK    1  A    between atoms: C_2  and  O_3
REMARK    2  A    between atoms: C_5  and  N_16
REMARK    3  A    between atoms: C_8  and  C_10
REMARK    4  A    between atoms: C_10  and  N_11
REMARK    5  A    between atoms: C_18  and  C_19
REMARK                            x       y       z     vdW  Elec       q    Type
REMARK                         _______ _______ _______ _____ _____    ______ ____
ROOT
ATOM      1  C   UNL     1       7.524  -5.406  26.281  0.00  0.00    +0.149 C 
ATOM      2  C   UNL     1       6.307  -4.474  26.268  0.00  0.00    +0.163 C 
ATOM      3  O   UNL     1       6.809  -3.115  26.274  0.00  0.00    -0.349 OA
ATOM      4  C   UNL     1       8.244  -3.175  26.336  0.00  0.00    +0.226 C 
ATOM      5  C   UNL     1       8.630  -4.527  25.749  0.00  0.00    +0.088 C 
ENDROOT
BRANCH   4   6
ATOM      6  N   UNL     1       8.836  -2.049  25.622  0.00  0.00    -0.274 N 
ATOM      7  C   UNL     1       8.963  -0.849  26.308  0.00  0.00    +0.331 A 
ATOM      8  O   UNL     1       8.617  -0.680  27.476  0.00  0.00    -0.246 OA
ATOM      9  N   UNL     1       9.528   0.179  25.603  0.00  0.00    -0.275 N 
ATOM     10  H   UNL     1       9.632   1.058  26.089  0.00  0.00    +0.173 HD
ATOM     11  C   UNL     1      10.026   0.111  24.334  0.00  0.00    +0.257 A 
ATOM     12  O   UNL     1      10.581   1.065  23.797  0.00  0.00    -0.267 OA
ATOM     13  C   UNL     1       9.870  -1.191  23.649  0.00  0.00    +0.030 A 
ATOM     14  C   UNL     1      10.352  -1.300  22.239  0.00  0.00    +0.051 C 
ATOM     15  C   UNL     1       9.295  -2.192  24.326  0.00  0.00    +0.101 A 
ENDBRANCH   4   6
BRANCH   1  16
ATOM     16  O   UNL     1       7.835  -5.773  27.628  0.00  0.00    -0.389 OA
ATOM     17  H   UNL     1       8.733  -5.448  27.819  0.00  0.00    +0.210 HD
ENDBRANCH   1  16
BRANCH   2  18
ATOM     18  C   UNL     1       5.422  -4.642  25.016  0.00  0.00    +0.118 C 
BRANCH  18  19
ATOM     19  N   UNL     1       6.152  -4.980  23.787  0.00  0.00    -0.300 NA
ATOM     20  C   UNL     1       6.223  -3.845  22.858  0.00  0.00    +0.084 C 
ATOM     21  C   UNL     1       6.254  -4.453  21.459  0.00  0.00    +0.017 C 
ATOM     22  C   UNL     1       6.180  -5.954  21.676  0.00  0.00    +0.017 C 
ATOM     23  C   UNL     1       5.538  -6.083  23.042  0.00  0.00    +0.084 C 
ENDBRANCH  18  19
ENDBRANCH   2  18
TORSDOF 4
ENDMDL
MODEL 4
REMARK VINA RESULT:      -6.8      2.279      2.815
REMARK  Name = 
REMARK  5 active torsions:
REMARK  status: ('A' for Active; 'I' for Inactive)
REMARK    1  A    between atoms: C_2  and  O_3
REMARK    2  A    between atoms: C_5  and  N_16
REMARK    3  A    between atoms: C_8  and  C_10
REMARK    4  A    between atoms: C_10  and  N_11
REMARK    5  A    between atoms: C_18  and  C_19
REMARK                            x       y       z     vdW  Elec       q    Type
REMARK                         _______ _______ _______ _____ _____    ______ ____
ROOT
ATOM      1  C   UNL     1       9.151  -1.810  23.017  0.00  0.00    +0.149 C 
ATOM      2  C   UNL     1       7.812  -1.111  22.755  0.00  0.00    +0.163 C 
ATOM      3  O   UNL     1       6.832  -2.146  22.497  0.00  0.00    -0.349 OA
ATOM      4  C   UNL     1       7.507  -3.414  22.543  0.00  0.00    +0.226 C 
ATOM      5  C   UNL     1       8.732  -3.202  23.424  0.00  0.00    +0.088 C 
ENDROOT
BRANCH   4   6
ATOM      6  N   UNL     1       6.614  -4.454  23.043  0.00  0.00    -0.274 N 
ATOM      7  C   UNL     1       5.877  -5.169  22.110  0.00  0.00    +0.331 A 
ATOM      8  O   UNL     1       5.936  -4.989  20.895  0.00  0.00    -0.246 OA
ATOM      9  N   UNL     1       5.056  -6.138  22.621  0.00  0.00    -0.275 N 
ATOM     10  H   UNL     1       4.516  -6.671  21.955  0.00  0.00    +0.173 HD
ATOM     11  C   UNL     1       4.950  -6.498  23.934  0.00  0.00    +0.257 A 
ATOM     12  O   UNL     1       4.238  -7.427  24.301  0.00  0.00    -0.267 OA
ATOM     13  C   UNL     1       5.759  -5.707  24.886  0.00  0.00    +0.030 A 
ATOM     14  C   UNL     1       5.637  -6.028  26.340  0.00  0.00    +0.051 C 
ATOM     15  C   UNL     1       6.545  -4.742  24.393  0.00  0.00    +0.101 A 
ENDBRANCH   4   6
BRANCH   1  16
ATOM     16  O   UNL     1       9.898  -1.892  21.799  0.00  0.00    -0.389 OA
ATOM     17  H   UNL     1       9.739  -1.070  21.302  0.00  0.00    +0.210 HD
ENDBRANCH   1  16
BRANCH   2  18
ATOM     18  C   UNL     1       7.314  -0.278  23.954  0.00  0.00    +0.118 C 
BRANCH  18  19
ATOM     19  N   UNL     1       7.301   1.174  23.731  0.00  0.00    -0.300 NA
ATOM     20  C   UNL     1       6.996   1.516  22.336  0.00  0.00    +0.084 C 
ATOM     21  C   UNL     1       7.736   2.821  22.056  0.00  0.00    +0.017 C 
ATOM     22  C   UNL     1       8.460   3.153  23.348  0.00  0.00    +0.017 C 
ATOM     23  C   UNL     1       8.585   1.811  24.040  0.00  0.00    +0.084 C 
ENDBRANCH  18  19
ENDBRANCH   2  18
TORSDOF 4
ENDMDL
MODEL 5
REMARK VINA RESULT:      -6.6      2.130      6.698
REMARK  Name = 
REMARK  5 active torsions:
REMARK  status: ('A' for Active; 'I' for Inactive)
REMARK    1  A    between atoms: C_2  and  O_3
REMARK    2  A    between atoms: C_5  and  N_16
REMARK    3  A    between atoms: C_8  and  C_10
REMARK    4  A    between atoms: C_10  and  N_11
REMARK    5  A    between atoms: C_18  and  C_19
REMARK                            x       y       z     vdW  Elec       q    Type
REMARK                         _______ _______ _______ _____ _____    ______ ____
ROOT
ATOM      1  C   UNL     1       8.577  -5.334  25.019  0.00  0.00    +0.149 C 
ATOM      2  C   UNL     1       7.193  -4.780  24.664  0.00  0.00    +0.163 C 
ATOM      3  O   UNL     1       7.229  -3.352  24.903  0.00  0.00    -0.349 OA
ATOM      4  C   UNL     1       8.530  -3.023  25.419  0.00  0.00    +0.226 C 
ATOM      5  C   UNL     1       9.464  -4.117  24.917  0.00  0.00    +0.088 C 
ENDROOT
BRANCH   4   6
ATOM      6  N   UNL     1       8.929  -1.686  24.992  0.00  0.00    -0.274 N 
ATOM      7  C   UNL     1       9.103  -0.725  25.978  0.00  0.00    +0.331 A 
ATOM      8  O   UNL     1       8.952  -0.930  27.181  0.00  0.00    -0.246 OA
ATOM      9  N   UNL     1       9.483   0.514  25.535  0.00  0.00    -0.275 N 
ATOM     10  H   UNL     1       9.619   1.224  26.239  0.00  0.00    +0.173 HD
ATOM     11  C   UNL     1       9.762   0.860  24.244  0.00  0.00    +0.257 A 
ATOM     12  O   UNL     1      10.164   1.979  23.941  0.00  0.00    -0.267 OA
ATOM     13  C   UNL     1       9.564  -0.202  23.234  0.00  0.00    +0.030 A 
ATOM     14  C   UNL     1       9.806   0.144  21.801  0.00  0.00    +0.051 C 
ATOM     15  C   UNL     1       9.169  -1.408  23.660  0.00  0.00    +0.101 A 
ENDBRANCH   4   6
BRANCH   1  16
ATOM     16  O   UNL     1       8.580  -5.793  26.374  0.00  0.00    -0.389 OA
ATOM     17  H   UNL     1       7.652  -5.884  26.653  0.00  0.00    +0.210 HD
ENDBRANCH   1  16
BRANCH   2  18
ATOM     18  C   UNL     1       6.806  -5.001  23.188  0.00  0.00    +0.118 C 
BRANCH  18  19
ATOM     19  N   UNL     1       5.426  -5.460  22.976  0.00  0.00    -0.300 NA
ATOM     20  C   UNL     1       4.460  -4.356  23.046  0.00  0.00    +0.084 C 
ATOM     21  C   UNL     1       3.169  -4.967  23.583  0.00  0.00    +0.017 C 
ATOM     22  C   UNL     1       3.487  -6.434  23.811  0.00  0.00    +0.017 C 
ATOM     23  C   UNL     1       4.993  -6.449  23.967  0.00  0.00    +0.084 C 
ENDBRANCH  18  19
ENDBRANCH   2  18
TORSDOF 4
ENDMDL
MODEL 6
REMARK VINA RESULT:      -6.5      3.864      7.680
REMARK  Name = 
REMARK  5 active torsions:
REMARK  status: ('A' for Active; 'I' for Inactive)
REMARK    1  A    between atoms: C_2  and  O_3
REMARK    2  A    between atoms: C_5  and  N_16
REMARK    3  A    between atoms: C_8  and  C_10
REMARK    4  A    between atoms: C_10  and  N_11
REMARK    5  A    between atoms: C_18  and  C_19
REMARK                            x       y       z     vdW  Elec       q    Type
REMARK                         _______ _______ _______ _____ _____    ______ ____
ROOT
ATOM      1  C   UNL     1       9.214  -1.243  21.726  0.00  0.00    +0.149 C 
ATOM      2  C   UNL     1       8.453  -1.348  23.052  0.00  0.00    +0.163 C 
ATOM      3  O   UNL     1       8.577  -0.068  23.720  0.00  0.00    -0.349 OA
ATOM      4  C   UNL     1       9.399   0.779  22.900  0.00  0.00    +0.226 C 
ATOM      5  C   UNL     1       9.259   0.246  21.479  0.00  0.00    +0.088 C 
ENDROOT
BRANCH   4   6
ATOM      6  N   UNL     1       8.992   2.174  23.032  0.00  0.00    -0.274 N 
ATOM      7  C   UNL     1       9.967   3.095  23.386  0.00  0.00    +0.331 A 
ATOM      8  O   UNL     1      11.147   2.813  23.586  0.00  0.00    -0.246 OA
ATOM      9  N   UNL     1       9.543   4.393  23.494  0.00  0.00    -0.275 N 
ATOM     10  H   UNL     1      10.241   5.077  23.746  0.00  0.00    +0.173 HD
ATOM     11  C   UNL     1       8.288   4.858  23.225  0.00  0.00    +0.257 A 
ATOM     12  O   UNL     1       8.008   6.051  23.281  0.00  0.00    -0.267 OA
ATOM     13  C   UNL     1       7.288   3.835  22.848  0.00  0.00    +0.030 A 
ATOM     14  C   UNL     1       5.887   4.289  22.596  0.00  0.00    +0.051 C 
ATOM     15  C   UNL     1       7.692   2.562  22.766  0.00  0.00    +0.101 A 
ENDBRANCH   4   6
BRANCH   1  16
ATOM     16  O   UNL     1      10.551  -1.722  21.898  0.00  0.00    -0.389 OA
ATOM     17  H   UNL     1      10.494  -2.610  22.294  0.00  0.00    +0.210 HD
ENDBRANCH   1  16
BRANCH   2  18
ATOM     18  C   UNL     1       6.949  -1.642  22.873  0.00  0.00    +0.118 C 
BRANCH  18  19
ATOM     19  N   UNL     1       6.576  -3.054  23.031  0.00  0.00    -0.300 NA
ATOM     20  C   UNL     1       7.656  -3.847  23.630  0.00  0.00    +0.084 C 
ATOM     21  C   UNL     1       7.510  -5.253  23.053  0.00  0.00    +0.017 C 
ATOM     22  C   UNL     1       6.321  -5.174  22.113  0.00  0.00    +0.017 C 
ATOM     23  C   UNL     1       6.244  -3.704  21.759  0.00  0.00    +0.084 C 
ENDBRANCH  18  19
ENDBRANCH   2  18
TORSDOF 4
ENDMDL
MODEL 7
REMARK VINA RESULT:      -6.5      2.285      3.087
REMARK  Name = 
REMARK  5 active torsions:
REMARK  status: ('A' for Active; 'I' for Inactive)
REMARK    1  A    between atoms: C_2  and  O_3
REMARK    2  A    between atoms: C_5  and  N_16
REMARK    3  A    between atoms: C_8  and  C_10
REMARK    4  A    between atoms: C_10  and  N_11
REMARK    5  A    between atoms: C_18  and  C_19
REMARK                            x       y       z     vdW  Elec       q    Type
REMARK                         _______ _______ _______ _____ _____    ______ ____
ROOT
ATOM      1  C   UNL     1       8.211  -1.140  25.953  0.00  0.00    +0.149 C 
ATOM      2  C   UNL     1       9.038  -1.877  24.893  0.00  0.00    +0.163 C 
ATOM      3  O   UNL     1       8.700  -3.282  24.987  0.00  0.00    -0.349 OA
ATOM      4  C   UNL     1       7.760  -3.439  26.062  0.00  0.00    +0.226 C 
ATOM      5  C   UNL     1       7.066  -2.090  26.209  0.00  0.00    +0.088 C 
ENDROOT
BRANCH   4   6
ATOM      6  N   UNL     1       6.835  -4.532  25.781  0.00  0.00    -0.274 N 
ATOM      7  C   UNL     1       6.597  -5.448  26.797  0.00  0.00    +0.331 A 
ATOM      8  O   UNL     1       7.107  -5.391  27.914  0.00  0.00    -0.246 OA
ATOM      9  N   UNL     1       5.720  -6.454  26.493  0.00  0.00    -0.275 N 
ATOM     10  H   UNL     1       5.532  -7.126  27.222  0.00  0.00    +0.173 HD
ATOM     11  C   UNL     1       5.025  -6.595  25.326  0.00  0.00    +0.257 A 
ATOM     12  O   UNL     1       4.203  -7.491  25.160  0.00  0.00    -0.267 OA
ATOM     13  C   UNL     1       5.312  -5.590  24.279  0.00  0.00    +0.030 A 
ATOM     14  C   UNL     1       4.614  -5.733  22.966  0.00  0.00    +0.051 C 
ATOM     15  C   UNL     1       6.188  -4.619  24.563  0.00  0.00    +0.101 A 
ENDBRANCH   4   6
BRANCH   1  16
ATOM     16  O   UNL     1       8.977  -1.007  27.154  0.00  0.00    -0.389 OA
ATOM     17  H   UNL     1       8.350  -0.980  27.898  0.00  0.00    +0.210 HD
ENDBRANCH   1  16
BRANCH   2  18
ATOM     18  C   UNL     1       8.736  -1.415  23.453  0.00  0.00    +0.118 C 
BRANCH  18  19
ATOM     19  N   UNL     1       8.919   0.024  23.217  0.00  0.00    -0.300 NA
ATOM     20  C   UNL     1       7.768   0.622  22.529  0.00  0.00    +0.084 C 
ATOM     21  C   UNL     1       8.332   1.767  21.693  0.00  0.00    +0.017 C 
ATOM     22  C   UNL     1       9.828   1.747  21.948  0.00  0.00    +0.017 C 
ATOM     23  C   UNL     1      10.093   0.323  22.391  0.00  0.00    +0.084 C 
ENDBRANCH  18  19
ENDBRANCH   2  18
TORSDOF 4
ENDMDL
MODEL 8
REMARK VINA RESULT:      -6.4      2.239      6.087
REMARK  Name = 
REMARK  5 active torsions:
REMARK  status: ('A' for Active; 'I' for Inactive)
REMARK    1  A    between atoms: C_2  and  O_3
REMARK    2  A    between atoms: C_5  and  N_16
REMARK    3  A    between atoms: C_8  and  C_10
REMARK    4  A    between atoms: C_10  and  N_11
REMARK    5  A    between atoms: C_18  and  C_19
REMARK                            x       y       z     vdW  Elec       q    Type
REMARK                         _______ _______ _______ _____ _____    ______ ____
ROOT
ATOM      1  C   UNL     1       5.618  -4.187  22.111  0.00  0.00    +0.149 C 
ATOM      2  C   UNL     1       6.455  -5.178  22.927  0.00  0.00    +0.163 C 
ATOM      3  O   UNL     1       7.729  -4.543  23.197  0.00  0.00    -0.349 OA
ATOM      4  C   UNL     1       7.724  -3.255  22.558  0.00  0.00    +0.226 C 
ATOM      5  C   UNL     1       6.258  -2.858  22.434  0.00  0.00    +0.088 C 
ENDROOT
BRANCH   4   6
ATOM      6  N   UNL     1       8.516  -2.298  23.324  0.00  0.00    -0.274 N 
ATOM      7  C   UNL     1       9.512  -1.607  22.650  0.00  0.00    +0.331 A 
ATOM      8  O   UNL     1       9.763  -1.743  21.454  0.00  0.00    -0.246 OA
ATOM      9  N   UNL     1      10.227  -0.715  23.405  0.00  0.00    -0.275 N 
ATOM     10  H   UNL     1      10.953  -0.200  22.929  0.00  0.00    +0.173 HD
ATOM     11  C   UNL     1      10.007  -0.407  24.716  0.00  0.00    +0.257 A 
ATOM     12  O   UNL     1      10.652   0.456  25.302  0.00  0.00    -0.267 OA
ATOM     13  C   UNL     1       8.931  -1.170  25.386  0.00  0.00    +0.030 A 
ATOM     14  C   UNL     1       8.686  -0.906  26.836  0.00  0.00    +0.051 C 
ATOM     15  C   UNL     1       8.246  -2.060  24.658  0.00  0.00    +0.101 A 
ENDBRANCH   4   6
BRANCH   1  16
ATOM     16  O   UNL     1       5.785  -4.451  20.715  0.00  0.00    -0.389 OA
ATOM     17  H   UNL     1       5.446  -3.678  20.229  0.00  0.00    +0.210 HD
ENDBRANCH   1  16
BRANCH   2  18
ATOM     18  C   UNL     1       5.817  -5.547  24.282  0.00  0.00    +0.118 C 
BRANCH  18  19
ATOM     19  N   UNL     1       6.242  -4.708  25.411  0.00  0.00    -0.300 NA
ATOM     20  C   UNL     1       6.650  -5.510  26.571  0.00  0.00    +0.084 C 
ATOM     21  C   UNL     1       6.312  -4.668  27.799  0.00  0.00    +0.017 C 
ATOM     22  C   UNL     1       5.695  -3.395  27.250  0.00  0.00    +0.017 C 
ATOM     23  C   UNL     1       5.186  -3.807  25.884  0.00  0.00    +0.084 C 
ENDBRANCH  18  19
ENDBRANCH   2  18
TORSDOF 4
ENDMDL
MODEL 9
REMARK VINA RESULT:      -6.4      3.150      6.196
REMARK  Name = 
REMARK  5 active torsions:
REMARK  status: ('A' for Active; 'I' for Inactive)
REMARK    1  A    between atoms: C_2  and  O_3
REMARK    2  A    between atoms: C_5  and  N_16
REMARK    3  A    between atoms: C_8  and  C_10
REMARK    4  A    between atoms: C_10  and  N_11
REMARK    5  A    between atoms: C_18  and  C_19
REMARK                            x       y       z     vdW  Elec       q    Type
REMARK                         _______ _______ _______ _____ _____    ______ ____
ROOT
ATOM      1  C   UNL     1       8.809  -5.186  25.224  0.00  0.00    +0.149 C 
ATOM      2  C   UNL     1       8.615  -4.275  26.440  0.00  0.00    +0.163 C 
ATOM      3  O   UNL     1       8.907  -2.922  26.012  0.00  0.00    -0.349 OA
ATOM      4  C   UNL     1       9.306  -2.972  24.633  0.00  0.00    +0.226 C 
ATOM      5  C   UNL     1       8.670  -4.233  24.061  0.00  0.00    +0.088 C 
ENDROOT
BRANCH   4   6
ATOM      6  N   UNL     1       8.897  -1.757  23.935  0.00  0.00    -0.274 N 
ATOM      7  C   UNL     1       9.661  -1.353  22.849  0.00  0.00    +0.331 A 
ATOM      8  O   UNL     1      10.649  -1.956  22.435  0.00  0.00    -0.246 OA
ATOM      9  N   UNL     1       9.239  -0.212  22.221  0.00  0.00    -0.275 N 
ATOM     10  H   UNL     1       9.781   0.093  21.426  0.00  0.00    +0.173 HD
ATOM     11  C   UNL     1       8.121   0.511  22.523  0.00  0.00    +0.257 A 
ATOM     12  O   UNL     1       7.777   1.487  21.864  0.00  0.00    -0.267 OA
ATOM     13  C   UNL     1       7.341   0.036  23.686  0.00  0.00    +0.030 A 
ATOM     14  C   UNL     1       6.138   0.825  24.089  0.00  0.00    +0.051 C 
ATOM     15  C   UNL     1       7.763  -1.065  24.319  0.00  0.00    +0.101 A 
ENDBRANCH   4   6
BRANCH   1  16
ATOM     16  O   UNL     1      10.138  -5.718  25.227  0.00  0.00    -0.389 OA
ATOM     17  H   UNL     1      10.098  -6.601  25.633  0.00  0.00    +0.210 HD
ENDBRANCH   1  16
BRANCH   2  18
ATOM     18  C   UNL     1       7.176  -4.293  26.994  0.00  0.00    +0.118 C 
BRANCH  18  19
ATOM     19  N   UNL     1       6.612  -5.635  27.196  0.00  0.00    -0.300 NA
ATOM     20  C   UNL     1       5.533  -5.930  26.245  0.00  0.00    +0.084 C 
ATOM     21  C   UNL     1       4.579  -6.871  26.976  0.00  0.00    +0.017 C 
ATOM     22  C   UNL     1       5.183  -7.055  28.357  0.00  0.00    +0.017 C 
ATOM     23  C   UNL     1       6.044  -5.821  28.535  0.00  0.00    +0.084 C 
ENDBRANCH  18  19
ENDBRANCH   2  18
TORSDOF 4
ENDMDL
