MODEL 1
REMARK VINA RESULT:      -7.3      0.000      0.000
REMARK  Name = 
REMARK  16 active torsions:
REMARK  status: ('A' for Active; 'I' for Inactive)
REMARK    1  A    between atoms: C_1  and  O_2
REMARK    2  A    between atoms: O_2  and  C_3
REMARK    3  A    between atoms: C_8  and  O_9
REMARK    4  A    between atoms: O_9  and  C_10
REMARK    5  A    between atoms: C_11  and  N_12
REMARK    6  A    between atoms: N_12  and  S_13
REMARK    7  A    between atoms: S_13  and  C_16
REMARK    8  A    between atoms: C_19  and  C_22
REMARK    9  A    between atoms: C_22  and  C_23
REMARK   10  A    between atoms: C_22  and  C_24
REMARK   11  A    between atoms: C_22  and  C_25
REMARK   12  A    between atoms: C_27  and  C_34
REMARK   13  A    between atoms: C_29  and  O_30
REMARK   14  A    between atoms: O_30  and  C_31
REMARK   15  A    between atoms: C_31  and  C_32
REMARK   16  A    between atoms: C_32  and  O_33
REMARK                            x       y       z     vdW  Elec       q    Type
REMARK                         _______ _______ _______ _____ _____    ______ ____
ROOT
ATOM      1  C   UNL     1       5.704  -5.315  25.414  0.00  0.00    +0.231 A 
ATOM      2  C   UNL     1       5.183  -6.402  26.096  0.00  0.00    +0.264 A 
ATOM      3  N   UNL     1       4.109  -7.094  25.684  0.00  0.00    -0.187 NA
ATOM      4  C   UNL     1       3.495  -6.643  24.568  0.00  0.00    +0.203 A 
ATOM      5  N   UNL     1       3.817  -5.494  23.941  0.00  0.00    -0.204 NA
ATOM      6  C   UNL     1       4.902  -4.856  24.389  0.00  0.00    +0.188 A 
ENDROOT
BRANCH   4   7
ATOM      7  C   UNL     1       2.473  -7.508  23.925  0.00  0.00    +0.198 A 
ATOM      8  N   UNL     1       2.107  -8.645  24.565  0.00  0.00    -0.233 NA
ATOM      9  C   UNL     1       1.134  -9.371  23.989  0.00  0.00    +0.115 A 
ATOM     10  C   UNL     1       0.504  -9.008  22.824  0.00  0.00    +0.039 A 
ATOM     11  C   UNL     1       0.928  -7.830  22.257  0.00  0.00    +0.115 A 
ATOM     12  N   UNL     1       1.904  -7.068  22.779  0.00  0.00    -0.233 NA
ENDBRANCH   4   7
BRANCH   6  13
ATOM     13  N   UNL     1       5.107  -3.670  23.650  0.00  0.00    -0.196 N 
ATOM     14  H   UNL     1       5.233  -2.865  24.262  0.00  0.00    +0.175 HD
BRANCH  13  15
ATOM     15  S   UNL     1       6.247  -3.654  22.422  0.00  0.00    +0.074 S 
ATOM     16  O   UNL     1       5.506  -3.466  21.193  0.00  0.00    -0.150 OA
ATOM     17  O   UNL     1       7.119  -4.802  22.582  0.00  0.00    -0.150 OA
BRANCH  15  18
ATOM     18  C   UNL     1       7.229  -2.201  22.684  0.00  0.00    +0.109 A 
ATOM     19  C   UNL     1       6.650  -1.009  23.130  0.00  0.00    +0.029 A 
ATOM     20  C   UNL     1       7.466   0.107  23.355  0.00  0.00    +0.006 A 
ATOM     21  C   UNL     1       8.861   0.059  23.131  0.00  0.00    -0.042 A 
ATOM     22  C   UNL     1       9.395  -1.135  22.616  0.00  0.00    +0.006 A 
ATOM     23  C   UNL     1       8.589  -2.253  22.394  0.00  0.00    +0.029 A 
BRANCH  21  24
ATOM     24  C   UNL     1       9.759   1.264  23.470  0.00  0.00    -0.013 C 
ATOM     25  C   UNL     1      10.218   1.950  22.165  0.00  0.00    +0.015 C 
ATOM     26  C   UNL     1      10.999   0.815  24.268  0.00  0.00    +0.015 C 
ATOM     27  C   UNL     1       9.035   2.342  24.313  0.00  0.00    +0.015 C 
ENDBRANCH  21  24
ENDBRANCH  15  18
ENDBRANCH  13  15
ENDBRANCH   6  13
BRANCH   1  28
ATOM     28  O   UNL     1       6.913  -4.821  25.792  0.00  0.00    -0.443 OA
BRANCH  28  30
ATOM     29  C   UNL     1       6.071  -2.652  26.755  0.00  0.00    +0.162 A 
ATOM     30  C   UNL     1       7.048  -3.504  26.196  0.00  0.00    +0.170 A 
ATOM     31  C   UNL     1       8.338  -3.011  25.949  0.00  0.00    +0.050 A 
ATOM     32  C   UNL     1       8.683  -1.705  26.279  0.00  0.00    +0.004 A 
ATOM     33  C   UNL     1       7.737  -0.874  26.866  0.00  0.00    +0.004 A 
ATOM     34  C   UNL     1       6.444  -1.344  27.108  0.00  0.00    +0.049 A 
BRANCH  29  36
ATOM     35  C   UNL     1       3.733  -2.162  26.915  0.00  0.00    +0.277 C 
ATOM     36  O   UNL     1       4.789  -3.123  26.904  0.00  0.00    -0.491 OA
ENDBRANCH  29  36
ENDBRANCH  28  30
ENDBRANCH   1  28
BRANCH   2  37
ATOM     37  O   UNL     1       5.796  -6.772  27.281  0.00  0.00    -0.471 OA
BRANCH  37  38
ATOM     38  C   UNL     1       4.929  -7.018  28.395  0.00  0.00    +0.258 C 
BRANCH  38  39
ATOM     39  C   UNL     1       4.722  -5.731  29.187  0.00  0.00    +0.196 C 
BRANCH  39  40
ATOM     40  O   UNL     1       5.926  -4.974  29.246  0.00  0.00    -0.392 OA
ATOM     41  H   UNL     1       6.592  -5.544  29.668  0.00  0.00    +0.210 HD
ENDBRANCH  39  40
ENDBRANCH  38  39
ENDBRANCH  37  38
ENDBRANCH   2  37
TORSDOF 12
ENDMDL
MODEL 2
REMARK VINA RESULT:      -7.2      2.638      4.849
REMARK  Name = 
REMARK  16 active torsions:
REMARK  status: ('A' for Active; 'I' for Inactive)
REMARK    1  A    between atoms: C_1  and  O_2
REMARK    2  A    between atoms: O_2  and  C_3
REMARK    3  A    between atoms: C_8  and  O_9
REMARK    4  A    between atoms: O_9  and  C_10
REMARK    5  A    between atoms: C_11  and  N_12
REMARK    6  A    between atoms: N_12  and  S_13
REMARK    7  A    between atoms: S_13  and  C_16
REMARK    8  A    between atoms: C_19  and  C_22
REMARK    9  A    between atoms: C_22  and  C_23
REMARK   10  A    between atoms: C_22  and  C_24
REMARK   11  A    between atoms: C_22  and  C_25
REMARK   12  A    between atoms: C_27  and  C_34
REMARK   13  A    between atoms: C_29  and  O_30
REMARK   14  A    between atoms: O_30  and  C_31
REMARK   15  A    between atoms: C_31  and  C_32
REMARK   16  A    between atoms: C_32  and  O_33
REMARK                            x       y       z     vdW  Elec       q    Type
REMARK                         _______ _______ _______ _____ _____    ______ ____
ROOT
ATOM      1  C   UNL     1       7.424  -2.235  23.409  0.00  0.00    +0.231 A 
ATOM      2  C   UNL     1       7.425  -3.547  23.852  0.00  0.00    +0.264 A 
ATOM      3  N   UNL     1       6.342  -4.166  24.349  0.00  0.00    -0.187 NA
ATOM      4  C   UNL     1       5.222  -3.419  24.463  0.00  0.00    +0.203 A 
ATOM      5  N   UNL     1       5.173  -2.091  24.230  0.00  0.00    -0.204 NA
ATOM      6  C   UNL     1       6.277  -1.536  23.724  0.00  0.00    +0.188 A 
ENDROOT
BRANCH   4   7
ATOM      7  C   UNL     1       3.940  -4.108  24.758  0.00  0.00    +0.198 A 
ATOM      8  N   UNL     1       3.958  -5.456  24.892  0.00  0.00    -0.233 NA
ATOM      9  C   UNL     1       2.795  -6.042  25.224  0.00  0.00    +0.115 A 
ATOM     10  C   UNL     1       1.631  -5.347  25.442  0.00  0.00    +0.039 A 
ATOM     11  C   UNL     1       1.713  -3.983  25.304  0.00  0.00    +0.115 A 
ATOM     12  N   UNL     1       2.844  -3.341  24.962  0.00  0.00    -0.233 NA
ENDBRANCH   4   7
BRANCH   6  13
ATOM     13  N   UNL     1       6.083  -0.147  23.547  0.00  0.00    -0.196 N 
ATOM     14  H   UNL     1       5.383   0.044  22.833  0.00  0.00    +0.175 HD
BRANCH  13  15
ATOM     15  S   UNL     1       5.833   0.826  24.887  0.00  0.00    +0.074 S 
ATOM     16  O   UNL     1       6.375   0.099  26.014  0.00  0.00    -0.150 OA
ATOM     17  O   UNL     1       4.449   1.259  24.894  0.00  0.00    -0.150 OA
BRANCH  15  18
ATOM     18  C   UNL     1       6.838   2.266  24.642  0.00  0.00    +0.109 A 
ATOM     19  C   UNL     1       6.960   2.855  23.380  0.00  0.00    +0.029 A 
ATOM     20  C   UNL     1       7.738   4.010  23.235  0.00  0.00    +0.006 A 
ATOM     21  C   UNL     1       8.414   4.587  24.334  0.00  0.00    -0.042 A 
ATOM     22  C   UNL     1       8.324   3.926  25.571  0.00  0.00    +0.006 A 
ATOM     23  C   UNL     1       7.546   2.778  25.724  0.00  0.00    +0.029 A 
BRANCH  21  24
ATOM     24  C   UNL     1       9.192   5.909  24.179  0.00  0.00    -0.013 C 
ATOM     25  C   UNL     1       9.235   6.645  25.536  0.00  0.00    +0.015 C 
ATOM     26  C   UNL     1       8.519   6.819  23.133  0.00  0.00    +0.015 C 
ATOM     27  C   UNL     1      10.660   5.701  23.733  0.00  0.00    +0.015 C 
ENDBRANCH  21  24
ENDBRANCH  15  18
ENDBRANCH  13  15
ENDBRANCH   6  13
BRANCH   1  28
ATOM     28  O   UNL     1       8.504  -1.771  22.725  0.00  0.00    -0.443 OA
BRANCH  28  30
ATOM     29  C   UNL     1       9.707  -0.460  24.507  0.00  0.00    +0.162 A 
ATOM     30  C   UNL     1       9.237  -0.696  23.197  0.00  0.00    +0.170 A 
ATOM     31  C   UNL     1       9.466   0.260  22.195  0.00  0.00    +0.050 A 
ATOM     32  C   UNL     1      10.182   1.421  22.462  0.00  0.00    +0.004 A 
ATOM     33  C   UNL     1      10.682   1.640  23.739  0.00  0.00    +0.004 A 
ATOM     34  C   UNL     1      10.452   0.705  24.752  0.00  0.00    +0.049 A 
BRANCH  29  36
ATOM     35  C   UNL     1       9.100  -0.840  26.791  0.00  0.00    +0.277 C 
ATOM     36  O   UNL     1       9.394  -1.361  25.495  0.00  0.00    -0.491 OA
ENDBRANCH  29  36
ENDBRANCH  28  30
ENDBRANCH   1  28
BRANCH   2  37
ATOM     37  O   UNL     1       8.620  -4.244  23.795  0.00  0.00    -0.471 OA
BRANCH  37  38
ATOM     38  C   UNL     1       8.770  -5.324  24.725  0.00  0.00    +0.258 C 
BRANCH  38  39
ATOM     39  C   UNL     1       9.402  -4.814  26.016  0.00  0.00    +0.196 C 
BRANCH  39  40
ATOM     40  O   UNL     1       8.589  -5.133  27.139  0.00  0.00    -0.392 OA
ATOM     41  H   UNL     1       8.277  -6.045  27.006  0.00  0.00    +0.210 HD
ENDBRANCH  39  40
ENDBRANCH  38  39
ENDBRANCH  37  38
ENDBRANCH   2  37
TORSDOF 12
ENDMDL
MODEL 3
REMARK VINA RESULT:      -7.0      2.886      4.896
REMARK  Name = 
REMARK  16 active torsions:
REMARK  status: ('A' for Active; 'I' for Inactive)
REMARK    1  A    between atoms: C_1  and  O_2
REMARK    2  A    between atoms: O_2  and  C_3
REMARK    3  A    between atoms: C_8  and  O_9
REMARK    4  A    between atoms: O_9  and  C_10
REMARK    5  A    between atoms: C_11  and  N_12
REMARK    6  A    between atoms: N_12  and  S_13
REMARK    7  A    between atoms: S_13  and  C_16
REMARK    8  A    between atoms: C_19  and  C_22
REMARK    9  A    between atoms: C_22  and  C_23
REMARK   10  A    between atoms: C_22  and  C_24
REMARK   11  A    between atoms: C_22  and  C_25
REMARK   12  A    between atoms: C_27  and  C_34
REMARK   13  A    between atoms: C_29  and  O_30
REMARK   14  A    between atoms: O_30  and  C_31
REMARK   15  A    between atoms: C_31  and  C_32
REMARK   16  A    between atoms: C_32  and  O_33
REMARK                            x       y       z     vdW  Elec       q    Type
REMARK                         _______ _______ _______ _____ _____    ______ ____
ROOT
ATOM      1  C   UNL     1       7.677  -1.966  26.230  0.00  0.00    +0.231 A 
ATOM      2  C   UNL     1       7.465  -3.322  26.416  0.00  0.00    +0.264 A 
ATOM      3  N   UNL     1       6.256  -3.903  26.352  0.00  0.00    -0.187 NA
ATOM      4  C   UNL     1       5.204  -3.080  26.149  0.00  0.00    +0.203 A 
ATOM      5  N   UNL     1       5.289  -1.734  26.137  0.00  0.00    -0.204 NA
ATOM      6  C   UNL     1       6.520  -1.216  26.192  0.00  0.00    +0.188 A 
ENDROOT
BRANCH   4   7
ATOM      7  C   UNL     1       3.890  -3.683  25.812  0.00  0.00    +0.198 A 
ATOM      8  N   UNL     1       3.762  -5.028  25.914  0.00  0.00    -0.233 NA
ATOM      9  C   UNL     1       2.542  -5.536  25.666  0.00  0.00    +0.115 A 
ATOM     10  C   UNL     1       1.452  -4.766  25.342  0.00  0.00    +0.039 A 
ATOM     11  C   UNL     1       1.672  -3.412  25.282  0.00  0.00    +0.115 A 
ATOM     12  N   UNL     1       2.871  -2.847  25.507  0.00  0.00    -0.233 NA
ENDBRANCH   4   7
BRANCH   6  13
ATOM     13  N   UNL     1       6.452   0.196  26.185  0.00  0.00    -0.196 N 
ATOM     14  H   UNL     1       7.304   0.612  26.556  0.00  0.00    +0.175 HD
BRANCH  13  15
ATOM     15  S   UNL     1       5.973   0.989  24.790  0.00  0.00    +0.074 S 
ATOM     16  O   UNL     1       4.592   1.367  25.000  0.00  0.00    -0.150 OA
ATOM     17  O   UNL     1       6.343   0.179  23.645  0.00  0.00    -0.150 OA
BRANCH  15  18
ATOM     18  C   UNL     1       6.932   2.478  24.719  0.00  0.00    +0.109 A 
ATOM     19  C   UNL     1       7.371   3.111  25.886  0.00  0.00    +0.029 A 
ATOM     20  C   UNL     1       8.153   4.267  25.786  0.00  0.00    +0.006 A 
ATOM     21  C   UNL     1       8.500   4.818  24.531  0.00  0.00    -0.042 A 
ATOM     22  C   UNL     1       7.982   4.194  23.383  0.00  0.00    +0.006 A 
ATOM     23  C   UNL     1       7.206   3.037  23.475  0.00  0.00    +0.029 A 
BRANCH  21  24
ATOM     24  C   UNL     1       9.437   6.037  24.433  0.00  0.00    -0.013 C 
ATOM     25  C   UNL     1       8.800   7.107  23.521  0.00  0.00    +0.015 C 
ATOM     26  C   UNL     1      10.806   5.630  23.853  0.00  0.00    +0.015 C 
ATOM     27  C   UNL     1       9.701   6.711  25.802  0.00  0.00    +0.015 C 
ENDBRANCH  21  24
ENDBRANCH  15  18
ENDBRANCH  13  15
ENDBRANCH   6  13
BRANCH   1  28
ATOM     28  O   UNL     1       8.952  -1.512  26.099  0.00  0.00    -0.443 OA
BRANCH  28  30
ATOM     29  C   UNL     1       9.402  -1.390  23.624  0.00  0.00    +0.162 A 
ATOM     30  C   UNL     1       9.365  -0.878  24.939  0.00  0.00    +0.170 A 
ATOM     31  C   UNL     1       9.831   0.421  25.192  0.00  0.00    +0.050 A 
ATOM     32  C   UNL     1      10.297   1.229  24.160  0.00  0.00    +0.004 A 
ATOM     33  C   UNL     1      10.297   0.746  22.858  0.00  0.00    +0.004 A 
ATOM     34  C   UNL     1       9.849  -0.550  22.591  0.00  0.00    +0.049 A 
BRANCH  29  36
ATOM     35  C   UNL     1       7.866  -2.923  22.614  0.00  0.00    +0.277 C 
ATOM     36  O   UNL     1       9.029  -2.694  23.410  0.00  0.00    -0.491 OA
ENDBRANCH  29  36
ENDBRANCH  28  30
ENDBRANCH   1  28
BRANCH   2  37
ATOM     37  O   UNL     1       8.565  -4.111  26.708  0.00  0.00    -0.471 OA
BRANCH  37  38
ATOM     38  C   UNL     1       8.472  -5.493  26.341  0.00  0.00    +0.258 C 
BRANCH  38  39
ATOM     39  C   UNL     1       9.179  -5.725  25.009  0.00  0.00    +0.196 C 
BRANCH  39  40
ATOM     40  O   UNL     1      10.314  -4.876  24.884  0.00  0.00    -0.392 OA
ATOM     41  H   UNL     1      10.784  -4.914  25.735  0.00  0.00    +0.210 HD
ENDBRANCH  39  40
ENDBRANCH  38  39
ENDBRANCH  37  38
ENDBRANCH   2  37
TORSDOF 12
ENDMDL
MODEL 4
REMARK VINA RESULT:      -7.0      3.109      5.809
REMARK  Name = 
REMARK  16 active torsions:
REMARK  status: ('A' for Active; 'I' for Inactive)
REMARK    1  A    between atoms: C_1  and  O_2
REMARK    2  A    between atoms: O_2  and  C_3
REMARK    3  A    between atoms: C_8  and  O_9
REMARK    4  A    between atoms: O_9  and  C_10
REMARK    5  A    between atoms: C_11  and  N_12
REMARK    6  A    between atoms: N_12  and  S_13
REMARK    7  A    between atoms: S_13  and  C_16
REMARK    8  A    between atoms: C_19  and  C_22
REMARK    9  A    between atoms: C_22  and  C_23
REMARK   10  A    between atoms: C_22  and  C_24
REMARK   11  A    between atoms: C_22  and  C_25
REMARK   12  A    between atoms: C_27  and  C_34
REMARK   13  A    between atoms: C_29  and  O_30
REMARK   14  A    between atoms: O_30  and  C_31
REMARK   15  A    between atoms: C_31  and  C_32
REMARK   16  A    between atoms: C_32  and  O_33
REMARK                            x       y       z     vdW  Elec       q    Type
REMARK                         _______ _______ _______ _____ _____    ______ ____
ROOT
ATOM      1  C   UNL     1       6.677  -2.044  23.799  0.00  0.00    +0.231 A 
ATOM      2  C   UNL     1       6.522  -3.377  23.456  0.00  0.00    +0.264 A 
ATOM      3  N   UNL     1       6.379  -4.365  24.354  0.00  0.00    -0.187 NA
ATOM      4  C   UNL     1       6.452  -4.010  25.655  0.00  0.00    +0.203 A 
ATOM      5  N   UNL     1       6.780  -2.773  26.083  0.00  0.00    -0.204 NA
ATOM      6  C   UNL     1       6.896  -1.831  25.144  0.00  0.00    +0.188 A 
ENDROOT
BRANCH   4   7
ATOM      7  C   UNL     1       6.046  -5.003  26.682  0.00  0.00    +0.198 A 
ATOM      8  N   UNL     1       6.544  -4.863  27.934  0.00  0.00    -0.233 NA
ATOM      9  C   UNL     1       6.106  -5.738  28.855  0.00  0.00    +0.115 A 
ATOM     10  C   UNL     1       5.190  -6.726  28.588  0.00  0.00    +0.039 A 
ATOM     11  C   UNL     1       4.727  -6.779  27.296  0.00  0.00    +0.115 A 
ATOM     12  N   UNL     1       5.136  -5.940  26.329  0.00  0.00    -0.233 NA
ENDBRANCH   4   7
BRANCH   6  13
ATOM     13  N   UNL     1       7.253  -0.598  25.736  0.00  0.00    -0.196 N 
ATOM     14  H   UNL     1       7.988  -0.129  25.208  0.00  0.00    +0.175 HD
BRANCH  13  15
ATOM     15  S   UNL     1       6.051   0.490  26.158  0.00  0.00    +0.074 S 
ATOM     16  O   UNL     1       6.088   0.584  27.602  0.00  0.00    -0.150 OA
ATOM     17  O   UNL     1       4.825   0.112  25.482  0.00  0.00    -0.150 OA
BRANCH  15  18
ATOM     18  C   UNL     1       6.558   2.058  25.504  0.00  0.00    +0.109 A 
ATOM     19  C   UNL     1       7.854   2.540  25.708  0.00  0.00    +0.029 A 
ATOM     20  C   UNL     1       8.224   3.769  25.148  0.00  0.00    +0.006 A 
ATOM     21  C   UNL     1       7.312   4.539  24.390  0.00  0.00    -0.042 A 
ATOM     22  C   UNL     1       5.999   4.054  24.266  0.00  0.00    +0.006 A 
ATOM     23  C   UNL     1       5.625   2.827  24.817  0.00  0.00    +0.029 A 
BRANCH  21  24
ATOM     24  C   UNL     1       7.759   5.843  23.702  0.00  0.00    -0.013 C 
ATOM     25  C   UNL     1       7.129   7.052  24.427  0.00  0.00    +0.015 C 
ATOM     26  C   UNL     1       7.323   5.859  22.223  0.00  0.00    +0.015 C 
ATOM     27  C   UNL     1       9.293   6.051  23.731  0.00  0.00    +0.015 C 
ENDBRANCH  21  24
ENDBRANCH  15  18
ENDBRANCH  13  15
ENDBRANCH   6  13
BRANCH   1  28
ATOM     28  O   UNL     1       6.595  -1.101  22.823  0.00  0.00    -0.443 OA
BRANCH  28  30
ATOM     29  C   UNL     1       9.034  -0.752  22.304  0.00  0.00    +0.162 A 
ATOM     30  C   UNL     1       7.696  -0.336  22.478  0.00  0.00    +0.170 A 
ATOM     31  C   UNL     1       7.368   1.021  22.341  0.00  0.00    +0.050 A 
ATOM     32  C   UNL     1       8.334   1.962  22.001  0.00  0.00    +0.004 A 
ATOM     33  C   UNL     1       9.644   1.553  21.788  0.00  0.00    +0.004 A 
ATOM     34  C   UNL     1       9.991   0.207  21.933  0.00  0.00    +0.049 A 
BRANCH  29  36
ATOM     35  C   UNL     1      10.159  -2.361  23.674  0.00  0.00    +0.277 C 
ATOM     36  O   UNL     1       9.353  -2.068  22.532  0.00  0.00    -0.491 OA
ENDBRANCH  29  36
ENDBRANCH  28  30
ENDBRANCH   1  28
BRANCH   2  37
ATOM     37  O   UNL     1       6.541  -3.701  22.110  0.00  0.00    -0.471 OA
BRANCH  37  38
ATOM     38  C   UNL     1       7.128  -4.963  21.769  0.00  0.00    +0.258 C 
BRANCH  38  39
ATOM     39  C   UNL     1       6.075  -5.874  21.147  0.00  0.00    +0.196 C 
BRANCH  39  40
ATOM     40  O   UNL     1       5.179  -6.365  22.138  0.00  0.00    -0.392 OA
ATOM     41  H   UNL     1       4.590  -5.626  22.369  0.00  0.00    +0.210 HD
ENDBRANCH  39  40
ENDBRANCH  38  39
ENDBRANCH  37  38
ENDBRANCH   2  37
TORSDOF 12
ENDMDL
MODEL 5
REMARK VINA RESULT:      -6.8      3.404      5.813
REMARK  Name = 
REMARK  16 active torsions:
REMARK  status: ('A' for Active; 'I' for Inactive)
REMARK    1  A    between atoms: C_1  and  O_2
REMARK    2  A    between atoms: O_2  and  C_3
REMARK    3  A    between atoms: C_8  and  O_9
REMARK    4  A    between atoms: O_9  and  C_10
REMARK    5  A    between atoms: C_11  and  N_12
REMARK    6  A    between atoms: N_12  and  S_13
REMARK    7  A    between atoms: S_13  and  C_16
REMARK    8  A    between atoms: C_19  and  C_22
REMARK    9  A    between atoms: C_22  and  C_23
REMARK   10  A    between atoms: C_22  and  C_24
REMARK   11  A    between atoms: C_22  and  C_25
REMARK   12  A    between atoms: C_27  and  C_34
REMARK   13  A    between atoms: C_29  and  O_30
REMARK   14  A    between atoms: O_30  and  C_31
REMARK   15  A    between atoms: C_31  and  C_32
REMARK   16  A    between atoms: C_32  and  O_33
REMARK                            x       y       z     vdW  Elec       q    Type
REMARK                         _______ _______ _______ _____ _____    ______ ____
ROOT
ATOM      1  C   UNL     1       6.806  -2.728  24.258  0.00  0.00    +0.231 A 
ATOM      2  C   UNL     1       7.007  -4.092  24.385  0.00  0.00    +0.264 A 
ATOM      3  N   UNL     1       6.859  -4.763  25.538  0.00  0.00    -0.187 NA
ATOM      4  C   UNL     1       6.552  -4.026  26.627  0.00  0.00    +0.203 A 
ATOM      5  N   UNL     1       6.514  -2.677  26.641  0.00  0.00    -0.204 NA
ATOM      6  C   UNL     1       6.656  -2.068  25.460  0.00  0.00    +0.188 A 
ENDROOT
BRANCH   4   7
ATOM      7  C   UNL     1       6.125  -4.732  27.862  0.00  0.00    +0.198 A 
ATOM      8  N   UNL     1       5.066  -4.237  28.545  0.00  0.00    -0.233 NA
ATOM      9  C   UNL     1       4.664  -4.937  29.620  0.00  0.00    +0.115 A 
ATOM     10  C   UNL     1       5.257  -6.106  30.029  0.00  0.00    +0.039 A 
ATOM     11  C   UNL     1       6.310  -6.542  29.263  0.00  0.00    +0.115 A 
ATOM     12  N   UNL     1       6.765  -5.881  28.185  0.00  0.00    -0.233 NA
ENDBRANCH   4   7
BRANCH   6  13
ATOM     13  N   UNL     1       6.609  -0.666  25.630  0.00  0.00    -0.196 N 
ATOM     14  H   UNL     1       5.722  -0.368  26.032  0.00  0.00    +0.175 HD
BRANCH  13  15
ATOM     15  S   UNL     1       7.885   0.114  26.386  0.00  0.00    +0.074 S 
ATOM     16  O   UNL     1       9.084  -0.567  25.948  0.00  0.00    -0.150 OA
ATOM     17  O   UNL     1       7.585   0.229  27.801  0.00  0.00    -0.150 OA
BRANCH  15  18
ATOM     18  C   UNL     1       7.923   1.755  25.716  0.00  0.00    +0.109 A 
ATOM     19  C   UNL     1       9.016   2.205  24.971  0.00  0.00    +0.029 A 
ATOM     20  C   UNL     1       8.993   3.497  24.432  0.00  0.00    +0.006 A 
ATOM     21  C   UNL     1       7.893   4.361  24.634  0.00  0.00    -0.042 A 
ATOM     22  C   UNL     1       6.844   3.898  25.447  0.00  0.00    +0.006 A 
ATOM     23  C   UNL     1       6.858   2.609  25.983  0.00  0.00    +0.029 A 
BRANCH  21  24
ATOM     24  C   UNL     1       7.840   5.746  23.959  0.00  0.00    -0.013 C 
ATOM     25  C   UNL     1       7.004   6.712  24.826  0.00  0.00    +0.015 C 
ATOM     26  C   UNL     1       7.205   5.647  22.558  0.00  0.00    +0.015 C 
ATOM     27  C   UNL     1       9.237   6.391  23.786  0.00  0.00    +0.015 C 
ENDBRANCH  21  24
ENDBRANCH  15  18
ENDBRANCH  13  15
ENDBRANCH   6  13
BRANCH   1  28
ATOM     28  O   UNL     1       6.767  -2.182  23.014  0.00  0.00    -0.443 OA
BRANCH  28  30
ATOM     29  C   UNL     1       7.637   0.109  22.436  0.00  0.00    +0.162 A 
ATOM     30  C   UNL     1       7.740  -1.290  22.597  0.00  0.00    +0.170 A 
ATOM     31  C   UNL     1       8.940  -1.939  22.274  0.00  0.00    +0.050 A 
ATOM     32  C   UNL     1      10.047  -1.223  21.830  0.00  0.00    +0.004 A 
ATOM     33  C   UNL     1       9.965   0.158  21.708  0.00  0.00    +0.004 A 
ATOM     34  C   UNL     1       8.773   0.820  22.013  0.00  0.00    +0.049 A 
BRANCH  29  36
ATOM     35  C   UNL     1       6.294   2.085  22.287  0.00  0.00    +0.277 C 
ATOM     36  O   UNL     1       6.427   0.716  22.669  0.00  0.00    -0.491 OA
ENDBRANCH  29  36
ENDBRANCH  28  30
ENDBRANCH   1  28
BRANCH   2  37
ATOM     37  O   UNL     1       7.406  -4.791  23.258  0.00  0.00    -0.471 OA
BRANCH  37  38
ATOM     38  C   UNL     1       6.457  -5.717  22.715  0.00  0.00    +0.258 C 
BRANCH  38  39
ATOM     39  C   UNL     1       6.228  -5.418  21.237  0.00  0.00    +0.196 C 
BRANCH  39  40
ATOM     40  O   UNL     1       5.728  -4.098  21.058  0.00  0.00    -0.392 OA
ATOM     41  H   UNL     1       6.493  -3.540  20.833  0.00  0.00    +0.210 HD
ENDBRANCH  39  40
ENDBRANCH  38  39
ENDBRANCH  37  38
ENDBRANCH   2  37
TORSDOF 12
ENDMDL
MODEL 6
REMARK VINA RESULT:      -6.8      2.985      5.821
REMARK  Name = 
REMARK  16 active torsions:
REMARK  status: ('A' for Active; 'I' for Inactive)
REMARK    1  A    between atoms: C_1  and  O_2
REMARK    2  A    between atoms: O_2  and  C_3
REMARK    3  A    between atoms: C_8  and  O_9
REMARK    4  A    between atoms: O_9  and  C_10
REMARK    5  A    between atoms: C_11  and  N_12
REMARK    6  A    between atoms: N_12  and  S_13
REMARK    7  A    between atoms: S_13  and  C_16
REMARK    8  A    between atoms: C_19  and  C_22
REMARK    9  A    between atoms: C_22  and  C_23
REMARK   10  A    between atoms: C_22  and  C_24
REMARK   11  A    between atoms: C_22  and  C_25
REMARK   12  A    between atoms: C_27  and  C_34
REMARK   13  A    between atoms: C_29  and  O_30
REMARK   14  A    between atoms: O_30  and  C_31
REMARK   15  A    between atoms: C_31  and  C_32
REMARK   16  A    between atoms: C_32  and  O_33
REMARK                            x       y       z     vdW  Elec       q    Type
REMARK                         _______ _______ _______ _____ _____    ______ ____
ROOT
ATOM      1  C   UNL     1       7.023  -3.334  25.510  0.00  0.00    +0.231 A 
ATOM      2  C   UNL     1       5.950  -3.024  26.329  0.00  0.00    +0.264 A 
ATOM      3  N   UNL     1       5.542  -1.770  26.580  0.00  0.00    -0.187 NA
ATOM      4  C   UNL     1       6.276  -0.778  26.031  0.00  0.00    +0.203 A 
ATOM      5  N   UNL     1       7.437  -0.974  25.372  0.00  0.00    -0.204 NA
ATOM      6  C   UNL     1       7.783  -2.243  25.143  0.00  0.00    +0.188 A 
ENDROOT
BRANCH   4   7
ATOM      7  C   UNL     1       5.730   0.602  26.056  0.00  0.00    +0.198 A 
ATOM      8  N   UNL     1       5.945   1.352  27.164  0.00  0.00    -0.233 NA
ATOM      9  C   UNL     1       5.495   2.618  27.129  0.00  0.00    +0.115 A 
ATOM     10  C   UNL     1       4.861   3.168  26.042  0.00  0.00    +0.039 A 
ATOM     11  C   UNL     1       4.705   2.339  24.958  0.00  0.00    +0.115 A 
ATOM     12  N   UNL     1       5.122   1.062  24.937  0.00  0.00    -0.233 NA
ENDBRANCH   4   7
BRANCH   6  13
ATOM     13  N   UNL     1       9.019  -2.293  24.460  0.00  0.00    -0.196 N 
ATOM     14  H   UNL     1       9.410  -3.233  24.463  0.00  0.00    +0.175 HD
BRANCH  13  15
ATOM     15  S   UNL     1       9.142  -1.613  22.933  0.00  0.00    +0.074 S 
ATOM     16  O   UNL     1       7.946  -2.010  22.222  0.00  0.00    -0.150 OA
ATOM     17  O   UNL     1      10.452  -1.923  22.392  0.00  0.00    -0.150 OA
BRANCH  15  18
ATOM     18  C   UNL     1       9.068   0.142  23.171  0.00  0.00    +0.109 A 
ATOM     19  C   UNL     1       8.003   0.895  22.667  0.00  0.00    +0.029 A 
ATOM     20  C   UNL     1       7.966   2.274  22.904  0.00  0.00    +0.006 A 
ATOM     21  C   UNL     1       8.988   2.926  23.631  0.00  0.00    -0.042 A 
ATOM     22  C   UNL     1      10.076   2.147  24.062  0.00  0.00    +0.006 A 
ATOM     23  C   UNL     1      10.118   0.771  23.833  0.00  0.00    +0.029 A 
BRANCH  21  24
ATOM     24  C   UNL     1       8.888   4.427  23.964  0.00  0.00    -0.013 C 
ATOM     25  C   UNL     1      10.282   5.079  23.835  0.00  0.00    +0.015 C 
ATOM     26  C   UNL     1       8.364   4.636  25.398  0.00  0.00    +0.015 C 
ATOM     27  C   UNL     1       7.941   5.198  23.012  0.00  0.00    +0.015 C 
ENDBRANCH  21  24
ENDBRANCH  15  18
ENDBRANCH  13  15
ENDBRANCH   6  13
BRANCH   1  28
ATOM     28  O   UNL     1       7.220  -4.630  25.147  0.00  0.00    -0.443 OA
BRANCH  28  30
ATOM     29  C   UNL     1       5.400  -5.627  23.721  0.00  0.00    +0.162 A 
ATOM     30  C   UNL     1       6.697  -5.124  23.965  0.00  0.00    +0.170 A 
ATOM     31  C   UNL     1       7.650  -5.134  22.935  0.00  0.00    +0.050 A 
ATOM     32  C   UNL     1       7.328  -5.597  21.664  0.00  0.00    +0.004 A 
ATOM     33  C   UNL     1       6.042  -6.055  21.406  0.00  0.00    +0.004 A 
ATOM     34  C   UNL     1       5.084  -6.065  22.424  0.00  0.00    +0.049 A 
BRANCH  29  36
ATOM     35  C   UNL     1       4.149  -6.994  25.236  0.00  0.00    +0.277 C 
ATOM     36  O   UNL     1       4.509  -5.696  24.764  0.00  0.00    -0.491 OA
ENDBRANCH  29  36
ENDBRANCH  28  30
ENDBRANCH   1  28
BRANCH   2  37
ATOM     37  O   UNL     1       5.282  -4.073  26.939  0.00  0.00    -0.471 OA
BRANCH  37  38
ATOM     38  C   UNL     1       5.759  -4.464  28.233  0.00  0.00    +0.258 C 
BRANCH  38  39
ATOM     39  C   UNL     1       6.221  -5.917  28.199  0.00  0.00    +0.196 C 
BRANCH  39  40
ATOM     40  O   UNL     1       7.582  -6.007  27.792  0.00  0.00    -0.392 OA
ATOM     41  H   UNL     1       7.637  -6.757  27.174  0.00  0.00    +0.210 HD
ENDBRANCH  39  40
ENDBRANCH  38  39
ENDBRANCH  37  38
ENDBRANCH   2  37
TORSDOF 12
ENDMDL
MODEL 7
REMARK VINA RESULT:      -6.6      2.726      5.002
REMARK  Name = 
REMARK  16 active torsions:
REMARK  status: ('A' for Active; 'I' for Inactive)
REMARK    1  A    between atoms: C_1  and  O_2
REMARK    2  A    between atoms: O_2  and  C_3
REMARK    3  A    between atoms: C_8  and  O_9
REMARK    4  A    between atoms: O_9  and  C_10
REMARK    5  A    between atoms: C_11  and  N_12
REMARK    6  A    between atoms: N_12  and  S_13
REMARK    7  A    between atoms: S_13  and  C_16
REMARK    8  A    between atoms: C_19  and  C_22
REMARK    9  A    between atoms: C_22  and  C_23
REMARK   10  A    between atoms: C_22  and  C_24
REMARK   11  A    between atoms: C_22  and  C_25
REMARK   12  A    between atoms: C_27  and  C_34
REMARK   13  A    between atoms: C_29  and  O_30
REMARK   14  A    between atoms: O_30  and  C_31
REMARK   15  A    between atoms: C_31  and  C_32
REMARK   16  A    between atoms: C_32  and  O_33
REMARK                            x       y       z     vdW  Elec       q    Type
REMARK                         _______ _______ _______ _____ _____    ______ ____
ROOT
ATOM      1  C   UNL     1       4.150  -6.965  24.734  0.00  0.00    +0.231 A 
ATOM      2  C   UNL     1       2.850  -7.432  24.832  0.00  0.00    +0.264 A 
ATOM      3  N   UNL     1       2.150  -7.450  25.978  0.00  0.00    -0.187 NA
ATOM      4  C   UNL     1       2.800  -7.034  27.086  0.00  0.00    +0.203 A 
ATOM      5  N   UNL     1       4.115  -6.735  27.123  0.00  0.00    -0.204 NA
ATOM      6  C   UNL     1       4.754  -6.722  25.950  0.00  0.00    +0.188 A 
ENDROOT
BRANCH   4   7
ATOM      7  C   UNL     1       2.010  -6.788  28.319  0.00  0.00    +0.198 A 
ATOM      8  N   UNL     1       1.723  -5.505  28.646  0.00  0.00    -0.233 NA
ATOM      9  C   UNL     1       0.951  -5.320  29.731  0.00  0.00    +0.115 A 
ATOM     10  C   UNL     1       0.443  -6.349  30.485  0.00  0.00    +0.039 A 
ATOM     11  C   UNL     1       0.770  -7.616  30.065  0.00  0.00    +0.115 A 
ATOM     12  N   UNL     1       1.547  -7.864  28.998  0.00  0.00    -0.233 NA
ENDBRANCH   4   7
BRANCH   6  13
ATOM     13  N   UNL     1       6.117  -6.406  26.144  0.00  0.00    -0.196 N 
ATOM     14  H   UNL     1       6.603  -6.284  25.257  0.00  0.00    +0.175 HD
BRANCH  13  15
ATOM     15  S   UNL     1       6.534  -5.185  27.212  0.00  0.00    +0.074 S 
ATOM     16  O   UNL     1       7.473  -5.773  28.144  0.00  0.00    -0.150 OA
ATOM     17  O   UNL     1       5.320  -4.557  27.697  0.00  0.00    -0.150 OA
BRANCH  15  18
ATOM     18  C   UNL     1       7.412  -3.977  26.256  0.00  0.00    +0.109 A 
ATOM     19  C   UNL     1       8.603  -4.302  25.599  0.00  0.00    +0.029 A 
ATOM     20  C   UNL     1       9.248  -3.328  24.829  0.00  0.00    +0.006 A 
ATOM     21  C   UNL     1       8.729  -2.018  24.709  0.00  0.00    -0.042 A 
ATOM     22  C   UNL     1       7.569  -1.710  25.440  0.00  0.00    +0.006 A 
ATOM     23  C   UNL     1       6.918  -2.678  26.207  0.00  0.00    +0.029 A 
BRANCH  21  24
ATOM     24  C   UNL     1       9.399  -0.983  23.784  0.00  0.00    -0.013 C 
ATOM     25  C   UNL     1      10.362  -0.100  24.608  0.00  0.00    +0.015 C 
ATOM     26  C   UNL     1       8.342  -0.085  23.112  0.00  0.00    +0.015 C 
ATOM     27  C   UNL     1      10.238  -1.631  22.655  0.00  0.00    +0.015 C 
ENDBRANCH  21  24
ENDBRANCH  15  18
ENDBRANCH  13  15
ENDBRANCH   6  13
BRANCH   1  28
ATOM     28  O   UNL     1       4.692  -6.786  23.500  0.00  0.00    -0.443 OA
BRANCH  28  30
ATOM     29  C   UNL     1       4.631  -4.280  23.255  0.00  0.00    +0.162 A 
ATOM     30  C   UNL     1       5.212  -5.560  23.123  0.00  0.00    +0.170 A 
ATOM     31  C   UNL     1       6.462  -5.692  22.499  0.00  0.00    +0.050 A 
ATOM     32  C   UNL     1       7.157  -4.578  22.041  0.00  0.00    +0.004 A 
ATOM     33  C   UNL     1       6.609  -3.313  22.205  0.00  0.00    +0.004 A 
ATOM     34  C   UNL     1       5.359  -3.164  22.812  0.00  0.00    +0.049 A 
BRANCH  29  36
ATOM     35  C   UNL     1       3.229  -3.494  25.029  0.00  0.00    +0.277 C 
ATOM     36  O   UNL     1       3.367  -4.179  23.784  0.00  0.00    -0.491 OA
ENDBRANCH  29  36
ENDBRANCH  28  30
ENDBRANCH   1  28
BRANCH   2  37
ATOM     37  O   UNL     1       2.256  -7.929  23.685  0.00  0.00    -0.471 OA
BRANCH  37  38
ATOM     38  C   UNL     1       1.112  -7.215  23.200  0.00  0.00    +0.258 C 
BRANCH  38  39
ATOM     39  C   UNL     1       0.868  -7.558  21.734  0.00  0.00    +0.196 C 
BRANCH  39  40
ATOM     40  O   UNL     1       1.259  -8.898  21.455  0.00  0.00    -0.392 OA
ATOM     41  H   UNL     1       1.463  -8.934  20.505  0.00  0.00    +0.210 HD
ENDBRANCH  39  40
ENDBRANCH  38  39
ENDBRANCH  37  38
ENDBRANCH   2  37
TORSDOF 12
ENDMDL
MODEL 8
REMARK VINA RESULT:      -6.5      3.626      8.950
REMARK  Name = 
REMARK  16 active torsions:
REMARK  status: ('A' for Active; 'I' for Inactive)
REMARK    1  A    between atoms: C_1  and  O_2
REMARK    2  A    between atoms: O_2  and  C_3
REMARK    3  A    between atoms: C_8  and  O_9
REMARK    4  A    between atoms: O_9  and  C_10
REMARK    5  A    between atoms: C_11  and  N_12
REMARK    6  A    between atoms: N_12  and  S_13
REMARK    7  A    between atoms: S_13  and  C_16
REMARK    8  A    between atoms: C_19  and  C_22
REMARK    9  A    between atoms: C_22  and  C_23
REMARK   10  A    between atoms: C_22  and  C_24
REMARK   11  A    between atoms: C_22  and  C_25
REMARK   12  A    between atoms: C_27  and  C_34
REMARK   13  A    between atoms: C_29  and  O_30
REMARK   14  A    between atoms: O_30  and  C_31
REMARK   15  A    between atoms: C_31  and  C_32
REMARK   16  A    between atoms: C_32  and  O_33
REMARK                            x       y       z     vdW  Elec       q    Type
REMARK                         _______ _______ _______ _____ _____    ______ ____
ROOT
ATOM      1  C   UNL     1       7.765  -0.951  24.639  0.00  0.00    +0.231 A 
ATOM      2  C   UNL     1       9.042  -0.562  24.268  0.00  0.00    +0.264 A 
ATOM      3  N   UNL     1       9.428   0.719  24.159  0.00  0.00    -0.187 NA
ATOM      4  C   UNL     1       8.478   1.654  24.376  0.00  0.00    +0.203 A 
ATOM      5  N   UNL     1       7.171   1.374  24.563  0.00  0.00    -0.204 NA
ATOM      6  C   UNL     1       6.851   0.082  24.675  0.00  0.00    +0.188 A 
ENDROOT
BRANCH   4   7
ATOM      7  C   UNL     1       8.900   3.070  24.525  0.00  0.00    +0.198 A 
ATOM      8  N   UNL     1       9.869   3.535  23.700  0.00  0.00    -0.233 NA
ATOM      9  C   UNL     1      10.181   4.837  23.816  0.00  0.00    +0.115 A 
ATOM     10  C   UNL     1       9.564   5.690  24.698  0.00  0.00    +0.039 A 
ATOM     11  C   UNL     1       8.581   5.134  25.479  0.00  0.00    +0.115 A 
ATOM     12  N   UNL     1       8.232   3.837  25.417  0.00  0.00    -0.233 NA
ENDBRANCH   4   7
BRANCH   6  13
ATOM     13  N   UNL     1       5.456  -0.058  24.853  0.00  0.00    -0.196 N 
ATOM     14  H   UNL     1       5.060  -0.721  24.190  0.00  0.00    +0.175 HD
BRANCH  13  15
ATOM     15  S   UNL     1       4.847  -0.332  26.390  0.00  0.00    +0.074 S 
ATOM     16  O   UNL     1       3.526   0.257  26.406  0.00  0.00    -0.150 OA
ATOM     17  O   UNL     1       5.842   0.076  27.363  0.00  0.00    -0.150 OA
BRANCH  15  18
ATOM     18  C   UNL     1       4.654  -2.089  26.533  0.00  0.00    +0.109 A 
ATOM     19  C   UNL     1       5.327  -2.811  27.524  0.00  0.00    +0.029 A 
ATOM     20  C   UNL     1       5.122  -4.192  27.623  0.00  0.00    +0.006 A 
ATOM     21  C   UNL     1       4.259  -4.876  26.737  0.00  0.00    -0.042 A 
ATOM     22  C   UNL     1       3.655  -4.128  25.712  0.00  0.00    +0.006 A 
ATOM     23  C   UNL     1       3.851  -2.750  25.609  0.00  0.00    +0.029 A 
BRANCH  21  24
ATOM     24  C   UNL     1       3.971  -6.380  26.916  0.00  0.00    -0.013 C 
ATOM     25  C   UNL     1       4.956  -6.976  27.945  0.00  0.00    +0.015 C 
ATOM     26  C   UNL     1       4.126  -7.129  25.577  0.00  0.00    +0.015 C 
ATOM     27  C   UNL     1       2.543  -6.667  27.441  0.00  0.00    +0.015 C 
ENDBRANCH  21  24
ENDBRANCH  15  18
ENDBRANCH  13  15
ENDBRANCH   6  13
BRANCH   1  28
ATOM     28  O   UNL     1       7.536  -2.259  24.931  0.00  0.00    -0.443 OA
BRANCH  28  30
ATOM     29  C   UNL     1       7.921  -4.376  23.624  0.00  0.00    +0.162 A 
ATOM     30  C   UNL     1       7.251  -3.172  23.930  0.00  0.00    +0.170 A 
ATOM     31  C   UNL     1       6.172  -2.756  23.136  0.00  0.00    +0.050 A 
ATOM     32  C   UNL     1       5.726  -3.531  22.070  0.00  0.00    +0.004 A 
ATOM     33  C   UNL     1       6.355  -4.737  21.789  0.00  0.00    +0.004 A 
ATOM     34  C   UNL     1       7.439  -5.159  22.562  0.00  0.00    +0.049 A 
BRANCH  29  36
ATOM     35  C   UNL     1       8.818  -5.383  25.602  0.00  0.00    +0.277 C 
ATOM     36  O   UNL     1       9.031  -4.721  24.355  0.00  0.00    -0.491 OA
ENDBRANCH  29  36
ENDBRANCH  28  30
ENDBRANCH   1  28
BRANCH   2  37
ATOM     37  O   UNL     1       9.957  -1.558  23.971  0.00  0.00    -0.471 OA
BRANCH  37  38
ATOM     38  C   UNL     1      10.526  -1.527  22.657  0.00  0.00    +0.258 C 
BRANCH  38  39
ATOM     39  C   UNL     1       9.417  -1.457  21.612  0.00  0.00    +0.196 C 
BRANCH  39  40
ATOM     40  O   UNL     1       9.416  -0.192  20.959  0.00  0.00    -0.392 OA
ATOM     41  H   UNL     1       8.485   0.027  20.781  0.00  0.00    +0.210 HD
ENDBRANCH  39  40
ENDBRANCH  38  39
ENDBRANCH  37  38
ENDBRANCH   2  37
TORSDOF 12
ENDMDL
MODEL 9
REMARK VINA RESULT:      -6.5      5.171      9.112
REMARK  Name = 
REMARK  16 active torsions:
REMARK  status: ('A' for Active; 'I' for Inactive)
REMARK    1  A    between atoms: C_1  and  O_2
REMARK    2  A    between atoms: O_2  and  C_3
REMARK    3  A    between atoms: C_8  and  O_9
REMARK    4  A    between atoms: O_9  and  C_10
REMARK    5  A    between atoms: C_11  and  N_12
REMARK    6  A    between atoms: N_12  and  S_13
REMARK    7  A    between atoms: S_13  and  C_16
REMARK    8  A    between atoms: C_19  and  C_22
REMARK    9  A    between atoms: C_22  and  C_23
REMARK   10  A    between atoms: C_22  and  C_24
REMARK   11  A    between atoms: C_22  and  C_25
REMARK   12  A    between atoms: C_27  and  C_34
REMARK   13  A    between atoms: C_29  and  O_30
REMARK   14  A    between atoms: O_30  and  C_31
REMARK   15  A    between atoms: C_31  and  C_32
REMARK   16  A    between atoms: C_32  and  O_33
REMARK                            x       y       z     vdW  Elec       q    Type
REMARK                         _______ _______ _______ _____ _____    ______ ____
ROOT
ATOM      1  C   UNL     1       7.922   3.486  23.660  0.00  0.00    +0.231 A 
ATOM      2  C   UNL     1       6.582   3.656  23.351  0.00  0.00    +0.264 A 
ATOM      3  N   UNL     1       5.586   3.008  23.976  0.00  0.00    -0.187 NA
ATOM      4  C   UNL     1       5.951   2.107  24.914  0.00  0.00    +0.203 A 
ATOM      5  N   UNL     1       7.227   1.742  25.155  0.00  0.00    -0.204 NA
ATOM      6  C   UNL     1       8.173   2.431  24.512  0.00  0.00    +0.188 A 
ENDROOT
BRANCH   4   7
ATOM      7  C   UNL     1       4.903   1.556  25.810  0.00  0.00    +0.198 A 
ATOM      8  N   UNL     1       3.743   2.244  25.932  0.00  0.00    -0.233 NA
ATOM      9  C   UNL     1       2.790   1.686  26.698  0.00  0.00    +0.115 A 
ATOM     10  C   UNL     1       2.937   0.474  27.328  0.00  0.00    +0.039 A 
ATOM     11  C   UNL     1       4.139  -0.161  27.130  0.00  0.00    +0.115 A 
ATOM     12  N   UNL     1       5.133   0.353  26.386  0.00  0.00    -0.233 NA
ENDBRANCH   4   7
BRANCH   6  13
ATOM     13  N   UNL     1       9.451   1.933  24.852  0.00  0.00    -0.196 N 
ATOM     14  H   UNL     1       9.454   1.510  25.778  0.00  0.00    +0.175 HD
BRANCH  13  15
ATOM     15  S   UNL     1      10.269   0.957  23.762  0.00  0.00    +0.074 S 
ATOM     16  O   UNL     1      11.530   0.627  24.391  0.00  0.00    -0.150 OA
ATOM     17  O   UNL     1      10.246   1.595  22.460  0.00  0.00    -0.150 OA
BRANCH  15  18
ATOM     18  C   UNL     1       9.323  -0.538  23.638  0.00  0.00    +0.109 A 
ATOM     19  C   UNL     1       9.077  -1.332  24.762  0.00  0.00    +0.029 A 
ATOM     20  C   UNL     1       8.298  -2.488  24.627  0.00  0.00    +0.006 A 
ATOM     21  C   UNL     1       7.765  -2.877  23.377  0.00  0.00    -0.042 A 
ATOM     22  C   UNL     1       8.093  -2.091  22.259  0.00  0.00    +0.006 A 
ATOM     23  C   UNL     1       8.864  -0.935  22.386  0.00  0.00    +0.029 A 
BRANCH  21  24
ATOM     24  C   UNL     1       6.834  -4.100  23.260  0.00  0.00    -0.013 C 
ATOM     25  C   UNL     1       7.285  -4.980  22.075  0.00  0.00    +0.015 C 
ATOM     26  C   UNL     1       5.376  -3.657  23.033  0.00  0.00    +0.015 C 
ATOM     27  C   UNL     1       6.852  -4.999  24.520  0.00  0.00    +0.015 C 
ENDBRANCH  21  24
ENDBRANCH  15  18
ENDBRANCH  13  15
ENDBRANCH   6  13
BRANCH   1  28
ATOM     28  O   UNL     1       8.833   4.343  23.125  0.00  0.00    -0.443 OA
BRANCH  28  30
ATOM     29  C   UNL     1      10.926   5.459  23.969  0.00  0.00    +0.162 A 
ATOM     30  C   UNL     1       9.535   5.226  23.928  0.00  0.00    +0.170 A 
ATOM     31  C   UNL     1       8.690   5.911  24.815  0.00  0.00    +0.050 A 
ATOM     32  C   UNL     1       9.197   6.844  25.712  0.00  0.00    +0.004 A 
ATOM     33  C   UNL     1      10.560   7.108  25.729  0.00  0.00    +0.004 A 
ATOM     34  C   UNL     1      11.418   6.426  24.862  0.00  0.00    +0.049 A 
BRANCH  29  36
ATOM     35  C   UNL     1      13.095   5.156  23.003  0.00  0.00    +0.277 C 
ATOM     36  O   UNL     1      11.747   4.714  23.158  0.00  0.00    -0.491 OA
ENDBRANCH  29  36
ENDBRANCH  28  30
ENDBRANCH   1  28
BRANCH   2  37
ATOM     37  O   UNL     1       6.264   4.527  22.323  0.00  0.00    -0.471 OA
BRANCH  37  38
ATOM     38  C   UNL     1       5.716   5.793  22.709  0.00  0.00    +0.258 C 
BRANCH  38  39
ATOM     39  C   UNL     1       6.511   6.922  22.061  0.00  0.00    +0.196 C 
BRANCH  39  40
ATOM     40  O   UNL     1       7.545   6.403  21.232  0.00  0.00    -0.392 OA
ATOM     41  H   UNL     1       8.234   6.064  21.829  0.00  0.00    +0.210 HD
ENDBRANCH  39  40
ENDBRANCH  38  39
ENDBRANCH  37  38
ENDBRANCH   2  37
TORSDOF 12
ENDMDL
