MODEL 1
REMARK VINA RESULT:      -6.2      0.000      0.000
REMARK  Name = 
REMARK  5 active torsions:
REMARK  status: ('A' for Active; 'I' for Inactive)
REMARK    1  A    between atoms: O_1  and  C_2
REMARK    2  A    between atoms: C_6  and  C_7
REMARK    3  A    between atoms: N_8  and  N_9
REMARK    4  A    between atoms: C_10  and  C_12
REMARK    5  A    between atoms: C_19  and  O_20
REMARK                            x       y       z     vdW  Elec       q    Type
REMARK                         _______ _______ _______ _____ _____    ______ ____
ROOT
ATOM      1  C   UNL     1       7.944  -0.473  25.137  0.00  0.00    +0.142 C 
ATOM      2  N   UNL     1       9.161  -0.179  24.818  0.00  0.00    -0.187 NA
ENDROOT
BRANCH   1   7
ATOM      3  C   UNL     1       6.594  -4.535  25.022  0.00  0.00    +0.148 A 
ATOM      4  C   UNL     1       7.068  -3.945  23.844  0.00  0.00    +0.102 A 
ATOM      5 BR   UNL     1       7.108  -4.951  22.226  0.00  0.00    -0.043 Br
ATOM      6  C   UNL     1       7.514  -2.614  23.862  0.00  0.00    +0.143 A 
ATOM      7  C   UNL     1       7.483  -1.879  25.061  0.00  0.00    +0.038 A 
ATOM      8  C   UNL     1       7.004  -2.471  26.234  0.00  0.00    +0.032 A 
ATOM      9  C   UNL     1       6.563  -3.796  26.209  0.00  0.00    +0.061 A 
ATOM     10 BR   UNL     1       5.924  -4.572  27.817  0.00  0.00    -0.046 Br
BRANCH   3  11
ATOM     11  O   UNL     1       6.164  -5.838  25.000  0.00  0.00    -0.504 OA
ATOM     12  H   UNL     1       6.816  -6.389  25.468  0.00  0.00    +0.292 HD
ENDBRANCH   3  11
BRANCH   6  13
ATOM     13  O   UNL     1       7.970  -2.065  22.688  0.00  0.00    -0.505 OA
ATOM     14  H   UNL     1       7.645  -2.591  21.921  0.00  0.00    +0.292 HD
ENDBRANCH   6  13
ENDBRANCH   1   7
BRANCH   2  15
ATOM     15  N   UNL     1       9.539   1.126  24.886  0.00  0.00    -0.203 N 
ATOM     16  H   UNL     1       9.552   1.603  25.780  0.00  0.00    +0.178 HD
ATOM     17  C   UNL     1       9.721   1.808  23.689  0.00  0.00    +0.263 C 
ATOM     18  O   UNL     1       9.583   1.301  22.580  0.00  0.00    -0.268 OA
BRANCH  17  19
ATOM     19  C   UNL     1      10.062   3.254  23.781  0.00  0.00    +0.039 A 
ATOM     20  C   UNL     1      11.303   3.662  23.270  0.00  0.00    +0.028 A 
ATOM     21  C   UNL     1      11.680   5.001  23.343  0.00  0.00    +0.019 A 
ATOM     22 BR   UNL     1      13.348   5.547  22.641  0.00  0.00    -0.050 Br
ATOM     23  C   UNL     1      10.836   5.940  23.932  0.00  0.00    +0.015 A 
ATOM     24  C   UNL     1       9.608   5.536  24.458  0.00  0.00    +0.002 A 
ATOM     25  C   UNL     1       9.218   4.194  24.386  0.00  0.00    +0.013 A 
ENDBRANCH  17  19
ENDBRANCH   2  15
TORSDOF 5
ENDMDL
MODEL 2
REMARK VINA RESULT:      -6.2      1.649      2.790
REMARK  Name = 
REMARK  5 active torsions:
REMARK  status: ('A' for Active; 'I' for Inactive)
REMARK    1  A    between atoms: O_1  and  C_2
REMARK    2  A    between atoms: C_6  and  C_7
REMARK    3  A    between atoms: N_8  and  N_9
REMARK    4  A    between atoms: C_10  and  C_12
REMARK    5  A    between atoms: C_19  and  O_20
REMARK                            x       y       z     vdW  Elec       q    Type
REMARK                         _______ _______ _______ _____ _____    ______ ____
ROOT
ATOM      1  C   UNL     1       8.865  -1.461  24.042  0.00  0.00    +0.142 C 
ATOM      2  N   UNL     1       8.526  -0.375  24.656  0.00  0.00    -0.187 NA
ENDROOT
BRANCH   1   7
ATOM      3  C   UNL     1       6.445  -4.982  24.337  0.00  0.00    +0.148 A 
ATOM      4  C   UNL     1       6.796  -4.300  25.509  0.00  0.00    +0.102 A 
ATOM      5 BR   UNL     1       6.191  -4.941  27.199  0.00  0.00    -0.043 Br
ATOM      6  C   UNL     1       7.589  -3.145  25.432  0.00  0.00    +0.143 A 
ATOM      7  C   UNL     1       8.029  -2.677  24.181  0.00  0.00    +0.038 A 
ATOM      8  C   UNL     1       7.681  -3.364  23.013  0.00  0.00    +0.032 A 
ATOM      9  C   UNL     1       6.891  -4.512  23.098  0.00  0.00    +0.061 A 
ATOM     10 BR   UNL     1       6.431  -5.419  21.497  0.00  0.00    -0.046 Br
BRANCH   3  11
ATOM     11  O   UNL     1       5.666  -6.109  24.418  0.00  0.00    -0.504 OA
ATOM     12  H   UNL     1       6.173  -6.863  24.068  0.00  0.00    +0.292 HD
ENDBRANCH   3  11
BRANCH   6  13
ATOM     13  O   UNL     1       7.916  -2.501  26.601  0.00  0.00    -0.505 OA
ATOM     14  H   UNL     1       7.189  -2.605  27.258  0.00  0.00    +0.292 HD
ENDBRANCH   6  13
ENDBRANCH   1   7
BRANCH   2  15
ATOM     15  N   UNL     1       9.329   0.713  24.514  0.00  0.00    -0.203 N 
ATOM     16  H   UNL     1      10.243   0.727  24.950  0.00  0.00    +0.178 HD
ATOM     17  C   UNL     1       8.781   1.845  23.922  0.00  0.00    +0.263 C 
ATOM     18  O   UNL     1       7.630   1.914  23.502  0.00  0.00    -0.268 OA
BRANCH  17  19
ATOM     19  C   UNL     1       9.649   3.052  23.841  0.00  0.00    +0.039 A 
ATOM     20  C   UNL     1       9.087   4.283  24.209  0.00  0.00    +0.028 A 
ATOM     21  C   UNL     1       9.850   5.445  24.138  0.00  0.00    +0.019 A 
ATOM     22 BR   UNL     1       9.089   7.100  24.647  0.00  0.00    -0.050 Br
ATOM     23  C   UNL     1      11.169   5.398  23.693  0.00  0.00    +0.015 A 
ATOM     24  C   UNL     1      11.728   4.178  23.309  0.00  0.00    +0.002 A 
ATOM     25  C   UNL     1      10.971   3.003  23.380  0.00  0.00    +0.013 A 
ENDBRANCH  17  19
ENDBRANCH   2  15
TORSDOF 5
ENDMDL
MODEL 3
REMARK VINA RESULT:      -6.2      2.264      8.738
REMARK  Name = 
REMARK  5 active torsions:
REMARK  status: ('A' for Active; 'I' for Inactive)
REMARK    1  A    between atoms: O_1  and  C_2
REMARK    2  A    between atoms: C_6  and  C_7
REMARK    3  A    between atoms: N_8  and  N_9
REMARK    4  A    between atoms: C_10  and  C_12
REMARK    5  A    between atoms: C_19  and  O_20
REMARK                            x       y       z     vdW  Elec       q    Type
REMARK                         _______ _______ _______ _____ _____    ______ ____
ROOT
ATOM      1  C   UNL     1       9.971   1.101  23.780  0.00  0.00    +0.142 C 
ATOM      2  N   UNL     1       9.595   0.409  24.805  0.00  0.00    -0.187 NA
ENDROOT
BRANCH   1   7
ATOM      3  C   UNL     1      10.258   5.368  24.015  0.00  0.00    +0.148 A 
ATOM      4  C   UNL     1       9.102   4.738  24.493  0.00  0.00    +0.102 A 
ATOM      5 BR   UNL     1       7.691   5.782  25.236  0.00  0.00    -0.043 Br
ATOM      6  C   UNL     1       8.989   3.342  24.423  0.00  0.00    +0.143 A 
ATOM      7  C   UNL     1      10.036   2.579  23.875  0.00  0.00    +0.038 A 
ATOM      8  C   UNL     1      11.187   3.211  23.395  0.00  0.00    +0.032 A 
ATOM      9  C   UNL     1      11.293   4.602  23.468  0.00  0.00    +0.061 A 
ATOM     10 BR   UNL     1      12.869   5.430  22.813  0.00  0.00    -0.046 Br
BRANCH   3  11
ATOM     11  O   UNL     1      10.365   6.733  24.089  0.00  0.00    -0.504 OA
ATOM     12  H   UNL     1       9.868   7.042  24.868  0.00  0.00    +0.292 HD
ENDBRANCH   3  11
BRANCH   6  13
ATOM     13  O   UNL     1       7.840   2.757  24.898  0.00  0.00    -0.505 OA
ATOM     14  H   UNL     1       7.952   1.779  24.940  0.00  0.00    +0.292 HD
ENDBRANCH   6  13
ENDBRANCH   1   7
BRANCH   2  15
ATOM     15  N   UNL     1       9.534  -0.944  24.671  0.00  0.00    -0.203 N 
ATOM     16  H   UNL     1      10.387  -1.489  24.653  0.00  0.00    +0.178 HD
ATOM     17  C   UNL     1       8.297  -1.507  24.378  0.00  0.00    +0.263 C 
ATOM     18  O   UNL     1       7.258  -0.863  24.256  0.00  0.00    -0.268 OA
BRANCH  17  19
ATOM     19  C   UNL     1       8.260  -2.979  24.162  0.00  0.00    +0.039 A 
ATOM     20  C   UNL     1       7.484  -3.460  23.098  0.00  0.00    +0.028 A 
ATOM     21  C   UNL     1       7.402  -4.829  22.859  0.00  0.00    +0.019 A 
ATOM     22 BR   UNL     1       6.364  -5.470  21.414  0.00  0.00    -0.050 Br
ATOM     23  C   UNL     1       8.079  -5.730  23.678  0.00  0.00    +0.015 A 
ATOM     24  C   UNL     1       8.838  -5.258  24.749  0.00  0.00    +0.002 A 
ATOM     25  C   UNL     1       8.931  -3.883  24.996  0.00  0.00    +0.013 A 
ENDBRANCH  17  19
ENDBRANCH   2  15
TORSDOF 5
ENDMDL
MODEL 4
REMARK VINA RESULT:      -6.1      1.297      1.642
REMARK  Name = 
REMARK  5 active torsions:
REMARK  status: ('A' for Active; 'I' for Inactive)
REMARK    1  A    between atoms: O_1  and  C_2
REMARK    2  A    between atoms: C_6  and  C_7
REMARK    3  A    between atoms: N_8  and  N_9
REMARK    4  A    between atoms: C_10  and  C_12
REMARK    5  A    between atoms: C_19  and  O_20
REMARK                            x       y       z     vdW  Elec       q    Type
REMARK                         _______ _______ _______ _____ _____    ______ ____
ROOT
ATOM      1  C   UNL     1       8.890  -1.214  24.808  0.00  0.00    +0.142 C 
ATOM      2  N   UNL     1       8.540  -0.189  24.102  0.00  0.00    -0.187 NA
ENDROOT
BRANCH   1   7
ATOM      3  C   UNL     1       6.638  -4.852  24.642  0.00  0.00    +0.148 A 
ATOM      4  C   UNL     1       7.126  -4.302  23.450  0.00  0.00    +0.102 A 
ATOM      5 BR   UNL     1       6.787  -5.176  21.791  0.00  0.00    -0.043 Br
ATOM      6  C   UNL     1       7.865  -3.110  23.484  0.00  0.00    +0.143 A 
ATOM      7  C   UNL     1       8.113  -2.472  24.714  0.00  0.00    +0.038 A 
ATOM      8  C   UNL     1       7.619  -3.023  25.901  0.00  0.00    +0.032 A 
ATOM      9  C   UNL     1       6.885  -4.210  25.859  0.00  0.00    +0.061 A 
ATOM     10 BR   UNL     1       6.234  -4.934  27.486  0.00  0.00    -0.046 Br
BRANCH   3  11
ATOM     11  O   UNL     1       5.920  -6.021  24.603  0.00  0.00    -0.504 OA
ATOM     12  H   UNL     1       6.425  -6.679  24.094  0.00  0.00    +0.292 HD
ENDBRANCH   3  11
BRANCH   6  13
ATOM     13  O   UNL     1       8.327  -2.596  22.297  0.00  0.00    -0.505 OA
ATOM     14  H   UNL     1       9.306  -2.694  22.246  0.00  0.00    +0.292 HD
ENDBRANCH   6  13
ENDBRANCH   1   7
BRANCH   2  15
ATOM     15  N   UNL     1       9.271   0.951  24.230  0.00  0.00    -0.203 N 
ATOM     16  H   UNL     1       9.742   1.154  25.103  0.00  0.00    +0.178 HD
ATOM     17  C   UNL     1       9.190   1.886  23.204  0.00  0.00    +0.263 C 
ATOM     18  O   UNL     1       8.520   1.736  22.187  0.00  0.00    -0.268 OA
BRANCH  17  19
ATOM     19  C   UNL     1       9.936   3.160  23.393  0.00  0.00    +0.039 A 
ATOM     20  C   UNL     1       9.199   4.298  23.754  0.00  0.00    +0.028 A 
ATOM     21  C   UNL     1       9.845   5.519  23.929  0.00  0.00    +0.019 A 
ATOM     22 BR   UNL     1       8.848   7.045  24.428  0.00  0.00    -0.050 Br
ATOM     23  C   UNL     1      11.221   5.624  23.737  0.00  0.00    +0.015 A 
ATOM     24  C   UNL     1      11.956   4.498  23.360  0.00  0.00    +0.002 A 
ATOM     25  C   UNL     1      11.318   3.265  23.186  0.00  0.00    +0.013 A 
ENDBRANCH  17  19
ENDBRANCH   2  15
TORSDOF 5
ENDMDL
MODEL 5
REMARK VINA RESULT:      -6.0      2.680      8.556
REMARK  Name = 
REMARK  5 active torsions:
REMARK  status: ('A' for Active; 'I' for Inactive)
REMARK    1  A    between atoms: O_1  and  C_2
REMARK    2  A    between atoms: C_6  and  C_7
REMARK    3  A    between atoms: N_8  and  N_9
REMARK    4  A    between atoms: C_10  and  C_12
REMARK    5  A    between atoms: C_19  and  O_20
REMARK                            x       y       z     vdW  Elec       q    Type
REMARK                         _______ _______ _______ _____ _____    ______ ____
ROOT
ATOM      1  C   UNL     1       8.148   1.597  24.176  0.00  0.00    +0.142 C 
ATOM      2  N   UNL     1       8.359   0.860  23.135  0.00  0.00    -0.187 NA
ENDROOT
BRANCH   1   7
ATOM      3  C   UNL     1       9.116   5.768  24.115  0.00  0.00    +0.148 A 
ATOM      4  C   UNL     1      10.126   4.834  23.853  0.00  0.00    +0.102 A 
ATOM      5 BR   UNL     1      11.895   5.430  23.472  0.00  0.00    -0.043 Br
ATOM      6  C   UNL     1       9.828   3.463  23.869  0.00  0.00    +0.143 A 
ATOM      7  C   UNL     1       8.518   3.032  24.149  0.00  0.00    +0.038 A 
ATOM      8  C   UNL     1       7.514   3.968  24.415  0.00  0.00    +0.032 A 
ATOM      9  C   UNL     1       7.817   5.330  24.396  0.00  0.00    +0.061 A 
ATOM     10 BR   UNL     1       6.433   6.576  24.756  0.00  0.00    -0.046 Br
BRANCH   3  11
ATOM     11  O   UNL     1       9.411   7.108  24.093  0.00  0.00    -0.504 OA
ATOM     12  H   UNL     1       9.659   7.357  23.185  0.00  0.00    +0.292 HD
ENDBRANCH   3  11
BRANCH   6  13
ATOM     13  O   UNL     1      10.842   2.574  23.610  0.00  0.00    -0.505 OA
ATOM     14  H   UNL     1      10.470   1.726  23.275  0.00  0.00    +0.292 HD
ENDBRANCH   6  13
ENDBRANCH   1   7
BRANCH   2  15
ATOM     15  N   UNL     1       8.020  -0.455  23.207  0.00  0.00    -0.203 N 
ATOM     16  H   UNL     1       7.057  -0.720  23.376  0.00  0.00    +0.178 HD
ATOM     17  C   UNL     1       9.051  -1.387  23.228  0.00  0.00    +0.263 C 
ATOM     18  O   UNL     1      10.242  -1.097  23.163  0.00  0.00    -0.268 OA
BRANCH  17  19
ATOM     19  C   UNL     1       8.666  -2.816  23.381  0.00  0.00    +0.039 A 
ATOM     20  C   UNL     1       7.777  -3.354  22.440  0.00  0.00    +0.028 A 
ATOM     21  C   UNL     1       7.373  -4.683  22.544  0.00  0.00    +0.019 A 
ATOM     22 BR   UNL     1       6.184  -5.405  21.264  0.00  0.00    -0.050 Br
ATOM     23  C   UNL     1       7.836  -5.482  23.587  0.00  0.00    +0.015 A 
ATOM     24  C   UNL     1       8.707  -4.946  24.537  0.00  0.00    +0.002 A 
ATOM     25  C   UNL     1       9.124  -3.614  24.439  0.00  0.00    +0.013 A 
ENDBRANCH  17  19
ENDBRANCH   2  15
TORSDOF 5
ENDMDL
MODEL 6
REMARK VINA RESULT:      -5.8      1.403      2.464
REMARK  Name = 
REMARK  5 active torsions:
REMARK  status: ('A' for Active; 'I' for Inactive)
REMARK    1  A    between atoms: O_1  and  C_2
REMARK    2  A    between atoms: C_6  and  C_7
REMARK    3  A    between atoms: N_8  and  N_9
REMARK    4  A    between atoms: C_10  and  C_12
REMARK    5  A    between atoms: C_19  and  O_20
REMARK                            x       y       z     vdW  Elec       q    Type
REMARK                         _______ _______ _______ _____ _____    ______ ____
ROOT
ATOM      1  C   UNL     1       7.843  -0.588  23.370  0.00  0.00    +0.142 C 
ATOM      2  N   UNL     1       8.710   0.001  24.126  0.00  0.00    -0.187 NA
ENDROOT
BRANCH   1   7
ATOM      3  C   UNL     1       6.524  -4.572  24.226  0.00  0.00    +0.148 A 
ATOM      4  C   UNL     1       6.751  -3.689  25.289  0.00  0.00    +0.102 A 
ATOM      5 BR   UNL     1       6.466  -4.269  27.082  0.00  0.00    -0.043 Br
ATOM      6  C   UNL     1       7.184  -2.380  25.029  0.00  0.00    +0.143 A 
ATOM      7  C   UNL     1       7.389  -1.960  23.702  0.00  0.00    +0.038 A 
ATOM      8  C   UNL     1       7.166  -2.846  22.643  0.00  0.00    +0.032 A 
ATOM      9  C   UNL     1       6.734  -4.146  22.910  0.00  0.00    +0.061 A 
ATOM     10 BR   UNL     1       6.435  -5.323  21.453  0.00  0.00    -0.046 Br
BRANCH   3  11
ATOM     11  O   UNL     1       6.095  -5.849  24.487  0.00  0.00    -0.504 OA
ATOM     12  H   UNL     1       5.432  -5.815  25.198  0.00  0.00    +0.292 HD
ENDBRANCH   3  11
BRANCH   6  13
ATOM     13  O   UNL     1       7.399  -1.542  26.095  0.00  0.00    -0.505 OA
ATOM     14  H   UNL     1       6.727  -0.822  26.099  0.00  0.00    +0.292 HD
ENDBRANCH   6  13
ENDBRANCH   1   7
BRANCH   2  15
ATOM     15  N   UNL     1       9.111   1.253  23.777  0.00  0.00    -0.203 N 
ATOM     16  H   UNL     1       9.792   1.378  23.037  0.00  0.00    +0.178 HD
ATOM     17  C   UNL     1       8.700   2.310  24.582  0.00  0.00    +0.263 C 
ATOM     18  O   UNL     1       7.983   2.184  25.570  0.00  0.00    -0.268 OA
BRANCH  17  19
ATOM     19  C   UNL     1       9.208   3.664  24.229  0.00  0.00    +0.039 A 
ATOM     20  C   UNL     1      10.552   3.774  23.845  0.00  0.00    +0.028 A 
ATOM     21  C   UNL     1      11.084   5.019  23.519  0.00  0.00    +0.019 A 
ATOM     22 BR   UNL     1      12.893   5.158  22.990  0.00  0.00    -0.050 Br
ATOM     23  C   UNL     1      10.291   6.163  23.582  0.00  0.00    +0.015 A 
ATOM     24  C   UNL     1       8.957   6.061  23.981  0.00  0.00    +0.002 A 
ATOM     25  C   UNL     1       8.412   4.814  24.306  0.00  0.00    +0.013 A 
ENDBRANCH  17  19
ENDBRANCH   2  15
TORSDOF 5
ENDMDL
MODEL 7
REMARK VINA RESULT:      -5.8      2.586      2.841
REMARK  Name = 
REMARK  5 active torsions:
REMARK  status: ('A' for Active; 'I' for Inactive)
REMARK    1  A    between atoms: O_1  and  C_2
REMARK    2  A    between atoms: C_6  and  C_7
REMARK    3  A    between atoms: N_8  and  N_9
REMARK    4  A    between atoms: C_10  and  C_12
REMARK    5  A    between atoms: C_19  and  O_20
REMARK                            x       y       z     vdW  Elec       q    Type
REMARK                         _______ _______ _______ _____ _____    ______ ____
ROOT
ATOM      1  C   UNL     1       6.468  -1.062  24.168  0.00  0.00    +0.142 C 
ATOM      2  N   UNL     1       6.847  -0.274  23.216  0.00  0.00    -0.187 NA
ENDROOT
BRANCH   1   7
ATOM      3  C   UNL     1       4.906  -4.954  23.298  0.00  0.00    +0.148 A 
ATOM      4  C   UNL     1       6.105  -4.554  22.695  0.00  0.00    +0.102 A 
ATOM      5 BR   UNL     1       7.015  -5.739  21.512  0.00  0.00    -0.043 Br
ATOM      6  C   UNL     1       6.632  -3.282  22.966  0.00  0.00    +0.143 A 
ATOM      7  C   UNL     1       5.955  -2.414  23.843  0.00  0.00    +0.038 A 
ATOM      8  C   UNL     1       4.755  -2.816  24.439  0.00  0.00    +0.032 A 
ATOM      9  C   UNL     1       4.238  -4.083  24.165  0.00  0.00    +0.061 A 
ATOM     10 BR   UNL     1       2.612  -4.601  24.993  0.00  0.00    -0.046 Br
BRANCH   3  11
ATOM     11  O   UNL     1       4.398  -6.200  23.032  0.00  0.00    -0.504 OA
ATOM     12  H   UNL     1       5.115  -6.853  23.121  0.00  0.00    +0.292 HD
ENDBRANCH   3  11
BRANCH   6  13
ATOM     13  O   UNL     1       7.808  -2.920  22.356  0.00  0.00    -0.505 OA
ATOM     14  H   UNL     1       8.283  -2.255  22.906  0.00  0.00    +0.292 HD
ENDBRANCH   6  13
ENDBRANCH   1   7
BRANCH   2  15
ATOM     15  N   UNL     1       7.296   0.964  23.556  0.00  0.00    -0.203 N 
ATOM     16  H   UNL     1       7.170   1.306  24.501  0.00  0.00    +0.178 HD
ATOM     17  C   UNL     1       7.752   1.788  22.533  0.00  0.00    +0.263 C 
ATOM     18  O   UNL     1       7.794   1.458  21.351  0.00  0.00    -0.268 OA
BRANCH  17  19
ATOM     19  C   UNL     1       8.171   3.165  22.911  0.00  0.00    +0.039 A 
ATOM     20  C   UNL     1       7.415   4.234  22.411  0.00  0.00    +0.028 A 
ATOM     21  C   UNL     1       7.771   5.544  22.721  0.00  0.00    +0.019 A 
ATOM     22 BR   UNL     1       6.739   6.981  22.054  0.00  0.00    -0.050 Br
ATOM     23  C   UNL     1       8.883   5.803  23.519  0.00  0.00    +0.015 A 
ATOM     24  C   UNL     1       9.650   4.743  24.005  0.00  0.00    +0.002 A 
ATOM     25  C   UNL     1       9.298   3.422  23.702  0.00  0.00    +0.013 A 
ENDBRANCH  17  19
ENDBRANCH   2  15
TORSDOF 5
ENDMDL
MODEL 8
REMARK VINA RESULT:      -5.7      2.463      2.805
REMARK  Name = 
REMARK  5 active torsions:
REMARK  status: ('A' for Active; 'I' for Inactive)
REMARK    1  A    between atoms: O_1  and  C_2
REMARK    2  A    between atoms: C_6  and  C_7
REMARK    3  A    between atoms: N_8  and  N_9
REMARK    4  A    between atoms: C_10  and  C_12
REMARK    5  A    between atoms: C_19  and  O_20
REMARK                            x       y       z     vdW  Elec       q    Type
REMARK                         _______ _______ _______ _____ _____    ______ ____
ROOT
ATOM      1  C   UNL     1       8.204  -0.077  25.128  0.00  0.00    +0.142 C 
ATOM      2  N   UNL     1       8.887   0.779  24.441  0.00  0.00    -0.187 NA
ENDROOT
BRANCH   1   7
ATOM      3  C   UNL     1       7.802  -4.106  23.734  0.00  0.00    +0.148 A 
ATOM      4  C   UNL     1       7.018  -3.105  23.148  0.00  0.00    +0.102 A 
ATOM      5 BR   UNL     1       5.801  -3.547  21.750  0.00  0.00    -0.043 Br
ATOM      6  C   UNL     1       7.135  -1.779  23.592  0.00  0.00    +0.143 A 
ATOM      7  C   UNL     1       8.038  -1.460  24.623  0.00  0.00    +0.038 A 
ATOM      8  C   UNL     1       8.815  -2.465  25.209  0.00  0.00    +0.032 A 
ATOM      9  C   UNL     1       8.694  -3.781  24.761  0.00  0.00    +0.061 A 
ATOM     10 BR   UNL     1       9.765  -5.120  25.572  0.00  0.00    -0.046 Br
BRANCH   3  11
ATOM     11  O   UNL     1       7.687  -5.400  23.293  0.00  0.00    -0.504 OA
ATOM     12  H   UNL     1       8.553  -5.836  23.377  0.00  0.00    +0.292 HD
ENDBRANCH   3  11
BRANCH   6  13
ATOM     13  O   UNL     1       6.350  -0.822  22.997  0.00  0.00    -0.505 OA
ATOM     14  H   UNL     1       5.400  -0.994  23.194  0.00  0.00    +0.292 HD
ENDBRANCH   6  13
ENDBRANCH   1   7
BRANCH   2  15
ATOM     15  N   UNL     1       9.002   2.042  24.932  0.00  0.00    -0.203 N 
ATOM     16  H   UNL     1       8.897   2.210  25.925  0.00  0.00    +0.178 HD
ATOM     17  C   UNL     1       9.079   3.085  24.016  0.00  0.00    +0.263 C 
ATOM     18  O   UNL     1       9.072   2.934  22.798  0.00  0.00    -0.268 OA
BRANCH  17  19
ATOM     19  C   UNL     1       9.129   4.467  24.569  0.00  0.00    +0.039 A 
ATOM     20  C   UNL     1       8.314   4.754  25.673  0.00  0.00    +0.028 A 
ATOM     21  C   UNL     1       8.312   6.035  26.221  0.00  0.00    +0.019 A 
ATOM     22 BR   UNL     1       7.220   6.412  27.718  0.00  0.00    -0.050 Br
ATOM     23  C   UNL     1       9.107   7.039  25.673  0.00  0.00    +0.015 A 
ATOM     24  C   UNL     1       9.906   6.762  24.562  0.00  0.00    +0.002 A 
ATOM     25  C   UNL     1       9.919   5.478  24.006  0.00  0.00    +0.013 A 
ENDBRANCH  17  19
ENDBRANCH   2  15
TORSDOF 5
ENDMDL
MODEL 9
REMARK VINA RESULT:      -5.6      1.700      2.055
REMARK  Name = 
REMARK  5 active torsions:
REMARK  status: ('A' for Active; 'I' for Inactive)
REMARK    1  A    between atoms: O_1  and  C_2
REMARK    2  A    between atoms: C_6  and  C_7
REMARK    3  A    between atoms: N_8  and  N_9
REMARK    4  A    between atoms: C_10  and  C_12
REMARK    5  A    between atoms: C_19  and  O_20
REMARK                            x       y       z     vdW  Elec       q    Type
REMARK                         _______ _______ _______ _____ _____    ______ ____
ROOT
ATOM      1  C   UNL     1       6.674  -1.838  24.664  0.00  0.00    +0.142 C 
ATOM      2  N   UNL     1       6.555  -0.902  23.781  0.00  0.00    -0.187 NA
ENDROOT
BRANCH   1   7
ATOM      3  C   UNL     1       5.419  -5.842  23.812  0.00  0.00    +0.148 A 
ATOM      4  C   UNL     1       6.007  -5.085  22.792  0.00  0.00    +0.102 A 
ATOM      5 BR   UNL     1       6.241  -5.843  21.059  0.00  0.00    -0.043 Br
ATOM      6  C   UNL     1       6.424  -3.770  23.051  0.00  0.00    +0.143 A 
ATOM      7  C   UNL     1       6.249  -3.219  24.334  0.00  0.00    +0.038 A 
ATOM      8  C   UNL     1       5.657  -3.978  25.349  0.00  0.00    +0.032 A 
ATOM      9  C   UNL     1       5.245  -5.285  25.083  0.00  0.00    +0.061 A 
ATOM     10 BR   UNL     1       4.450  -6.290  26.480  0.00  0.00    -0.046 Br
BRANCH   3  11
ATOM     11  O   UNL     1       5.017  -7.129  23.553  0.00  0.00    -0.504 OA
ATOM     12  H   UNL     1       5.738  -7.592  23.091  0.00  0.00    +0.292 HD
ENDBRANCH   3  11
BRANCH   6  13
ATOM     13  O   UNL     1       6.995  -3.054  22.028  0.00  0.00    -0.505 OA
ATOM     14  H   UNL     1       7.605  -2.372  22.393  0.00  0.00    +0.292 HD
ENDBRANCH   6  13
ENDBRANCH   1   7
BRANCH   2  15
ATOM     15  N   UNL     1       6.942   0.355  24.130  0.00  0.00    -0.203 N 
ATOM     16  H   UNL     1       6.275   0.990  24.551  0.00  0.00    +0.178 HD
ATOM     17  C   UNL     1       8.202   0.777  23.723  0.00  0.00    +0.263 C 
ATOM     18  O   UNL     1       8.990   0.081  23.090  0.00  0.00    -0.268 OA
BRANCH  17  19
ATOM     19  C   UNL     1       8.581   2.179  24.048  0.00  0.00    +0.039 A 
ATOM     20  C   UNL     1       9.810   2.649  23.562  0.00  0.00    +0.028 A 
ATOM     21  C   UNL     1      10.221   3.948  23.848  0.00  0.00    +0.019 A 
ATOM     22 BR   UNL     1      11.873   4.580  23.179  0.00  0.00    -0.050 Br
ATOM     23  C   UNL     1       9.425   4.785  24.627  0.00  0.00    +0.015 A 
ATOM     24  C   UNL     1       8.210   4.316  25.129  0.00  0.00    +0.002 A 
ATOM     25  C   UNL     1       7.785   3.014  24.843  0.00  0.00    +0.013 A 
ENDBRANCH  17  19
ENDBRANCH   2  15
TORSDOF 5
ENDMDL
