MODEL 1
REMARK VINA RESULT:      -8.2      0.000      0.000
REMARK  Name = 
REMARK  8 active torsions:
REMARK  status: ('A' for Active; 'I' for Inactive)
REMARK    1  A    between atoms: C_1  and  C_2
REMARK    2  A    between atoms: C_2  and  O_4
REMARK    3  A    between atoms: C_2  and  C_23
REMARK    4  A    between atoms: O_4  and  C_5
REMARK    5  A    between atoms: C_5  and  C_6
REMARK    6  A    between atoms: C_6  and  C_17
REMARK    7  A    between atoms: C_25  and  C_33
REMARK    8  A    between atoms: C_27  and  C_29
REMARK                            x       y       z     vdW  Elec       q    Type
REMARK                         _______ _______ _______ _____ _____    ______ ____
ROOT
ATOM      1  C   UNL     1       8.132   1.496  23.989  0.00  0.00    +0.068 C 
ATOM      2  N   UNL     1       6.989   1.829  23.092  0.00  0.00    -0.303 NA
ATOM      3  H   UNL     1       6.863   1.022  22.475  0.00  0.00    +0.123 HD
ATOM      4  C   UNL     1       7.183   3.030  22.281  0.00  0.00    +0.107 C 
ATOM      5  C   UNL     1       7.521   4.300  23.108  0.00  0.00    +0.048 C 
ATOM      6  N   UNL     1       7.887   5.389  22.230  0.00  0.00    -0.309 N 
ATOM      7  H   UNL     1       8.666   5.372  21.581  0.00  0.00    +0.149 HD
ATOM      8  C   UNL     1       6.850   6.256  21.982  0.00  0.00    +0.214 C 
ATOM      9  O   UNL     1       6.853   7.108  21.111  0.00  0.00    -0.276 OA
ATOM     10  C   UNL     1       5.727   5.953  22.932  0.00  0.00    +0.098 C 
ATOM     11  C   UNL     1       6.279   4.848  23.835  0.00  0.00    +0.036 C 
ATOM     12  C   UNL     1       8.665   4.009  24.095  0.00  0.00    +0.029 C 
ATOM     13  C   UNL     1       8.431   2.721  24.892  0.00  0.00    +0.031 C 
ENDROOT
BRANCH   1  14
ATOM     14  C   UNL     1       7.721   0.300  24.888  0.00  0.00    -0.025 A 
ATOM     15  C   UNL     1       8.480  -0.028  26.031  0.00  0.00    +0.005 A 
ATOM     16  C   UNL     1       8.076  -1.034  26.914  0.00  0.00    +0.000 A 
ATOM     17  C   UNL     1       6.916  -1.757  26.663  0.00  0.00    +0.000 A 
ATOM     18  C   UNL     1       6.179  -1.495  25.514  0.00  0.00    +0.000 A 
ATOM     19  C   UNL     1       6.583  -0.487  24.632  0.00  0.00    +0.005 A 
ENDBRANCH   1  14
BRANCH   1  20
ATOM     20  C   UNL     1       9.403   1.164  23.125  0.00  0.00    +0.187 C 
BRANCH  20  21
ATOM     21  O   UNL     1       9.995  -0.074  23.540  0.00  0.00    -0.370 OA
BRANCH  21  23
ATOM     22  C   UNL     1       9.438  -0.527  21.205  0.00  0.00    +0.043 C 
ATOM     23  C   UNL     1      10.021  -1.069  22.510  0.00  0.00    +0.145 C 
BRANCH  23  24
ATOM     24  C   UNL     1       9.224  -2.274  22.975  0.00  0.00    -0.018 A 
ATOM     25  C   UNL     1       9.601  -3.011  24.109  0.00  0.00    +0.018 A 
ATOM     26  C   UNL     1       8.840  -4.101  24.563  0.00  0.00    +0.056 A 
ATOM     27  C   UNL     1       7.672  -4.448  23.866  0.00  0.00    +0.024 A 
ATOM     28  C   UNL     1       7.264  -3.725  22.735  0.00  0.00    +0.056 A 
ATOM     29  C   UNL     1       8.048  -2.641  22.302  0.00  0.00    +0.018 A 
BRANCH  26  30
ATOM     30  C   UNL     1       9.280  -4.869  25.785  0.00  0.00    +0.417 C 
ATOM     31  F   UNL     1       9.330  -4.090  26.903  0.00  0.00    -0.166 F 
ATOM     32  F   UNL     1      10.523  -5.406  25.646  0.00  0.00    -0.166 F 
ATOM     33  F   UNL     1       8.458  -5.911  26.098  0.00  0.00    -0.166 F 
ENDBRANCH  26  30
BRANCH  28  34
ATOM     34  C   UNL     1       5.998  -4.112  22.008  0.00  0.00    +0.417 C 
ATOM     35  F   UNL     1       4.890  -3.542  22.558  0.00  0.00    -0.166 F 
ATOM     36  F   UNL     1       5.778  -5.455  22.028  0.00  0.00    -0.166 F 
ATOM     37  F   UNL     1       5.990  -3.752  20.695  0.00  0.00    -0.166 F 
ENDBRANCH  28  34
ENDBRANCH  23  24
ENDBRANCH  21  23
ENDBRANCH  20  21
ENDBRANCH   1  20
TORSDOF 7
ENDMDL
MODEL 2
REMARK VINA RESULT:      -8.2      0.356      2.968
REMARK  Name = 
REMARK  8 active torsions:
REMARK  status: ('A' for Active; 'I' for Inactive)
REMARK    1  A    between atoms: C_1  and  C_2
REMARK    2  A    between atoms: C_2  and  O_4
REMARK    3  A    between atoms: C_2  and  C_23
REMARK    4  A    between atoms: O_4  and  C_5
REMARK    5  A    between atoms: C_5  and  C_6
REMARK    6  A    between atoms: C_6  and  C_17
REMARK    7  A    between atoms: C_25  and  C_33
REMARK    8  A    between atoms: C_27  and  C_29
REMARK                            x       y       z     vdW  Elec       q    Type
REMARK                         _______ _______ _______ _____ _____    ______ ____
ROOT
ATOM      1  C   UNL     1       8.131   1.479  23.942  0.00  0.00    +0.068 C 
ATOM      2  N   UNL     1       6.957   1.831  23.093  0.00  0.00    -0.303 NA
ATOM      3  H   UNL     1       6.790   1.025  22.484  0.00  0.00    +0.123 HD
ATOM      4  C   UNL     1       7.138   3.027  22.271  0.00  0.00    +0.107 C 
ATOM      5  C   UNL     1       7.535   4.292  23.079  0.00  0.00    +0.048 C 
ATOM      6  N   UNL     1       7.883   5.373  22.183  0.00  0.00    -0.309 N 
ATOM      7  H   UNL     1       8.633   5.340  21.502  0.00  0.00    +0.149 HD
ATOM      8  C   UNL     1       6.852   6.258  21.978  0.00  0.00    +0.214 C 
ATOM      9  O   UNL     1       6.834   7.108  21.105  0.00  0.00    -0.276 OA
ATOM     10  C   UNL     1       5.765   5.977  22.976  0.00  0.00    +0.098 C 
ATOM     11  C   UNL     1       6.336   4.864  23.858  0.00  0.00    +0.036 C 
ATOM     12  C   UNL     1       8.715   3.981  24.018  0.00  0.00    +0.029 C 
ATOM     13  C   UNL     1       8.491   2.700  24.827  0.00  0.00    +0.031 C 
ENDROOT
BRANCH   1  14
ATOM     14  C   UNL     1       7.737   0.293  24.861  0.00  0.00    -0.025 A 
ATOM     15  C   UNL     1       8.524  -0.031  25.986  0.00  0.00    +0.005 A 
ATOM     16  C   UNL     1       8.137  -1.028  26.887  0.00  0.00    +0.000 A 
ATOM     17  C   UNL     1       6.967  -1.746  26.672  0.00  0.00    +0.000 A 
ATOM     18  C   UNL     1       6.202  -1.488  25.542  0.00  0.00    +0.000 A 
ATOM     19  C   UNL     1       6.588  -0.489  24.641  0.00  0.00    +0.005 A 
ENDBRANCH   1  14
BRANCH   1  20
ATOM     20  C   UNL     1       9.358   1.121  23.025  0.00  0.00    +0.187 C 
BRANCH  20  21
ATOM     21  O   UNL     1      10.002  -0.077  23.476  0.00  0.00    -0.370 OA
BRANCH  21  23
ATOM     22  C   UNL     1       9.474  -0.627  21.155  0.00  0.00    +0.043 C 
ATOM     23  C   UNL     1      10.022  -1.119  22.494  0.00  0.00    +0.145 C 
BRANCH  23  24
ATOM     24  C   UNL     1       9.190  -2.284  23.001  0.00  0.00    -0.018 A 
ATOM     25  C   UNL     1       8.031  -2.704  22.330  0.00  0.00    +0.018 A 
ATOM     26  C   UNL     1       7.284  -3.808  22.776  0.00  0.00    +0.056 A 
ATOM     27  C   UNL     1       7.722  -4.506  23.912  0.00  0.00    +0.024 A 
ATOM     28  C   UNL     1       8.882  -4.116  24.598  0.00  0.00    +0.056 A 
ATOM     29  C   UNL     1       9.606  -3.004  24.131  0.00  0.00    +0.018 A 
BRANCH  26  30
ATOM     30  C   UNL     1       6.042  -4.227  22.029  0.00  0.00    +0.417 C 
ATOM     31  F   UNL     1       6.320  -5.033  20.964  0.00  0.00    -0.166 F 
ATOM     32  F   UNL     1       5.351  -3.168  21.527  0.00  0.00    -0.166 F 
ATOM     33  F   UNL     1       5.154  -4.921  22.795  0.00  0.00    -0.166 F 
ENDBRANCH  26  30
BRANCH  28  34
ATOM     34  C   UNL     1       9.336  -4.889  25.813  0.00  0.00    +0.417 C 
ATOM     35  F   UNL     1       9.322  -4.131  26.944  0.00  0.00    -0.166 F 
ATOM     36  F   UNL     1      10.611  -5.351  25.688  0.00  0.00    -0.166 F 
ATOM     37  F   UNL     1       8.569  -5.980  26.085  0.00  0.00    -0.166 F 
ENDBRANCH  28  34
ENDBRANCH  23  24
ENDBRANCH  21  23
ENDBRANCH  20  21
ENDBRANCH   1  20
TORSDOF 7
ENDMDL
MODEL 3
REMARK VINA RESULT:      -7.7      2.602      4.632
REMARK  Name = 
REMARK  8 active torsions:
REMARK  status: ('A' for Active; 'I' for Inactive)
REMARK    1  A    between atoms: C_1  and  C_2
REMARK    2  A    between atoms: C_2  and  O_4
REMARK    3  A    between atoms: C_2  and  C_23
REMARK    4  A    between atoms: O_4  and  C_5
REMARK    5  A    between atoms: C_5  and  C_6
REMARK    6  A    between atoms: C_6  and  C_17
REMARK    7  A    between atoms: C_25  and  C_33
REMARK    8  A    between atoms: C_27  and  C_29
REMARK                            x       y       z     vdW  Elec       q    Type
REMARK                         _______ _______ _______ _____ _____    ______ ____
ROOT
ATOM      1  C   UNL     1       7.947  -1.017  25.113  0.00  0.00    +0.068 C 
ATOM      2  N   UNL     1       8.960  -0.144  25.771  0.00  0.00    -0.303 NA
ATOM      3  H   UNL     1       8.872  -0.307  26.778  0.00  0.00    +0.123 HD
ATOM      4  C   UNL     1       8.801   1.285  25.498  0.00  0.00    +0.107 C 
ATOM      5  C   UNL     1       8.781   1.638  23.987  0.00  0.00    +0.048 C 
ATOM      6  N   UNL     1       8.427   3.028  23.800  0.00  0.00    -0.309 N 
ATOM      7  H   UNL     1       7.557   3.449  24.105  0.00  0.00    +0.149 HD
ATOM      8  C   UNL     1       9.518   3.843  23.615  0.00  0.00    +0.214 C 
ATOM      9  O   UNL     1       9.487   5.060  23.661  0.00  0.00    -0.276 OA
ATOM     10  C   UNL     1      10.730   2.987  23.385  0.00  0.00    +0.098 C 
ATOM     11  C   UNL     1      10.189   1.556  23.368  0.00  0.00    +0.036 C 
ATOM     12  C   UNL     1       7.787   0.733  23.237  0.00  0.00    +0.029 C 
ATOM     13  C   UNL     1       7.971  -0.747  23.586  0.00  0.00    +0.031 C 
ENDROOT
BRANCH   1  14
ATOM     14  C   UNL     1       8.333  -2.498  25.366  0.00  0.00    -0.025 A 
ATOM     15  C   UNL     1       7.855  -3.175  26.507  0.00  0.00    +0.005 A 
ATOM     16  C   UNL     1       8.103  -4.537  26.707  0.00  0.00    +0.000 A 
ATOM     17  C   UNL     1       8.858  -5.251  25.784  0.00  0.00    +0.000 A 
ATOM     18  C   UNL     1       9.389  -4.597  24.680  0.00  0.00    +0.000 A 
ATOM     19  C   UNL     1       9.140  -3.234  24.478  0.00  0.00    +0.005 A 
ENDBRANCH   1  14
BRANCH   1  20
ATOM     20  C   UNL     1       6.517  -0.684  25.678  0.00  0.00    +0.187 C 
BRANCH  20  21
ATOM     21  O   UNL     1       5.499  -1.029  24.729  0.00  0.00    -0.370 OA
BRANCH  21  23
ATOM     22  C   UNL     1       4.432  -1.790  26.791  0.00  0.00    +0.043 C 
ATOM     23  C   UNL     1       4.483  -1.884  25.266  0.00  0.00    +0.145 C 
BRANCH  23  24
ATOM     24  C   UNL     1       4.772  -3.313  24.842  0.00  0.00    -0.018 A 
ATOM     25  C   UNL     1       5.535  -3.599  23.699  0.00  0.00    +0.018 A 
ATOM     26  C   UNL     1       5.836  -4.921  23.330  0.00  0.00    +0.056 A 
ATOM     27  C   UNL     1       5.369  -5.971  24.135  0.00  0.00    +0.024 A 
ATOM     28  C   UNL     1       4.613  -5.716  25.289  0.00  0.00    +0.056 A 
ATOM     29  C   UNL     1       4.323  -4.383  25.631  0.00  0.00    +0.018 A 
BRANCH  26  30
ATOM     30  C   UNL     1       6.657  -5.188  22.092  0.00  0.00    +0.417 C 
ATOM     31  F   UNL     1       7.454  -6.287  22.220  0.00  0.00    -0.166 F 
ATOM     32  F   UNL     1       7.488  -4.155  21.783  0.00  0.00    -0.166 F 
ATOM     33  F   UNL     1       5.904  -5.406  20.976  0.00  0.00    -0.166 F 
ENDBRANCH  26  30
BRANCH  28  34
ATOM     34  C   UNL     1       4.130  -6.864  26.144  0.00  0.00    +0.417 C 
ATOM     35  F   UNL     1       5.080  -7.293  27.020  0.00  0.00    -0.166 F 
ATOM     36  F   UNL     1       3.783  -7.952  25.404  0.00  0.00    -0.166 F 
ATOM     37  F   UNL     1       3.037  -6.561  26.897  0.00  0.00    -0.166 F 
ENDBRANCH  28  34
ENDBRANCH  23  24
ENDBRANCH  21  23
ENDBRANCH  20  21
ENDBRANCH   1  20
TORSDOF 7
ENDMDL
MODEL 4
REMARK VINA RESULT:      -7.7      2.255      4.139
REMARK  Name = 
REMARK  8 active torsions:
REMARK  status: ('A' for Active; 'I' for Inactive)
REMARK    1  A    between atoms: C_1  and  C_2
REMARK    2  A    between atoms: C_2  and  O_4
REMARK    3  A    between atoms: C_2  and  C_23
REMARK    4  A    between atoms: O_4  and  C_5
REMARK    5  A    between atoms: C_5  and  C_6
REMARK    6  A    between atoms: C_6  and  C_17
REMARK    7  A    between atoms: C_25  and  C_33
REMARK    8  A    between atoms: C_27  and  C_29
REMARK                            x       y       z     vdW  Elec       q    Type
REMARK                         _______ _______ _______ _____ _____    ______ ____
ROOT
ATOM      1  C   UNL     1       8.420   0.167  24.346  0.00  0.00    +0.068 C 
ATOM      2  N   UNL     1       9.032   1.143  25.293  0.00  0.00    -0.303 NA
ATOM      3  H   UNL     1       8.611   0.960  26.208  0.00  0.00    +0.123 HD
ATOM      4  C   UNL     1       8.824   2.547  24.939  0.00  0.00    +0.107 C 
ATOM      5  C   UNL     1       9.301   2.912  23.508  0.00  0.00    +0.048 C 
ATOM      6  N   UNL     1       8.886   4.255  23.167  0.00  0.00    -0.309 N 
ATOM      7  H   UNL     1       7.924   4.571  23.132  0.00  0.00    +0.149 HD
ATOM      8  C   UNL     1       9.875   5.191  23.355  0.00  0.00    +0.214 C 
ATOM      9  O   UNL     1       9.696   6.396  23.350  0.00  0.00    -0.276 OA
ATOM     10  C   UNL     1      11.176   4.481  23.593  0.00  0.00    +0.098 C 
ATOM     11  C   UNL     1      10.837   2.997  23.429  0.00  0.00    +0.036 C 
ATOM     12  C   UNL     1       8.743   1.909  22.483  0.00  0.00    +0.029 C 
ATOM     13  C   UNL     1       8.954   0.455  22.919  0.00  0.00    +0.031 C 
ENDROOT
BRANCH   1  14
ATOM     14  C   UNL     1       8.852  -1.263  24.764  0.00  0.00    -0.025 A 
ATOM     15  C   UNL     1       8.626  -1.722  26.078  0.00  0.00    +0.005 A 
ATOM     16  C   UNL     1       8.912  -3.039  26.452  0.00  0.00    +0.000 A 
ATOM     17  C   UNL     1       9.456  -3.923  25.529  0.00  0.00    +0.000 A 
ATOM     18  C   UNL     1       9.742  -3.483  24.243  0.00  0.00    +0.000 A 
ATOM     19  C   UNL     1       9.454  -2.166  23.867  0.00  0.00    +0.005 A 
ENDBRANCH   1  14
BRANCH   1  20
ATOM     20  C   UNL     1       6.855   0.329  24.360  0.00  0.00    +0.187 C 
BRANCH  20  21
ATOM     21  O   UNL     1       6.219  -0.792  23.733  0.00  0.00    -0.370 OA
BRANCH  21  23
ATOM     22  C   UNL     1       5.273  -0.865  25.984  0.00  0.00    +0.043 C 
ATOM     23  C   UNL     1       5.259  -1.446  24.570  0.00  0.00    +0.145 C 
BRANCH  23  24
ATOM     24  C   UNL     1       5.578  -2.929  24.613  0.00  0.00    -0.018 A 
ATOM     25  C   UNL     1       6.102  -3.600  23.497  0.00  0.00    +0.018 A 
ATOM     26  C   UNL     1       6.435  -4.964  23.551  0.00  0.00    +0.056 A 
ATOM     27  C   UNL     1       6.246  -5.660  24.755  0.00  0.00    +0.024 A 
ATOM     28  C   UNL     1       5.732  -5.015  25.890  0.00  0.00    +0.056 A 
ATOM     29  C   UNL     1       5.403  -3.650  25.805  0.00  0.00    +0.018 A 
BRANCH  26  30
ATOM     30  C   UNL     1       6.995  -5.650  22.329  0.00  0.00    +0.417 C 
ATOM     31  F   UNL     1       6.105  -6.513  21.759  0.00  0.00    -0.166 F 
ATOM     32  F   UNL     1       8.106  -6.386  22.605  0.00  0.00    -0.166 F 
ATOM     33  F   UNL     1       7.357  -4.787  21.338  0.00  0.00    -0.166 F 
ENDBRANCH  26  30
BRANCH  28  34
ATOM     34  C   UNL     1       5.546  -5.784  27.176  0.00  0.00    +0.417 C 
ATOM     35  F   UNL     1       4.585  -5.237  27.971  0.00  0.00    -0.166 F 
ATOM     36  F   UNL     1       6.680  -5.820  27.929  0.00  0.00    -0.166 F 
ATOM     37  F   UNL     1       5.182  -7.082  26.989  0.00  0.00    -0.166 F 
ENDBRANCH  28  34
ENDBRANCH  23  24
ENDBRANCH  21  23
ENDBRANCH  20  21
ENDBRANCH   1  20
TORSDOF 7
ENDMDL
MODEL 5
REMARK VINA RESULT:      -7.6      3.102      5.115
REMARK  Name = 
REMARK  8 active torsions:
REMARK  status: ('A' for Active; 'I' for Inactive)
REMARK    1  A    between atoms: C_1  and  C_2
REMARK    2  A    between atoms: C_2  and  O_4
REMARK    3  A    between atoms: C_2  and  C_23
REMARK    4  A    between atoms: O_4  and  C_5
REMARK    5  A    between atoms: C_5  and  C_6
REMARK    6  A    between atoms: C_6  and  C_17
REMARK    7  A    between atoms: C_25  and  C_33
REMARK    8  A    between atoms: C_27  and  C_29
REMARK                            x       y       z     vdW  Elec       q    Type
REMARK                         _______ _______ _______ _____ _____    ______ ____
ROOT
ATOM      1  C   UNL     1       8.237  -2.419  23.546  0.00  0.00    +0.068 C 
ATOM      2  N   UNL     1       8.878  -1.750  22.378  0.00  0.00    -0.303 NA
ATOM      3  H   UNL     1       9.369  -2.484  21.859  0.00  0.00    +0.123 HD
ATOM      4  C   UNL     1       9.824  -0.691  22.728  0.00  0.00    +0.107 C 
ATOM      5  C   UNL     1       9.222   0.415  23.635  0.00  0.00    +0.048 C 
ATOM      6  N   UNL     1      10.261   1.311  24.092  0.00  0.00    -0.309 N 
ATOM      7  H   UNL     1      11.065   1.032  24.642  0.00  0.00    +0.149 HD
ATOM      8  C   UNL     1      10.348   2.463  23.347  0.00  0.00    +0.214 C 
ATOM      9  O   UNL     1      11.275   3.252  23.399  0.00  0.00    -0.276 OA
ATOM     10  C   UNL     1       9.143   2.557  22.456  0.00  0.00    +0.098 C 
ATOM     11  C   UNL     1       8.287   1.348  22.844  0.00  0.00    +0.036 C 
ATOM     12  C   UNL     1       8.498  -0.213  24.839  0.00  0.00    +0.029 C 
ATOM     13  C   UNL     1       7.548  -1.341  24.422  0.00  0.00    +0.031 C 
ENDROOT
BRANCH   1  14
ATOM     14  C   UNL     1       7.157  -3.401  23.020  0.00  0.00    -0.025 A 
ATOM     15  C   UNL     1       7.533  -4.623  22.423  0.00  0.00    +0.005 A 
ATOM     16  C   UNL     1       6.581  -5.571  22.034  0.00  0.00    +0.000 A 
ATOM     17  C   UNL     1       5.227  -5.310  22.208  0.00  0.00    +0.000 A 
ATOM     18  C   UNL     1       4.825  -4.092  22.741  0.00  0.00    +0.000 A 
ATOM     19  C   UNL     1       5.778  -3.144  23.132  0.00  0.00    +0.005 A 
ENDBRANCH   1  14
BRANCH   1  20
ATOM     20  C   UNL     1       9.332  -3.161  24.397  0.00  0.00    +0.187 C 
BRANCH  20  21
ATOM     21  O   UNL     1       9.015  -3.112  25.794  0.00  0.00    -0.370 OA
BRANCH  21  23
ATOM     22  C   UNL     1       9.083  -5.527  25.435  0.00  0.00    +0.043 C 
ATOM     23  C   UNL     1       8.630  -4.379  26.337  0.00  0.00    +0.145 C 
BRANCH  23  24
ATOM     24  C   UNL     1       7.121  -4.406  26.496  0.00  0.00    -0.018 A 
ATOM     25  C   UNL     1       6.430  -3.358  27.126  0.00  0.00    +0.018 A 
ATOM     26  C   UNL     1       5.030  -3.364  27.236  0.00  0.00    +0.056 A 
ATOM     27  C   UNL     1       4.312  -4.440  26.691  0.00  0.00    +0.024 A 
ATOM     28  C   UNL     1       4.973  -5.497  26.046  0.00  0.00    +0.056 A 
ATOM     29  C   UNL     1       6.377  -5.466  25.955  0.00  0.00    +0.018 A 
BRANCH  26  30
ATOM     30  C   UNL     1       4.324  -2.221  27.923  0.00  0.00    +0.417 C 
ATOM     31  F   UNL     1       5.019  -1.050  27.837  0.00  0.00    -0.166 F 
ATOM     32  F   UNL     1       4.133  -2.447  29.251  0.00  0.00    -0.166 F 
ATOM     33  F   UNL     1       3.089  -1.956  27.409  0.00  0.00    -0.166 F 
ENDBRANCH  26  30
BRANCH  28  34
ATOM     34  C   UNL     1       4.178  -6.639  25.459  0.00  0.00    +0.417 C 
ATOM     35  F   UNL     1       4.914  -7.391  24.594  0.00  0.00    -0.166 F 
ATOM     36  F   UNL     1       3.095  -6.210  24.755  0.00  0.00    -0.166 F 
ATOM     37  F   UNL     1       3.698  -7.506  26.392  0.00  0.00    -0.166 F 
ENDBRANCH  28  34
ENDBRANCH  23  24
ENDBRANCH  21  23
ENDBRANCH  20  21
ENDBRANCH   1  20
TORSDOF 7
ENDMDL
MODEL 6
REMARK VINA RESULT:      -7.6      2.558      4.201
REMARK  Name = 
REMARK  8 active torsions:
REMARK  status: ('A' for Active; 'I' for Inactive)
REMARK    1  A    between atoms: C_1  and  C_2
REMARK    2  A    between atoms: C_2  and  O_4
REMARK    3  A    between atoms: C_2  and  C_23
REMARK    4  A    between atoms: O_4  and  C_5
REMARK    5  A    between atoms: C_5  and  C_6
REMARK    6  A    between atoms: C_6  and  C_17
REMARK    7  A    between atoms: C_25  and  C_33
REMARK    8  A    between atoms: C_27  and  C_29
REMARK                            x       y       z     vdW  Elec       q    Type
REMARK                         _______ _______ _______ _____ _____    ______ ____
ROOT
ATOM      1  C   UNL     1       8.116  -0.739  24.969  0.00  0.00    +0.068 C 
ATOM      2  N   UNL     1       9.056   0.163  25.694  0.00  0.00    -0.303 NA
ATOM      3  H   UNL     1       8.903  -0.005  26.693  0.00  0.00    +0.123 HD
ATOM      4  C   UNL     1       8.873   1.586  25.411  0.00  0.00    +0.107 C 
ATOM      5  C   UNL     1       8.946   1.941  23.902  0.00  0.00    +0.048 C 
ATOM      6  N   UNL     1       8.564   3.321  23.691  0.00  0.00    -0.309 N 
ATOM      7  H   UNL     1       7.664   3.716  23.936  0.00  0.00    +0.149 HD
ATOM      8  C   UNL     1       9.641   4.169  23.582  0.00  0.00    +0.214 C 
ATOM      9  O   UNL     1       9.571   5.384  23.625  0.00  0.00    -0.276 OA
ATOM     10  C   UNL     1      10.891   3.349  23.435  0.00  0.00    +0.098 C 
ATOM     11  C   UNL     1      10.394   1.902  23.381  0.00  0.00    +0.036 C 
ATOM     12  C   UNL     1       8.032   1.010  23.086  0.00  0.00    +0.029 C 
ATOM     13  C   UNL     1       8.236  -0.465  23.447  0.00  0.00    +0.031 C 
ENDROOT
BRANCH   1  14
ATOM     14  C   UNL     1       8.527  -2.208  25.248  0.00  0.00    -0.025 A 
ATOM     15  C   UNL     1       8.165  -2.834  26.459  0.00  0.00    +0.005 A 
ATOM     16  C   UNL     1       8.434  -4.186  26.693  0.00  0.00    +0.000 A 
ATOM     17  C   UNL     1       9.095  -4.942  25.733  0.00  0.00    +0.000 A 
ATOM     18  C   UNL     1       9.515  -4.338  24.554  0.00  0.00    +0.000 A 
ATOM     19  C   UNL     1       9.245  -2.985  24.318  0.00  0.00    +0.005 A 
ENDBRANCH   1  14
BRANCH   1  20
ATOM     20  C   UNL     1       6.641  -0.450  25.435  0.00  0.00    +0.187 C 
BRANCH  20  21
ATOM     21  O   UNL     1       5.695  -1.051  24.542  0.00  0.00    -0.370 OA
BRANCH  21  23
ATOM     22  C   UNL     1       4.774  -1.672  26.718  0.00  0.00    +0.043 C 
ATOM     23  C   UNL     1       4.729  -1.876  25.203  0.00  0.00    +0.145 C 
BRANCH  23  24
ATOM     24  C   UNL     1       5.013  -3.329  24.866  0.00  0.00    -0.018 A 
ATOM     25  C   UNL     1       4.514  -4.377  25.655  0.00  0.00    +0.018 A 
ATOM     26  C   UNL     1       4.742  -5.722  25.319  0.00  0.00    +0.056 A 
ATOM     27  C   UNL     1       5.478  -6.014  24.160  0.00  0.00    +0.024 A 
ATOM     28  C   UNL     1       5.981  -4.989  23.346  0.00  0.00    +0.056 A 
ATOM     29  C   UNL     1       5.741  -3.651  23.710  0.00  0.00    +0.018 A 
BRANCH  26  30
ATOM     30  C   UNL     1       4.191  -6.820  26.195  0.00  0.00    +0.417 C 
ATOM     31  F   UNL     1       5.104  -7.277  27.099  0.00  0.00    -0.166 F 
ATOM     32  F   UNL     1       3.792  -7.907  25.481  0.00  0.00    -0.166 F 
ATOM     33  F   UNL     1       3.106  -6.438  26.928  0.00  0.00    -0.166 F 
ENDBRANCH  26  30
BRANCH  28  34
ATOM     34  C   UNL     1       6.762  -5.329  22.099  0.00  0.00    +0.417 C 
ATOM     35  F   UNL     1       7.541  -4.295  21.677  0.00  0.00    -0.166 F 
ATOM     36  F   UNL     1       5.954  -5.643  21.049  0.00  0.00    -0.166 F 
ATOM     37  F   UNL     1       7.601  -6.390  22.253  0.00  0.00    -0.166 F 
ENDBRANCH  28  34
ENDBRANCH  23  24
ENDBRANCH  21  23
ENDBRANCH  20  21
ENDBRANCH   1  20
TORSDOF 7
ENDMDL
MODEL 7
REMARK VINA RESULT:      -7.6      1.642      4.093
REMARK  Name = 
REMARK  8 active torsions:
REMARK  status: ('A' for Active; 'I' for Inactive)
REMARK    1  A    between atoms: C_1  and  C_2
REMARK    2  A    between atoms: C_2  and  O_4
REMARK    3  A    between atoms: C_2  and  C_23
REMARK    4  A    between atoms: O_4  and  C_5
REMARK    5  A    between atoms: C_5  and  C_6
REMARK    6  A    between atoms: C_6  and  C_17
REMARK    7  A    between atoms: C_25  and  C_33
REMARK    8  A    between atoms: C_27  and  C_29
REMARK                            x       y       z     vdW  Elec       q    Type
REMARK                         _______ _______ _______ _____ _____    ______ ____
ROOT
ATOM      1  C   UNL     1       7.239   0.999  23.966  0.00  0.00    +0.068 C 
ATOM      2  N   UNL     1       7.958   2.188  24.508  0.00  0.00    -0.303 NA
ATOM      3  H   UNL     1       8.403   1.882  25.378  0.00  0.00    +0.123 HD
ATOM      4  C   UNL     1       7.103   3.342  24.783  0.00  0.00    +0.107 C 
ATOM      5  C   UNL     1       6.268   3.811  23.562  0.00  0.00    +0.048 C 
ATOM      6  N   UNL     1       5.314   4.821  23.964  0.00  0.00    -0.309 N 
ATOM      7  H   UNL     1       4.583   4.686  24.653  0.00  0.00    +0.149 HD
ATOM      8  C   UNL     1       5.745   6.102  23.714  0.00  0.00    +0.214 C 
ATOM      9  O   UNL     1       5.223   7.108  24.161  0.00  0.00    -0.276 OA
ATOM     10  C   UNL     1       6.965   6.041  22.839  0.00  0.00    +0.098 C 
ATOM     11  C   UNL     1       7.139   4.552  22.532  0.00  0.00    +0.036 C 
ATOM     12  C   UNL     1       5.536   2.618  22.922  0.00  0.00    +0.029 C 
ATOM     13  C   UNL     1       6.467   1.423  22.690  0.00  0.00    +0.031 C 
ENDROOT
BRANCH   1  14
ATOM     14  C   UNL     1       8.286  -0.079  23.583  0.00  0.00    -0.025 A 
ATOM     15  C   UNL     1       9.326  -0.413  24.476  0.00  0.00    +0.005 A 
ATOM     16  C   UNL     1      10.222  -1.451  24.200  0.00  0.00    +0.000 A 
ATOM     17  C   UNL     1      10.117  -2.165  23.013  0.00  0.00    +0.000 A 
ATOM     18  C   UNL     1       9.138  -1.821  22.089  0.00  0.00    +0.000 A 
ATOM     19  C   UNL     1       8.240  -0.784  22.366  0.00  0.00    +0.005 A 
ENDBRANCH   1  14
BRANCH   1  20
ATOM     20  C   UNL     1       6.219   0.465  25.038  0.00  0.00    +0.187 C 
BRANCH  20  21
ATOM     21  O   UNL     1       5.438  -0.614  24.508  0.00  0.00    -0.370 OA
BRANCH  21  23
ATOM     22  C   UNL     1       5.863  -1.394  26.784  0.00  0.00    +0.043 C 
ATOM     23  C   UNL     1       5.351  -1.742  25.386  0.00  0.00    +0.145 C 
BRANCH  23  24
ATOM     24  C   UNL     1       6.166  -2.881  24.801  0.00  0.00    -0.018 A 
ATOM     25  C   UNL     1       5.872  -3.421  23.538  0.00  0.00    +0.018 A 
ATOM     26  C   UNL     1       6.652  -4.448  22.980  0.00  0.00    +0.056 A 
ATOM     27  C   UNL     1       7.754  -4.930  23.703  0.00  0.00    +0.024 A 
ATOM     28  C   UNL     1       8.078  -4.404  24.962  0.00  0.00    +0.056 A 
ATOM     29  C   UNL     1       7.276  -3.380  25.499  0.00  0.00    +0.018 A 
BRANCH  26  30
ATOM     30  C   UNL     1       6.302  -5.003  21.621  0.00  0.00    +0.417 C 
ATOM     31  F   UNL     1       5.228  -5.842  21.659  0.00  0.00    -0.166 F 
ATOM     32  F   UNL     1       7.320  -5.721  21.072  0.00  0.00    -0.166 F 
ATOM     33  F   UNL     1       5.989  -4.043  20.705  0.00  0.00    -0.166 F 
ENDBRANCH  26  30
BRANCH  28  34
ATOM     34  C   UNL     1       9.274  -4.934  25.717  0.00  0.00    +0.417 C 
ATOM     35  F   UNL     1      10.442  -4.724  25.049  0.00  0.00    -0.166 F 
ATOM     36  F   UNL     1       9.201  -6.277  25.929  0.00  0.00    -0.166 F 
ATOM     37  F   UNL     1       9.440  -4.370  26.945  0.00  0.00    -0.166 F 
ENDBRANCH  28  34
ENDBRANCH  23  24
ENDBRANCH  21  23
ENDBRANCH  20  21
ENDBRANCH   1  20
TORSDOF 7
ENDMDL
MODEL 8
REMARK VINA RESULT:      -7.5      1.370      3.233
REMARK  Name = 
REMARK  8 active torsions:
REMARK  status: ('A' for Active; 'I' for Inactive)
REMARK    1  A    between atoms: C_1  and  C_2
REMARK    2  A    between atoms: C_2  and  O_4
REMARK    3  A    between atoms: C_2  and  C_23
REMARK    4  A    between atoms: O_4  and  C_5
REMARK    5  A    between atoms: C_5  and  C_6
REMARK    6  A    between atoms: C_6  and  C_17
REMARK    7  A    between atoms: C_25  and  C_33
REMARK    8  A    between atoms: C_27  and  C_29
REMARK                            x       y       z     vdW  Elec       q    Type
REMARK                         _______ _______ _______ _____ _____    ______ ____
ROOT
ATOM      1  C   UNL     1       6.935   0.669  24.338  0.00  0.00    +0.068 C 
ATOM      2  N   UNL     1       6.032   1.273  23.316  0.00  0.00    -0.303 NA
ATOM      3  H   UNL     1       5.778   0.517  22.674  0.00  0.00    +0.123 HD
ATOM      4  C   UNL     1       6.623   2.374  22.556  0.00  0.00    +0.107 C 
ATOM      5  C   UNL     1       7.173   3.525  23.441  0.00  0.00    +0.048 C 
ATOM      6  N   UNL     1       7.909   4.472  22.633  0.00  0.00    -0.309 N 
ATOM      7  H   UNL     1       8.729   4.248  22.082  0.00  0.00    +0.149 HD
ATOM      8  C   UNL     1       7.166   5.573  22.280  0.00  0.00    +0.214 C 
ATOM      9  O   UNL     1       7.492   6.384  21.431  0.00  0.00    -0.276 OA
ATOM     10  C   UNL     1       5.897   5.580  23.083  0.00  0.00    +0.098 C 
ATOM     11  C   UNL     1       6.035   4.382  24.025  0.00  0.00    +0.036 C 
ATOM     12  C   UNL     1       8.077   2.962  24.552  0.00  0.00    +0.029 C 
ATOM     13  C   UNL     1       7.427   1.788  25.292  0.00  0.00    +0.031 C 
ENDROOT
BRANCH   1  14
ATOM     14  C   UNL     1       6.127  -0.369  25.159  0.00  0.00    -0.025 A 
ATOM     15  C   UNL     1       5.424  -1.404  24.507  0.00  0.00    +0.005 A 
ATOM     16  C   UNL     1       4.773  -2.412  25.226  0.00  0.00    +0.000 A 
ATOM     17  C   UNL     1       4.785  -2.396  26.615  0.00  0.00    +0.000 A 
ATOM     18  C   UNL     1       5.421  -1.358  27.284  0.00  0.00    +0.000 A 
ATOM     19  C   UNL     1       6.075  -0.350  26.565  0.00  0.00    +0.005 A 
ENDBRANCH   1  14
BRANCH   1  20
ATOM     20  C   UNL     1       8.173   0.011  23.625  0.00  0.00    +0.187 C 
BRANCH  20  21
ATOM     21  O   UNL     1       9.023  -0.642  24.576  0.00  0.00    -0.370 OA
BRANCH  21  23
ATOM     22  C   UNL     1      10.095  -1.631  22.615  0.00  0.00    +0.043 C 
ATOM     23  C   UNL     1       9.649  -1.825  24.065  0.00  0.00    +0.145 C 
BRANCH  23  24
ATOM     24  C   UNL     1       8.666  -2.978  24.158  0.00  0.00    -0.018 A 
ATOM     25  C   UNL     1       8.084  -3.540  23.011  0.00  0.00    +0.018 A 
ATOM     26  C   UNL     1       7.206  -4.634  23.095  0.00  0.00    +0.056 A 
ATOM     27  C   UNL     1       6.919  -5.176  24.357  0.00  0.00    +0.024 A 
ATOM     28  C   UNL     1       7.493  -4.643  25.521  0.00  0.00    +0.056 A 
ATOM     29  C   UNL     1       8.365  -3.544  25.406  0.00  0.00    +0.018 A 
BRANCH  26  30
ATOM     30  C   UNL     1       6.599  -5.209  21.839  0.00  0.00    +0.417 C 
ATOM     31  F   UNL     1       5.612  -6.113  22.101  0.00  0.00    -0.166 F 
ATOM     32  F   UNL     1       7.511  -5.862  21.069  0.00  0.00    -0.166 F 
ATOM     33  F   UNL     1       6.033  -4.269  21.028  0.00  0.00    -0.166 F 
ENDBRANCH  26  30
BRANCH  28  34
ATOM     34  C   UNL     1       7.176  -5.250  26.866  0.00  0.00    +0.417 C 
ATOM     35  F   UNL     1       6.829  -4.310  27.789  0.00  0.00    -0.166 F 
ATOM     36  F   UNL     1       8.235  -5.922  27.396  0.00  0.00    -0.166 F 
ATOM     37  F   UNL     1       6.147  -6.140  26.835  0.00  0.00    -0.166 F 
ENDBRANCH  28  34
ENDBRANCH  23  24
ENDBRANCH  21  23
ENDBRANCH  20  21
ENDBRANCH   1  20
TORSDOF 7
ENDMDL
MODEL 9
REMARK VINA RESULT:      -7.5      2.176      5.170
REMARK  Name = 
REMARK  8 active torsions:
REMARK  status: ('A' for Active; 'I' for Inactive)
REMARK    1  A    between atoms: C_1  and  C_2
REMARK    2  A    between atoms: C_2  and  O_4
REMARK    3  A    between atoms: C_2  and  C_23
REMARK    4  A    between atoms: O_4  and  C_5
REMARK    5  A    between atoms: C_5  and  C_6
REMARK    6  A    between atoms: C_6  and  C_17
REMARK    7  A    between atoms: C_25  and  C_33
REMARK    8  A    between atoms: C_27  and  C_29
REMARK                            x       y       z     vdW  Elec       q    Type
REMARK                         _______ _______ _______ _____ _____    ______ ____
ROOT
ATOM      1  C   UNL     1       9.269   2.235  23.615  0.00  0.00    +0.068 C 
ATOM      2  N   UNL     1       9.050   1.664  24.975  0.00  0.00    -0.303 NA
ATOM      3  H   UNL     1       9.976   1.417  25.335  0.00  0.00    +0.123 HD
ATOM      4  C   UNL     1       8.189   0.482  25.006  0.00  0.00    +0.107 C 
ATOM      5  C   UNL     1       6.797   0.701  24.355  0.00  0.00    +0.048 C 
ATOM      6  N   UNL     1       6.087  -0.555  24.251  0.00  0.00    -0.309 N 
ATOM      7  H   UNL     1       6.414  -1.363  23.734  0.00  0.00    +0.149 HD
ATOM      8  C   UNL     1       5.187  -0.754  25.271  0.00  0.00    +0.214 C 
ATOM      9  O   UNL     1       4.645  -1.816  25.518  0.00  0.00    -0.276 OA
ATOM     10  C   UNL     1       5.021   0.533  26.028  0.00  0.00    +0.098 C 
ATOM     11  C   UNL     1       5.876   1.542  25.258  0.00  0.00    +0.036 C 
ATOM     12  C   UNL     1       6.949   1.338  22.963  0.00  0.00    +0.029 C 
ATOM     13  C   UNL     1       7.890   2.548  22.978  0.00  0.00    +0.031 C 
ENDROOT
BRANCH   1  14
ATOM     14  C   UNL     1      10.066   3.559  23.758  0.00  0.00    -0.025 A 
ATOM     15  C   UNL     1      11.422   3.620  23.377  0.00  0.00    +0.005 A 
ATOM     16  C   UNL     1      12.135   4.823  23.399  0.00  0.00    +0.000 A 
ATOM     17  C   UNL     1      11.517   5.991  23.829  0.00  0.00    +0.000 A 
ATOM     18  C   UNL     1      10.199   5.950  24.265  0.00  0.00    +0.000 A 
ATOM     19  C   UNL     1       9.484   4.746  24.241  0.00  0.00    +0.005 A 
ENDBRANCH   1  14
BRANCH   1  20
ATOM     20  C   UNL     1      10.031   1.191  22.719  0.00  0.00    +0.187 C 
BRANCH  20  21
ATOM     21  O   UNL     1      10.039  -0.103  23.336  0.00  0.00    -0.370 OA
BRANCH  21  23
ATOM     22  C   UNL     1       9.450  -0.720  21.046  0.00  0.00    +0.043 C 
ATOM     23  C   UNL     1       9.997  -1.183  22.397  0.00  0.00    +0.145 C 
BRANCH  23  24
ATOM     24  C   UNL     1       9.121  -2.287  22.962  0.00  0.00    -0.018 A 
ATOM     25  C   UNL     1       7.951  -2.704  22.307  0.00  0.00    +0.018 A 
ATOM     26  C   UNL     1       7.163  -3.753  22.808  0.00  0.00    +0.056 A 
ATOM     27  C   UNL     1       7.569  -4.401  23.985  0.00  0.00    +0.024 A 
ATOM     28  C   UNL     1       8.738  -4.015  24.656  0.00  0.00    +0.056 A 
ATOM     29  C   UNL     1       9.505  -2.957  24.133  0.00  0.00    +0.018 A 
BRANCH  26  30
ATOM     30  C   UNL     1       5.911  -4.170  22.076  0.00  0.00    +0.417 C 
ATOM     31  F   UNL     1       5.957  -5.466  21.655  0.00  0.00    -0.166 F 
ATOM     32  F   UNL     1       5.683  -3.421  20.962  0.00  0.00    -0.166 F 
ATOM     33  F   UNL     1       4.780  -4.067  22.831  0.00  0.00    -0.166 F 
ENDBRANCH  26  30
BRANCH  28  34
ATOM     34  C   UNL     1       9.159  -4.734  25.916  0.00  0.00    +0.417 C 
ATOM     35  F   UNL     1       8.323  -5.763  26.228  0.00  0.00    -0.166 F 
ATOM     36  F   UNL     1       9.167  -3.915  27.004  0.00  0.00    -0.166 F 
ATOM     37  F   UNL     1      10.406  -5.275  25.846  0.00  0.00    -0.166 F 
ENDBRANCH  28  34
ENDBRANCH  23  24
ENDBRANCH  21  23
ENDBRANCH  20  21
ENDBRANCH   1  20
TORSDOF 7
ENDMDL
