MODEL 1
REMARK VINA RESULT:      -6.6      0.000      0.000
REMARK  Name = 
REMARK  11 active torsions:
REMARK  status: ('A' for Active; 'I' for Inactive)
REMARK    1  A    between atoms: C_2  and  C_3
REMARK    2  A    between atoms: C_2  and  O_4
REMARK    3  A    between atoms: C_2  and  C_5
REMARK    4  A    between atoms: C_5  and  N_7
REMARK    5  A    between atoms: C_5  and  C_31
REMARK    6  A    between atoms: C_8  and  C_10
REMARK    7  A    between atoms: C_13  and  C_16
REMARK    8  A    between atoms: C_17  and  C_18
REMARK    9  A    between atoms: C_21  and  C_22
REMARK   10  A    between atoms: C_22  and  N_23
REMARK   11  A    between atoms: N_33  and  O_34
REMARK                            x       y       z     vdW  Elec       q    Type
REMARK                         _______ _______ _______ _____ _____    ______ ____
ROOT
ATOM      1  C   UNL     1       8.278   3.217  23.262  0.00  0.00    +0.037 A 
ATOM      2  C   UNL     1       8.575   2.396  24.356  0.00  0.00    +0.014 A 
ATOM      3  C   UNL     1       8.091   1.083  24.400  0.00  0.00    +0.017 A 
ATOM      4  C   UNL     1       7.319   0.584  23.348  0.00  0.00    +0.025 A 
ATOM      5  C   UNL     1       7.052   1.391  22.240  0.00  0.00    +0.017 A 
ATOM      6  C   UNL     1       7.530   2.705  22.194  0.00  0.00    +0.014 A 
ENDROOT
BRANCH   1   9
ATOM      7  N   UNL     1       9.883   4.870  24.053  0.00  0.00    -0.298 N 
ATOM      8  H   UNL     1      10.372   4.105  24.500  0.00  0.00    +0.150 HD
ATOM      9  C   UNL     1       8.793   4.612  23.251  0.00  0.00    +0.245 C 
ATOM     10  O   UNL     1       8.257   5.461  22.547  0.00  0.00    -0.270 OA
BRANCH   7  11
ATOM     11  C   UNL     1      10.510   6.195  24.099  0.00  0.00    +0.189 C 
BRANCH  11  12
ATOM     12  C   UNL     1      12.038   6.046  24.130  0.00  0.00    +0.258 C 
ATOM     13  N   UNL     1      12.552   5.153  23.207  0.00  0.00    -0.196 N 
ATOM     14  H   UNL     1      11.975   4.345  22.961  0.00  0.00    +0.182 HD
ATOM     15  O   UNL     1      12.762   6.604  24.955  0.00  0.00    -0.272 OA
BRANCH  13  16
ATOM     16  O   UNL     1      13.939   4.893  23.360  0.00  0.00    -0.295 OA
ATOM     17  H   UNL     1      14.237   5.647  23.916  0.00  0.00    +0.241 HD
ENDBRANCH  13  16
ENDBRANCH  11  12
BRANCH  11  18
ATOM     18  C   UNL     1      10.040   7.005  25.328  0.00  0.00    +0.141 C 
ATOM     19  C   UNL     1       8.519   7.108  25.398  0.00  0.00    +0.040 C 
BRANCH  18  20
ATOM     20  O   UNL     1      10.519   6.395  26.542  0.00  0.00    -0.390 OA
ATOM     21  H   UNL     1      11.000   7.090  27.033  0.00  0.00    +0.210 HD
ENDBRANCH  18  20
ENDBRANCH  11  18
ENDBRANCH   7  11
ENDBRANCH   1   9
BRANCH   4  22
ATOM     22  C   UNL     1       6.783  -0.745  23.416  0.00  0.00    -0.061 C 
ATOM     23  C   UNL     1       6.285  -1.835  23.488  0.00  0.00    -0.061 C 
BRANCH  23  24
ATOM     24  C   UNL     1       5.629  -3.103  23.626  0.00  0.00    +0.025 A 
ATOM     25  C   UNL     1       4.582  -3.237  24.541  0.00  0.00    +0.017 A 
ATOM     26  C   UNL     1       3.901  -4.451  24.670  0.00  0.00    +0.006 A 
ATOM     27  C   UNL     1       4.263  -5.557  23.888  0.00  0.00    -0.033 A 
ATOM     28  C   UNL     1       5.316  -5.413  22.968  0.00  0.00    +0.006 A 
ATOM     29  C   UNL     1       5.999  -4.196  22.841  0.00  0.00    +0.017 A 
BRANCH  27  30
ATOM     30  C   UNL     1       3.521  -6.875  24.031  0.00  0.00    +0.119 C 
BRANCH  30  31
ATOM     31  N   UNL     1       2.062  -6.711  24.018  0.00  0.00    -0.294 NA
ATOM     32  C   UNL     1       1.370  -7.727  24.834  0.00  0.00    +0.113 C 
ATOM     33  C   UNL     1       1.150  -9.077  24.135  0.00  0.00    +0.175 C 
ATOM     34  O   UNL     1       0.450  -8.903  22.899  0.00  0.00    -0.377 OA
ATOM     35  C   UNL     1       1.201  -8.056  22.024  0.00  0.00    +0.175 C 
ATOM     36  C   UNL     1       1.482  -6.683  22.658  0.00  0.00    +0.113 C 
ENDBRANCH  30  31
ENDBRANCH  27  30
ENDBRANCH  23  24
ENDBRANCH   4  22
TORSDOF 10
ENDMDL
MODEL 2
REMARK VINA RESULT:      -6.5      1.542      1.939
REMARK  Name = 
REMARK  11 active torsions:
REMARK  status: ('A' for Active; 'I' for Inactive)
REMARK    1  A    between atoms: C_2  and  C_3
REMARK    2  A    between atoms: C_2  and  O_4
REMARK    3  A    between atoms: C_2  and  C_5
REMARK    4  A    between atoms: C_5  and  N_7
REMARK    5  A    between atoms: C_5  and  C_31
REMARK    6  A    between atoms: C_8  and  C_10
REMARK    7  A    between atoms: C_13  and  C_16
REMARK    8  A    between atoms: C_17  and  C_18
REMARK    9  A    between atoms: C_21  and  C_22
REMARK   10  A    between atoms: C_22  and  N_23
REMARK   11  A    between atoms: N_33  and  O_34
REMARK                            x       y       z     vdW  Elec       q    Type
REMARK                         _______ _______ _______ _____ _____    ______ ____
ROOT
ATOM      1  C   UNL     1       9.629   2.178  23.604  0.00  0.00    +0.037 A 
ATOM      2  C   UNL     1       8.875   1.892  24.749  0.00  0.00    +0.014 A 
ATOM      3  C   UNL     1       8.289   0.630  24.906  0.00  0.00    +0.017 A 
ATOM      4  C   UNL     1       8.464  -0.352  23.928  0.00  0.00    +0.025 A 
ATOM      5  C   UNL     1       9.246  -0.079  22.803  0.00  0.00    +0.017 A 
ATOM      6  C   UNL     1       9.829   1.182  22.639  0.00  0.00    +0.014 A 
ENDROOT
BRANCH   1   9
ATOM      7  N   UNL     1       9.352   4.595  23.500  0.00  0.00    -0.298 N 
ATOM      8  H   UNL     1       8.385   4.444  23.762  0.00  0.00    +0.150 HD
ATOM      9  C   UNL     1      10.226   3.531  23.457  0.00  0.00    +0.245 C 
ATOM     10  O   UNL     1      11.437   3.659  23.315  0.00  0.00    -0.270 OA
BRANCH   7  11
ATOM     11  C   UNL     1       9.819   5.982  23.408  0.00  0.00    +0.189 C 
BRANCH  11  12
ATOM     12  C   UNL     1      10.670   6.327  24.640  0.00  0.00    +0.258 C 
ATOM     13  N   UNL     1      12.022   6.476  24.387  0.00  0.00    -0.196 N 
ATOM     14  H   UNL     1      12.427   5.905  23.643  0.00  0.00    +0.182 HD
ATOM     15  O   UNL     1      10.219   6.391  25.784  0.00  0.00    -0.272 OA
BRANCH  13  16
ATOM     16  O   UNL     1      12.818   6.620  25.553  0.00  0.00    -0.295 OA
ATOM     17  H   UNL     1      12.791   5.717  25.943  0.00  0.00    +0.241 HD
ENDBRANCH  13  16
ENDBRANCH  11  12
BRANCH  11  18
ATOM     18  C   UNL     1       8.641   6.975  23.293  0.00  0.00    +0.141 C 
ATOM     19  C   UNL     1       7.623   6.537  22.243  0.00  0.00    +0.040 C 
BRANCH  18  20
ATOM     20  O   UNL     1       7.970   7.104  24.562  0.00  0.00    -0.390 OA
ATOM     21  H   UNL     1       8.431   6.508  25.184  0.00  0.00    +0.210 HD
ENDBRANCH  18  20
ENDBRANCH  11  18
ENDBRANCH   7  11
ENDBRANCH   1   9
BRANCH   4  22
ATOM     22  C   UNL     1       7.824  -1.628  24.067  0.00  0.00    -0.061 C 
ATOM     23  C   UNL     1       7.250  -2.679  24.146  0.00  0.00    -0.061 C 
BRANCH  23  24
ATOM     24  C   UNL     1       6.493  -3.896  24.208  0.00  0.00    +0.025 A 
ATOM     25  C   UNL     1       6.155  -4.430  25.453  0.00  0.00    +0.017 A 
ATOM     26  C   UNL     1       5.386  -5.596  25.543  0.00  0.00    +0.006 A 
ATOM     27  C   UNL     1       4.951  -6.251  24.383  0.00  0.00    -0.033 A 
ATOM     28  C   UNL     1       5.295  -5.706  23.134  0.00  0.00    +0.006 A 
ATOM     29  C   UNL     1       6.065  -4.540  23.045  0.00  0.00    +0.017 A 
BRANCH  27  30
ATOM     30  C   UNL     1       4.117  -7.517  24.483  0.00  0.00    +0.119 C 
BRANCH  30  31
ATOM     31  N   UNL     1       2.747  -7.261  24.945  0.00  0.00    -0.294 NA
ATOM     32  C   UNL     1       1.874  -8.444  24.815  0.00  0.00    +0.113 C 
ATOM     33  C   UNL     1       1.282  -8.658  23.413  0.00  0.00    +0.175 C 
ATOM     34  O   UNL     1       0.574  -7.494  22.975  0.00  0.00    -0.377 OA
ATOM     35  C   UNL     1       1.459  -6.371  22.928  0.00  0.00    +0.175 C 
ATOM     36  C   UNL     1       2.111  -6.096  24.293  0.00  0.00    +0.113 C 
ENDBRANCH  30  31
ENDBRANCH  27  30
ENDBRANCH  23  24
ENDBRANCH   4  22
TORSDOF 10
ENDMDL
MODEL 3
REMARK VINA RESULT:      -6.3      3.229      3.638
REMARK  Name = 
REMARK  11 active torsions:
REMARK  status: ('A' for Active; 'I' for Inactive)
REMARK    1  A    between atoms: C_2  and  C_3
REMARK    2  A    between atoms: C_2  and  O_4
REMARK    3  A    between atoms: C_2  and  C_5
REMARK    4  A    between atoms: C_5  and  N_7
REMARK    5  A    between atoms: C_5  and  C_31
REMARK    6  A    between atoms: C_8  and  C_10
REMARK    7  A    between atoms: C_13  and  C_16
REMARK    8  A    between atoms: C_17  and  C_18
REMARK    9  A    between atoms: C_21  and  C_22
REMARK   10  A    between atoms: C_22  and  N_23
REMARK   11  A    between atoms: N_33  and  O_34
REMARK                            x       y       z     vdW  Elec       q    Type
REMARK                         _______ _______ _______ _____ _____    ______ ____
ROOT
ATOM      1  C   UNL     1       9.618   1.967  24.152  0.00  0.00    +0.037 A 
ATOM      2  C   UNL     1       8.467   2.161  24.926  0.00  0.00    +0.014 A 
ATOM      3  C   UNL     1       7.862   1.075  25.569  0.00  0.00    +0.017 A 
ATOM      4  C   UNL     1       8.410  -0.206  25.449  0.00  0.00    +0.025 A 
ATOM      5  C   UNL     1       9.577  -0.393  24.706  0.00  0.00    +0.017 A 
ATOM      6  C   UNL     1      10.183   0.689  24.059  0.00  0.00    +0.014 A 
ENDROOT
BRANCH   1   9
ATOM      7  N   UNL     1      10.003   4.370  24.043  0.00  0.00    -0.298 N 
ATOM      8  H   UNL     1       9.565   4.430  24.954  0.00  0.00    +0.150 HD
ATOM      9  C   UNL     1      10.229   3.138  23.469  0.00  0.00    +0.245 C 
ATOM     10  O   UNL     1      10.899   2.979  22.455  0.00  0.00    -0.270 OA
BRANCH   7  11
ATOM     11  C   UNL     1      10.584   5.597  23.490  0.00  0.00    +0.189 C 
BRANCH  11  12
ATOM     12  C   UNL     1      12.080   5.664  23.831  0.00  0.00    +0.258 C 
ATOM     13  N   UNL     1      12.923   5.195  22.839  0.00  0.00    -0.196 N 
ATOM     14  H   UNL     1      12.577   4.435  22.249  0.00  0.00    +0.182 HD
ATOM     15  O   UNL     1      12.515   6.026  24.925  0.00  0.00    -0.272 OA
BRANCH  13  16
ATOM     16  O   UNL     1      14.284   5.098  23.230  0.00  0.00    -0.295 OA
ATOM     17  H   UNL     1      14.299   5.601  24.076  0.00  0.00    +0.241 HD
ENDBRANCH  13  16
ENDBRANCH  11  12
BRANCH  11  18
ATOM     18  C   UNL     1       9.870   6.858  24.024  0.00  0.00    +0.141 C 
ATOM     19  C   UNL     1       8.410   6.920  23.585  0.00  0.00    +0.040 C 
BRANCH  18  20
ATOM     20  O   UNL     1       9.922   6.889  25.464  0.00  0.00    -0.390 OA
ATOM     21  H   UNL     1      10.310   6.039  25.748  0.00  0.00    +0.210 HD
ENDBRANCH  18  20
ENDBRANCH  11  18
ENDBRANCH   7  11
ENDBRANCH   1   9
BRANCH   4  22
ATOM     22  C   UNL     1       7.762  -1.326  26.067  0.00  0.00    -0.061 C 
ATOM     23  C   UNL     1       7.179  -2.260  26.546  0.00  0.00    -0.061 C 
BRANCH  23  24
ATOM     24  C   UNL     1       6.410  -3.346  27.079  0.00  0.00    +0.025 A 
ATOM     25  C   UNL     1       6.907  -4.649  26.986  0.00  0.00    +0.017 A 
ATOM     26  C   UNL     1       6.194  -5.722  27.530  0.00  0.00    +0.006 A 
ATOM     27  C   UNL     1       4.965  -5.510  28.169  0.00  0.00    -0.033 A 
ATOM     28  C   UNL     1       4.473  -4.196  28.260  0.00  0.00    +0.006 A 
ATOM     29  C   UNL     1       5.187  -3.121  27.714  0.00  0.00    +0.017 A 
BRANCH  27  30
ATOM     30  C   UNL     1       4.193  -6.679  28.758  0.00  0.00    +0.119 C 
BRANCH  30  31
ATOM     31  N   UNL     1       2.816  -6.324  29.125  0.00  0.00    -0.294 NA
ATOM     32  C   UNL     1       2.356  -7.022  30.341  0.00  0.00    +0.113 C 
ATOM     33  C   UNL     1       1.846  -8.453  30.110  0.00  0.00    +0.175 C 
ATOM     34  O   UNL     1       0.806  -8.473  29.128  0.00  0.00    -0.377 OA
ATOM     35  C   UNL     1       1.295  -7.959  27.885  0.00  0.00    +0.175 C 
ATOM     36  C   UNL     1       1.841  -6.529  28.032  0.00  0.00    +0.113 C 
ENDBRANCH  30  31
ENDBRANCH  27  30
ENDBRANCH  23  24
ENDBRANCH   4  22
TORSDOF 10
ENDMDL
MODEL 4
REMARK VINA RESULT:      -5.8      2.173     13.076
REMARK  Name = 
REMARK  11 active torsions:
REMARK  status: ('A' for Active; 'I' for Inactive)
REMARK    1  A    between atoms: C_2  and  C_3
REMARK    2  A    between atoms: C_2  and  O_4
REMARK    3  A    between atoms: C_2  and  C_5
REMARK    4  A    between atoms: C_5  and  N_7
REMARK    5  A    between atoms: C_5  and  C_31
REMARK    6  A    between atoms: C_8  and  C_10
REMARK    7  A    between atoms: C_13  and  C_16
REMARK    8  A    between atoms: C_17  and  C_18
REMARK    9  A    between atoms: C_21  and  C_22
REMARK   10  A    between atoms: C_22  and  N_23
REMARK   11  A    between atoms: N_33  and  O_34
REMARK                            x       y       z     vdW  Elec       q    Type
REMARK                         _______ _______ _______ _____ _____    ______ ____
ROOT
ATOM      1  C   UNL     1       3.751  -4.440  23.936  0.00  0.00    +0.037 A 
ATOM      2  C   UNL     1       4.574  -4.447  22.802  0.00  0.00    +0.014 A 
ATOM      3  C   UNL     1       5.572  -3.476  22.654  0.00  0.00    +0.017 A 
ATOM      4  C   UNL     1       5.758  -2.504  23.640  0.00  0.00    +0.025 A 
ATOM      5  C   UNL     1       4.961  -2.518  24.787  0.00  0.00    +0.017 A 
ATOM      6  C   UNL     1       3.960  -3.484  24.938  0.00  0.00    +0.014 A 
ENDROOT
BRANCH   1   9
ATOM      7  N   UNL     1       2.739  -6.274  25.179  0.00  0.00    -0.298 N 
ATOM      8  H   UNL     1       3.384  -6.054  25.928  0.00  0.00    +0.150 HD
ATOM      9  C   UNL     1       2.691  -5.474  24.058  0.00  0.00    +0.245 C 
ATOM     10  O   UNL     1       1.828  -5.578  23.194  0.00  0.00    -0.270 OA
BRANCH   7  11
ATOM     11  C   UNL     1       1.728  -7.303  25.437  0.00  0.00    +0.189 C 
BRANCH  11  12
ATOM     12  C   UNL     1       1.566  -7.505  26.952  0.00  0.00    +0.258 C 
ATOM     13  N   UNL     1       2.750  -7.518  27.665  0.00  0.00    -0.196 N 
ATOM     14  H   UNL     1       3.578  -7.892  27.197  0.00  0.00    +0.182 HD
ATOM     15  O   UNL     1       0.483  -7.721  27.499  0.00  0.00    -0.272 OA
BRANCH  13  16
ATOM     16  O   UNL     1       2.603  -7.877  29.030  0.00  0.00    -0.295 OA
ATOM     17  H   UNL     1       1.920  -8.584  28.992  0.00  0.00    +0.241 HD
ENDBRANCH  13  16
ENDBRANCH  11  12
BRANCH  11  18
ATOM     18  C   UNL     1       2.097  -8.646  24.769  0.00  0.00    +0.141 C 
ATOM     19  C   UNL     1       1.008  -9.698  24.958  0.00  0.00    +0.040 C 
BRANCH  18  20
ATOM     20  O   UNL     1       2.318  -8.458  23.358  0.00  0.00    -0.390 OA
ATOM     21  H   UNL     1       2.540  -7.515  23.233  0.00  0.00    +0.210 HD
ENDBRANCH  18  20
ENDBRANCH  11  18
ENDBRANCH   7  11
ENDBRANCH   1   9
BRANCH   4  22
ATOM     22  C   UNL     1       6.748  -1.481  23.464  0.00  0.00    -0.061 C 
ATOM     23  C   UNL     1       7.583  -0.623  23.372  0.00  0.00    -0.061 C 
BRANCH  23  24
ATOM     24  C   UNL     1       8.564   0.422  23.346  0.00  0.00    +0.025 A 
ATOM     25  C   UNL     1       9.013   0.971  24.549  0.00  0.00    +0.017 A 
ATOM     26  C   UNL     1       9.996   1.967  24.554  0.00  0.00    +0.006 A 
ATOM     27  C   UNL     1      10.539   2.436  23.350  0.00  0.00    -0.033 A 
ATOM     28  C   UNL     1      10.081   1.878  22.144  0.00  0.00    +0.006 A 
ATOM     29  C   UNL     1       9.097   0.882  22.140  0.00  0.00    +0.017 A 
BRANCH  27  30
ATOM     30  C   UNL     1      11.605   3.519  23.359  0.00  0.00    +0.119 C 
BRANCH  30  31
ATOM     31  N   UNL     1      11.071   4.846  23.032  0.00  0.00    -0.294 NA
ATOM     32  C   UNL     1      12.035   5.929  23.309  0.00  0.00    +0.113 C 
ATOM     33  C   UNL     1      12.082   6.392  24.773  0.00  0.00    +0.175 C 
ATOM     34  O   UNL     1      10.783   6.784  25.228  0.00  0.00    -0.377 OA
ATOM     35  C   UNL     1       9.876   5.682  25.128  0.00  0.00    +0.175 C 
ATOM     36  C   UNL     1       9.781   5.145  23.691  0.00  0.00    +0.113 C 
ENDBRANCH  30  31
ENDBRANCH  27  30
ENDBRANCH  23  24
ENDBRANCH   4  22
TORSDOF 10
ENDMDL
MODEL 5
REMARK VINA RESULT:      -5.8      2.364     13.223
REMARK  Name = 
REMARK  11 active torsions:
REMARK  status: ('A' for Active; 'I' for Inactive)
REMARK    1  A    between atoms: C_2  and  C_3
REMARK    2  A    between atoms: C_2  and  O_4
REMARK    3  A    between atoms: C_2  and  C_5
REMARK    4  A    between atoms: C_5  and  N_7
REMARK    5  A    between atoms: C_5  and  C_31
REMARK    6  A    between atoms: C_8  and  C_10
REMARK    7  A    between atoms: C_13  and  C_16
REMARK    8  A    between atoms: C_17  and  C_18
REMARK    9  A    between atoms: C_21  and  C_22
REMARK   10  A    between atoms: C_22  and  N_23
REMARK   11  A    between atoms: N_33  and  O_34
REMARK                            x       y       z     vdW  Elec       q    Type
REMARK                         _______ _______ _______ _____ _____    ______ ____
ROOT
ATOM      1  C   UNL     1       2.716  -5.074  24.594  0.00  0.00    +0.037 A 
ATOM      2  C   UNL     1       3.430  -5.244  23.401  0.00  0.00    +0.014 A 
ATOM      3  C   UNL     1       4.479  -4.374  23.082  0.00  0.00    +0.017 A 
ATOM      4  C   UNL     1       4.825  -3.340  23.956  0.00  0.00    +0.025 A 
ATOM      5  C   UNL     1       4.137  -3.193  25.162  0.00  0.00    +0.017 A 
ATOM      6  C   UNL     1       3.085  -4.057  25.484  0.00  0.00    +0.014 A 
ENDROOT
BRANCH   1   9
ATOM      7  N   UNL     1       1.936  -7.196  25.501  0.00  0.00    -0.298 N 
ATOM      8  H   UNL     1       2.880  -7.341  25.836  0.00  0.00    +0.150 HD
ATOM      9  C   UNL     1       1.597  -6.004  24.899  0.00  0.00    +0.245 C 
ATOM     10  O   UNL     1       0.444  -5.692  24.623  0.00  0.00    -0.270 OA
BRANCH   7  11
ATOM     11  C   UNL     1       0.921  -8.180  25.889  0.00  0.00    +0.189 C 
BRANCH  11  12
ATOM     12  C   UNL     1       1.104  -8.561  27.366  0.00  0.00    +0.258 C 
ATOM     13  N   UNL     1       2.028  -7.794  28.053  0.00  0.00    -0.196 N 
ATOM     14  H   UNL     1       2.827  -7.435  27.525  0.00  0.00    +0.182 HD
ATOM     15  O   UNL     1       0.545  -9.522  27.897  0.00  0.00    -0.272 OA
BRANCH  13  16
ATOM     16  O   UNL     1       2.317  -8.264  29.360  0.00  0.00    -0.295 OA
ATOM     17  H   UNL     1       1.485  -8.065  29.847  0.00  0.00    +0.241 HD
ENDBRANCH  13  16
ENDBRANCH  11  12
BRANCH  11  18
ATOM     18  C   UNL     1       0.990  -9.448  25.010  0.00  0.00    +0.141 C 
ATOM     19  C   UNL     1       0.874  -9.122  23.524  0.00  0.00    +0.040 C 
BRANCH  18  20
ATOM     20  O   UNL     1       2.231 -10.145  25.235  0.00  0.00    -0.390 OA
ATOM     21  H   UNL     1       2.004 -10.986  25.676  0.00  0.00    +0.210 HD
ENDBRANCH  18  20
ENDBRANCH  11  18
ENDBRANCH   7  11
ENDBRANCH   1   9
BRANCH   4  22
ATOM     22  C   UNL     1       5.868  -2.420  23.605  0.00  0.00    -0.061 C 
ATOM     23  C   UNL     1       6.725  -1.618  23.354  0.00  0.00    -0.061 C 
BRANCH  23  24
ATOM     24  C   UNL     1       7.701  -0.599  23.098  0.00  0.00    +0.025 A 
ATOM     25  C   UNL     1       7.377   0.464  22.252  0.00  0.00    +0.017 A 
ATOM     26  C   UNL     1       8.298   1.490  22.014  0.00  0.00    +0.006 A 
ATOM     27  C   UNL     1       9.564   1.463  22.614  0.00  0.00    -0.033 A 
ATOM     28  C   UNL     1       9.882   0.390  23.465  0.00  0.00    +0.006 A 
ATOM     29  C   UNL     1       8.960  -0.637  23.702  0.00  0.00    +0.017 A 
BRANCH  27  30
ATOM     30  C   UNL     1      10.562   2.578  22.352  0.00  0.00    +0.119 C 
BRANCH  30  31
ATOM     31  N   UNL     1      10.977   3.270  23.579  0.00  0.00    -0.294 NA
ATOM     32  C   UNL     1       9.854   3.948  24.254  0.00  0.00    +0.113 C 
ATOM     33  C   UNL     1       9.498   5.330  23.685  0.00  0.00    +0.175 C 
ATOM     34  O   UNL     1      10.641   6.191  23.683  0.00  0.00    -0.377 OA
ATOM     35  C   UNL     1      11.681   5.623  22.881  0.00  0.00    +0.175 C 
ATOM     36  C   UNL     1      12.087   4.225  23.375  0.00  0.00    +0.113 C 
ENDBRANCH  30  31
ENDBRANCH  27  30
ENDBRANCH  23  24
ENDBRANCH   4  22
TORSDOF 10
ENDMDL
MODEL 6
REMARK VINA RESULT:      -4.8      1.863      2.601
REMARK  Name = 
REMARK  11 active torsions:
REMARK  status: ('A' for Active; 'I' for Inactive)
REMARK    1  A    between atoms: C_2  and  C_3
REMARK    2  A    between atoms: C_2  and  O_4
REMARK    3  A    between atoms: C_2  and  C_5
REMARK    4  A    between atoms: C_5  and  N_7
REMARK    5  A    between atoms: C_5  and  C_31
REMARK    6  A    between atoms: C_8  and  C_10
REMARK    7  A    between atoms: C_13  and  C_16
REMARK    8  A    between atoms: C_17  and  C_18
REMARK    9  A    between atoms: C_21  and  C_22
REMARK   10  A    between atoms: C_22  and  N_23
REMARK   11  A    between atoms: N_33  and  O_34
REMARK                            x       y       z     vdW  Elec       q    Type
REMARK                         _______ _______ _______ _____ _____    ______ ____
ROOT
ATOM      1  C   UNL     1       7.905   2.983  23.946  0.00  0.00    +0.037 A 
ATOM      2  C   UNL     1       6.762   2.579  23.246  0.00  0.00    +0.014 A 
ATOM      3  C   UNL     1       6.028   1.469  23.680  0.00  0.00    +0.017 A 
ATOM      4  C   UNL     1       6.428   0.767  24.821  0.00  0.00    +0.025 A 
ATOM      5  C   UNL     1       7.547   1.191  25.540  0.00  0.00    +0.017 A 
ATOM      6  C   UNL     1       8.286   2.297  25.106  0.00  0.00    +0.014 A 
ENDROOT
BRANCH   1   9
ATOM      7  N   UNL     1       9.774   4.526  24.192  0.00  0.00    -0.298 N 
ATOM      8  H   UNL     1      10.101   3.930  24.942  0.00  0.00    +0.150 HD
ATOM      9  C   UNL     1       8.673   4.157  23.452  0.00  0.00    +0.245 C 
ATOM     10  O   UNL     1       8.321   4.737  22.431  0.00  0.00    -0.270 OA
BRANCH   7  11
ATOM     11  C   UNL     1      10.637   5.641  23.788  0.00  0.00    +0.189 C 
BRANCH  11  12
ATOM     12  C   UNL     1      12.046   5.118  23.469  0.00  0.00    +0.258 C 
ATOM     13  N   UNL     1      12.965   6.096  23.135  0.00  0.00    -0.196 N 
ATOM     14  H   UNL     1      12.615   6.924  22.646  0.00  0.00    +0.182 HD
ATOM     15  O   UNL     1      12.336   3.922  23.428  0.00  0.00    -0.272 OA
BRANCH  13  16
ATOM     16  O   UNL     1      14.209   5.592  22.674  0.00  0.00    -0.295 OA
ATOM     17  H   UNL     1      14.185   5.810  21.715  0.00  0.00    +0.241 HD
ENDBRANCH  13  16
ENDBRANCH  11  12
BRANCH  11  18
ATOM     18  C   UNL     1      10.719   6.726  24.885  0.00  0.00    +0.141 C 
ATOM     19  C   UNL     1       9.494   6.713  25.796  0.00  0.00    +0.040 C 
BRANCH  18  20
ATOM     20  O   UNL     1      11.897   6.533  25.691  0.00  0.00    -0.390 OA
ATOM     21  H   UNL     1      11.592   6.432  26.614  0.00  0.00    +0.210 HD
ENDBRANCH  18  20
ENDBRANCH  11  18
ENDBRANCH   7  11
ENDBRANCH   1   9
BRANCH   4  22
ATOM     22  C   UNL     1       5.704  -0.399  25.237  0.00  0.00    -0.061 C 
ATOM     23  C   UNL     1       5.052  -1.355  25.560  0.00  0.00    -0.061 C 
BRANCH  23  24
ATOM     24  C   UNL     1       4.202  -2.447  25.936  0.00  0.00    +0.025 A 
ATOM     25  C   UNL     1       3.473  -3.118  24.951  0.00  0.00    +0.017 A 
ATOM     26  C   UNL     1       2.664  -4.209  25.284  0.00  0.00    +0.006 A 
ATOM     27  C   UNL     1       2.566  -4.642  26.614  0.00  0.00    -0.033 A 
ATOM     28  C   UNL     1       3.304  -3.962  27.598  0.00  0.00    +0.006 A 
ATOM     29  C   UNL     1       4.113  -2.868  27.264  0.00  0.00    +0.017 A 
BRANCH  27  30
ATOM     30  C   UNL     1       1.686  -5.828  26.973  0.00  0.00    +0.119 C 
BRANCH  30  31
ATOM     31  N   UNL     1       2.439  -7.083  27.079  0.00  0.00    -0.294 NA
ATOM     32  C   UNL     1       3.407  -7.258  25.979  0.00  0.00    +0.113 C 
ATOM     33  C   UNL     1       2.812  -7.812  24.676  0.00  0.00    +0.175 C 
ATOM     34  O   UNL     1       2.132  -9.049  24.911  0.00  0.00    -0.377 OA
ATOM     35  C   UNL     1       1.069  -8.854  25.849  0.00  0.00    +0.175 C 
ATOM     36  C   UNL     1       1.580  -8.282  27.183  0.00  0.00    +0.113 C 
ENDBRANCH  30  31
ENDBRANCH  27  30
ENDBRANCH  23  24
ENDBRANCH   4  22
TORSDOF 10
ENDMDL
MODEL 7
REMARK VINA RESULT:      -4.5      2.220     13.179
REMARK  Name = 
REMARK  11 active torsions:
REMARK  status: ('A' for Active; 'I' for Inactive)
REMARK    1  A    between atoms: C_2  and  C_3
REMARK    2  A    between atoms: C_2  and  O_4
REMARK    3  A    between atoms: C_2  and  C_5
REMARK    4  A    between atoms: C_5  and  N_7
REMARK    5  A    between atoms: C_5  and  C_31
REMARK    6  A    between atoms: C_8  and  C_10
REMARK    7  A    between atoms: C_13  and  C_16
REMARK    8  A    between atoms: C_17  and  C_18
REMARK    9  A    between atoms: C_21  and  C_22
REMARK   10  A    between atoms: C_22  and  N_23
REMARK   11  A    between atoms: N_33  and  O_34
REMARK                            x       y       z     vdW  Elec       q    Type
REMARK                         _______ _______ _______ _____ _____    ______ ____
ROOT
ATOM      1  C   UNL     1       4.050  -5.663  25.284  0.00  0.00    +0.037 A 
ATOM      2  C   UNL     1       3.456  -4.446  24.928  0.00  0.00    +0.014 A 
ATOM      3  C   UNL     1       4.255  -3.338  24.622  0.00  0.00    +0.017 A 
ATOM      4  C   UNL     1       5.648  -3.446  24.660  0.00  0.00    +0.025 A 
ATOM      5  C   UNL     1       6.241  -4.669  24.981  0.00  0.00    +0.017 A 
ATOM      6  C   UNL     1       5.446  -5.777  25.292  0.00  0.00    +0.014 A 
ENDROOT
BRANCH   1   9
ATOM      7  N   UNL     1       1.854  -6.716  25.243  0.00  0.00    -0.298 N 
ATOM      8  H   UNL     1       1.556  -5.953  24.648  0.00  0.00    +0.150 HD
ATOM      9  C   UNL     1       3.175  -6.818  25.619  0.00  0.00    +0.245 C 
ATOM     10  O   UNL     1       3.639  -7.797  26.193  0.00  0.00    -0.270 OA
BRANCH   7  11
ATOM     11  C   UNL     1       0.898  -7.803  25.479  0.00  0.00    +0.189 C 
BRANCH  11  12
ATOM     12  C   UNL     1       0.994  -8.272  26.939  0.00  0.00    +0.258 C 
ATOM     13  N   UNL     1       1.092  -9.642  27.103  0.00  0.00    -0.196 N 
ATOM     14  H   UNL     1       0.616 -10.232  26.418  0.00  0.00    +0.182 HD
ATOM     15  O   UNL     1       0.911  -7.513  27.905  0.00  0.00    -0.272 OA
BRANCH  13  16
ATOM     16  O   UNL     1       1.003 -10.073  28.452  0.00  0.00    -0.295 OA
ATOM     17  H   UNL     1       0.610  -9.291  28.900  0.00  0.00    +0.241 HD
ENDBRANCH  13  16
ENDBRANCH  11  12
BRANCH  11  18
ATOM     18  C   UNL     1       1.146  -8.997  24.530  0.00  0.00    +0.141 C 
ATOM     19  C   UNL     1       1.315  -8.551  23.081  0.00  0.00    +0.040 C 
BRANCH  18  20
ATOM     20  O   UNL     1       2.326  -9.718  24.932  0.00  0.00    -0.390 OA
ATOM     21  H   UNL     1       2.031 -10.608  25.207  0.00  0.00    +0.210 HD
ENDBRANCH  18  20
ENDBRANCH  11  18
ENDBRANCH   7  11
ENDBRANCH   1   9
BRANCH   4  22
ATOM     22  C   UNL     1       6.465  -2.298  24.394  0.00  0.00    -0.061 C 
ATOM     23  C   UNL     1       7.111  -1.305  24.198  0.00  0.00    -0.061 C 
BRANCH  23  24
ATOM     24  C   UNL     1       7.810  -0.072  23.975  0.00  0.00    +0.025 A 
ATOM     25  C   UNL     1       8.871   0.276  24.814  0.00  0.00    +0.017 A 
ATOM     26  C   UNL     1       9.593   1.454  24.598  0.00  0.00    +0.006 A 
ATOM     27  C   UNL     1       9.257   2.310  23.540  0.00  0.00    -0.033 A 
ATOM     28  C   UNL     1       8.189   1.951  22.699  0.00  0.00    +0.006 A 
ATOM     29  C   UNL     1       7.466   0.772  22.917  0.00  0.00    +0.017 A 
BRANCH  27  30
ATOM     30  C   UNL     1      10.042   3.589  23.307  0.00  0.00    +0.119 C 
BRANCH  30  31
ATOM     31  N   UNL     1       9.879   4.562  24.395  0.00  0.00    -0.294 NA
ATOM     32  C   UNL     1       8.542   4.499  25.015  0.00  0.00    +0.113 C 
ATOM     33  C   UNL     1       7.444   5.269  24.264  0.00  0.00    +0.175 C 
ATOM     34  O   UNL     1       7.817   6.637  24.076  0.00  0.00    -0.377 OA
ATOM     35  C   UNL     1       9.028   6.716  23.317  0.00  0.00    +0.175 C 
ATOM     36  C   UNL     1      10.180   5.954  23.995  0.00  0.00    +0.113 C 
ENDBRANCH  30  31
ENDBRANCH  27  30
ENDBRANCH  23  24
ENDBRANCH   4  22
TORSDOF 10
ENDMDL
MODEL 8
REMARK VINA RESULT:      -4.5      1.649      2.051
REMARK  Name = 
REMARK  11 active torsions:
REMARK  status: ('A' for Active; 'I' for Inactive)
REMARK    1  A    between atoms: C_2  and  C_3
REMARK    2  A    between atoms: C_2  and  O_4
REMARK    3  A    between atoms: C_2  and  C_5
REMARK    4  A    between atoms: C_5  and  N_7
REMARK    5  A    between atoms: C_5  and  C_31
REMARK    6  A    between atoms: C_8  and  C_10
REMARK    7  A    between atoms: C_13  and  C_16
REMARK    8  A    between atoms: C_17  and  C_18
REMARK    9  A    between atoms: C_21  and  C_22
REMARK   10  A    between atoms: C_22  and  N_23
REMARK   11  A    between atoms: N_33  and  O_34
REMARK                            x       y       z     vdW  Elec       q    Type
REMARK                         _______ _______ _______ _____ _____    ______ ____
ROOT
ATOM      1  C   UNL     1       7.974   2.644  24.107  0.00  0.00    +0.037 A 
ATOM      2  C   UNL     1       8.632   1.589  23.462  0.00  0.00    +0.014 A 
ATOM      3  C   UNL     1       8.039   0.322  23.404  0.00  0.00    +0.017 A 
ATOM      4  C   UNL     1       6.783   0.108  23.980  0.00  0.00    +0.025 A 
ATOM      5  C   UNL     1       6.111   1.169  24.592  0.00  0.00    +0.017 A 
ATOM      6  C   UNL     1       6.703   2.435  24.656  0.00  0.00    +0.014 A 
ENDROOT
BRANCH   1   9
ATOM      7  N   UNL     1       8.687   4.687  22.988  0.00  0.00    -0.298 N 
ATOM      8  H   UNL     1       8.169   4.364  22.181  0.00  0.00    +0.150 HD
ATOM      9  C   UNL     1       8.636   3.973  24.166  0.00  0.00    +0.245 C 
ATOM     10  O   UNL     1       9.096   4.387  25.225  0.00  0.00    -0.270 OA
BRANCH   7  11
ATOM     11  C   UNL     1       9.276   6.027  22.923  0.00  0.00    +0.189 C 
BRANCH  11  12
ATOM     12  C   UNL     1      10.626   6.038  23.656  0.00  0.00    +0.258 C 
ATOM     13  N   UNL     1      11.583   5.195  23.121  0.00  0.00    -0.196 N 
ATOM     14  H   UNL     1      11.258   4.330  22.685  0.00  0.00    +0.182 HD
ATOM     15  O   UNL     1      10.837   6.676  24.688  0.00  0.00    -0.272 OA
BRANCH  13  16
ATOM     16  O   UNL     1      12.761   5.081  23.905  0.00  0.00    -0.295 OA
ATOM     17  H   UNL     1      12.428   4.662  24.730  0.00  0.00    +0.241 HD
ENDBRANCH  13  16
ENDBRANCH  11  12
BRANCH  11  18
ATOM     18  C   UNL     1       8.341   7.093  23.536  0.00  0.00    +0.141 C 
ATOM     19  C   UNL     1       6.934   7.026  22.949  0.00  0.00    +0.040 C 
BRANCH  18  20
ATOM     20  O   UNL     1       8.255   6.920  24.964  0.00  0.00    -0.390 OA
ATOM     21  H   UNL     1       7.432   7.362  25.250  0.00  0.00    +0.210 HD
ENDBRANCH  18  20
ENDBRANCH  11  18
ENDBRANCH   7  11
ENDBRANCH   1   9
BRANCH   4  22
ATOM     22  C   UNL     1       6.198  -1.201  23.962  0.00  0.00    -0.061 C 
ATOM     23  C   UNL     1       5.731  -2.306  23.998  0.00  0.00    -0.061 C 
BRANCH  23  24
ATOM     24  C   UNL     1       5.234  -3.648  24.100  0.00  0.00    +0.025 A 
ATOM     25  C   UNL     1       5.179  -4.265  25.351  0.00  0.00    +0.017 A 
ATOM     26  C   UNL     1       4.666  -5.560  25.485  0.00  0.00    +0.006 A 
ATOM     27  C   UNL     1       4.206  -6.261  24.361  0.00  0.00    -0.033 A 
ATOM     28  C   UNL     1       4.264  -5.632  23.106  0.00  0.00    +0.006 A 
ATOM     29  C   UNL     1       4.779  -4.336  22.974  0.00  0.00    +0.017 A 
BRANCH  27  30
ATOM     30  C   UNL     1       3.649  -7.668  24.509  0.00  0.00    +0.119 C 
BRANCH  30  31
ATOM     31  N   UNL     1       2.199  -7.731  24.291  0.00  0.00    -0.294 NA
ATOM     32  C   UNL     1       1.495  -6.546  24.818  0.00  0.00    +0.113 C 
ATOM     33  C   UNL     1       1.194  -6.590  26.324  0.00  0.00    +0.175 C 
ATOM     34  O   UNL     1       0.460  -7.770  26.664  0.00  0.00    -0.377 OA
ATOM     35  C   UNL     1       1.215  -8.935  26.317  0.00  0.00    +0.175 C 
ATOM     36  C   UNL     1       1.573  -8.961  24.822  0.00  0.00    +0.113 C 
ENDBRANCH  30  31
ENDBRANCH  27  30
ENDBRANCH  23  24
ENDBRANCH   4  22
TORSDOF 10
ENDMDL
MODEL 9
REMARK VINA RESULT:      -4.0      2.484     13.453
REMARK  Name = 
REMARK  11 active torsions:
REMARK  status: ('A' for Active; 'I' for Inactive)
REMARK    1  A    between atoms: C_2  and  C_3
REMARK    2  A    between atoms: C_2  and  O_4
REMARK    3  A    between atoms: C_2  and  C_5
REMARK    4  A    between atoms: C_5  and  N_7
REMARK    5  A    between atoms: C_5  and  C_31
REMARK    6  A    between atoms: C_8  and  C_10
REMARK    7  A    between atoms: C_13  and  C_16
REMARK    8  A    between atoms: C_17  and  C_18
REMARK    9  A    between atoms: C_21  and  C_22
REMARK   10  A    between atoms: C_22  and  N_23
REMARK   11  A    between atoms: N_33  and  O_34
REMARK                            x       y       z     vdW  Elec       q    Type
REMARK                         _______ _______ _______ _____ _____    ______ ____
ROOT
ATOM      1  C   UNL     1       2.295  -5.058  25.179  0.00  0.00    +0.037 A 
ATOM      2  C   UNL     1       3.243  -4.855  24.169  0.00  0.00    +0.014 A 
ATOM      3  C   UNL     1       4.099  -3.749  24.222  0.00  0.00    +0.017 A 
ATOM      4  C   UNL     1       4.018  -2.849  25.288  0.00  0.00    +0.025 A 
ATOM      5  C   UNL     1       3.097  -3.070  26.314  0.00  0.00    +0.017 A 
ATOM      6  C   UNL     1       2.236  -4.173  26.263  0.00  0.00    +0.014 A 
ENDROOT
BRANCH   1   9
ATOM      7  N   UNL     1       1.672  -7.292  25.923  0.00  0.00    -0.298 N 
ATOM      8  H   UNL     1       2.372  -7.191  26.646  0.00  0.00    +0.150 HD
ATOM      9  C   UNL     1       1.389  -6.233  25.088  0.00  0.00    +0.245 C 
ATOM     10  O   UNL     1       0.445  -6.225  24.306  0.00  0.00    -0.270 OA
BRANCH   7  11
ATOM     11  C   UNL     1       0.831  -8.493  25.958  0.00  0.00    +0.189 C 
BRANCH  11  12
ATOM     12  C   UNL     1       0.908  -9.141  27.348  0.00  0.00    +0.258 C 
ATOM     13  N   UNL     1       1.553  -8.382  28.307  0.00  0.00    -0.196 N 
ATOM     14  H   UNL     1       2.316  -7.777  27.994  0.00  0.00    +0.182 HD
ATOM     15  O   UNL     1       0.506 -10.279  27.593  0.00  0.00    -0.272 OA
BRANCH  13  16
ATOM     16  O   UNL     1       1.772  -9.059  29.535  0.00  0.00    -0.295 OA
ATOM     17  H   UNL     1       2.600  -9.560  29.357  0.00  0.00    +0.241 HD
ENDBRANCH  13  16
ENDBRANCH  11  12
BRANCH  11  18
ATOM     18  C   UNL     1       1.253  -9.517  24.881  0.00  0.00    +0.141 C 
ATOM     19  C   UNL     1       1.841  -8.840  23.646  0.00  0.00    +0.040 C 
BRANCH  18  20
ATOM     20  O   UNL     1       2.230 -10.431  25.416  0.00  0.00    -0.390 OA
ATOM     21  H   UNL     1       3.107 -10.058  25.204  0.00  0.00    +0.210 HD
ENDBRANCH  18  20
ENDBRANCH  11  18
ENDBRANCH   7  11
ENDBRANCH   1   9
BRANCH   4  22
ATOM     22  C   UNL     1       4.862  -1.690  25.316  0.00  0.00    -0.061 C 
ATOM     23  C   UNL     1       5.523  -0.688  25.338  0.00  0.00    -0.061 C 
BRANCH  23  24
ATOM     24  C   UNL     1       6.243   0.552  25.330  0.00  0.00    +0.025 A 
ATOM     25  C   UNL     1       7.440   0.654  26.043  0.00  0.00    +0.017 A 
ATOM     26  C   UNL     1       8.182   1.840  26.023  0.00  0.00    +0.006 A 
ATOM     27  C   UNL     1       7.730   2.949  25.293  0.00  0.00    -0.033 A 
ATOM     28  C   UNL     1       6.526   2.837  24.577  0.00  0.00    +0.006 A 
ATOM     29  C   UNL     1       5.784   1.650  24.599  0.00  0.00    +0.017 A 
BRANCH  27  30
ATOM     30  C   UNL     1       8.538   4.236  25.273  0.00  0.00    +0.119 C 
BRANCH  30  31
ATOM     31  N   UNL     1       8.859   4.685  23.913  0.00  0.00    -0.294 NA
ATOM     32  C   UNL     1       9.715   3.727  23.187  0.00  0.00    +0.113 C 
ATOM     33  C   UNL     1      11.216   3.838  23.497  0.00  0.00    +0.175 C 
ATOM     34  O   UNL     1      11.688   5.169  23.264  0.00  0.00    -0.377 OA
ATOM     35  C   UNL     1      10.982   6.093  24.098  0.00  0.00    +0.175 C 
ATOM     36  C   UNL     1       9.464   6.034  23.862  0.00  0.00    +0.113 C 
ENDBRANCH  30  31
ENDBRANCH  27  30
ENDBRANCH  23  24
ENDBRANCH   4  22
TORSDOF 10
ENDMDL
