MODEL 1
REMARK VINA RESULT:      -5.3      0.000      0.000
REMARK  Name = 
REMARK  37 active torsions:
REMARK  status: ('A' for Active; 'I' for Inactive)
REMARK    1  A    between atoms: C_1  and  C_2
REMARK    2  A    between atoms: C_2  and  C_3
REMARK    3  A    between atoms: C_2  and  C_4
REMARK    4  A    between atoms: C_4  and  C_5
REMARK    5  A    between atoms: C_5  and  N_6
REMARK    6  A    between atoms: C_5  and  C_72
REMARK    7  A    between atoms: C_7  and  C_9
REMARK    8  A    between atoms: C_9  and  C_10
REMARK    9  A    between atoms: C_9  and  N_21
REMARK   10  A    between atoms: C_10  and  C_11
REMARK   11  A    between atoms: C_22  and  C_24
REMARK   12  A    between atoms: C_24  and  C_25
REMARK   13  A    between atoms: C_24  and  N_33
REMARK   14  A    between atoms: C_25  and  C_26
REMARK   15  A    between atoms: C_29  and  O_30
REMARK   16  A    between atoms: C_34  and  CA_36
REMARK   17  A    between atoms: CA_36  and  C_37
REMARK   18  A    between atoms: CA_36  and  N_39
REMARK   19  A    between atoms: C_37  and  O_38
REMARK   20  A    between atoms: C_40  and  CA_42
REMARK   21  A    between atoms: CA_42  and  CB_43
REMARK   22  A    between atoms: CA_42  and  N_53
REMARK   23  A    between atoms: CB_43  and  CG_44
REMARK   24  A    between atoms: C_54  and  CA_56
REMARK   25  A    between atoms: CA_56  and  CB_57
REMARK   26  A    between atoms: CA_56  and  N_63
REMARK   27  A    between atoms: CB_57  and  CG_58
REMARK   28  A    between atoms: C_64  and  CA_66
REMARK   29  A    between atoms: N_74  and  C_75
REMARK   30  A    between atoms: C_75  and  C_76
REMARK   31  A    between atoms: C_75  and  C_83
REMARK   32  A    between atoms: C_76  and  C_77
REMARK   33  A    between atoms: C_77  and  C_78
REMARK   34  A    between atoms: C_78  and  N_79
REMARK   35  A    between atoms: C_89  and  C_90
REMARK   36  A    between atoms: N_92  and  C_93
REMARK   37  A    between atoms: C_93  and  C_94
REMARK                            x       y       z     vdW  Elec       q    Type
REMARK                         _______ _______ _______ _____ _____    ______ ____
ROOT
ATOM      1  N   UNL     1       7.297  -0.422  24.208  0.00  0.00    -0.302 N 
ATOM      2  H   UNL     1       6.819  -0.919  23.459  0.00  0.00    +0.150 HD
ATOM      3  C   UNL     1       8.631  -0.722  24.435  0.00  0.00    +0.234 C 
ATOM      4  O   UNL     1       9.321  -0.061  25.208  0.00  0.00    -0.274 OA
ENDROOT
BRANCH   3   5
ATOM      5  C   UNL     1       9.205  -1.834  23.516  0.00  0.00    +0.163 C 
BRANCH   5   6
ATOM      6  N   UNL     1       8.116  -2.435  22.740  0.00  0.00    -0.302 N 
ATOM      7  H   UNL     1       8.322  -2.840  21.832  0.00  0.00    +0.150 HD
ATOM      8  C   UNL     1       6.865  -2.671  23.268  0.00  0.00    +0.236 C 
ATOM      9  O   UNL     1       6.571  -2.350  24.417  0.00  0.00    -0.274 OA
BRANCH   8  10
ATOM     10  CA  UNL     1       5.844  -3.235  22.266  0.00  0.00    +0.184 C 
BRANCH  10  11
ATOM     11  N   UNL     1       4.679  -3.777  22.982  0.00  0.00    -0.301 N 
ATOM     12  H   UNL     1       3.922  -3.118  23.109  0.00  0.00    +0.150 HD
ATOM     13  C   UNL     1       4.781  -4.878  23.802  0.00  0.00    +0.234 C 
ATOM     14  O   UNL     1       5.761  -5.622  23.732  0.00  0.00    -0.274 OA
BRANCH  13  15
ATOM     15  CA  UNL     1       3.571  -5.243  24.722  0.00  0.00    +0.163 C 
BRANCH  15  16
ATOM     16  N   UNL     1       3.415  -4.155  25.710  0.00  0.00    -0.302 N 
ATOM     17  H   UNL     1       4.266  -3.868  26.188  0.00  0.00    +0.150 HD
ATOM     18  C   UNL     1       2.398  -3.217  25.640  0.00  0.00    +0.234 C 
ATOM     19  O   UNL     1       1.470  -3.296  24.837  0.00  0.00    -0.274 OA
BRANCH  18  20
ATOM     20  CA  UNL     1       2.396  -2.166  26.757  0.00  0.00    +0.165 C 
BRANCH  20  21
ATOM     21  N   UNL     1       2.819  -2.831  28.008  0.00  0.00    -0.302 N 
ATOM     22  H   UNL     1       3.492  -2.323  28.569  0.00  0.00    +0.150 HD
ATOM     23  C   UNL     1       2.117  -3.864  28.583  0.00  0.00    +0.234 C 
ATOM     24  O   UNL     1       1.079  -4.302  28.095  0.00  0.00    -0.274 OA
BRANCH  23  25
ATOM     25  CA  UNL     1       2.753  -4.508  29.827  0.00  0.00    +0.159 C 
ATOM     26  N   UNL     1       4.163  -4.200  29.880  0.00  0.00    -0.304 N 
ATOM     27  H   UNL     1       4.569  -3.328  29.551  0.00  0.00    +0.149 HD
ATOM     28  C   UNL     1       4.943  -5.298  30.170  0.00  0.00    +0.214 C 
ATOM     29  O   UNL     1       6.165  -5.309  30.199  0.00  0.00    -0.276 OA
ATOM     30  C   UNL     1       4.027  -6.447  30.481  0.00  0.00    +0.098 C 
ATOM     31  C   UNL     1       2.731  -6.030  29.797  0.00  0.00    +0.041 C 
ENDBRANCH  23  25
ENDBRANCH  20  21
BRANCH  20  32
ATOM     32  CB  UNL     1       1.022  -1.524  26.978  0.00  0.00    +0.088 C 
BRANCH  32  33
ATOM     33  CG  UNL     1       1.016  -0.320  27.853  0.00  0.00    +0.061 A 
ATOM     34  ND1 UNL     1       1.245   0.925  27.327  0.00  0.00    -0.241 NA
ATOM     35  CE1 UNL     1       1.170   1.764  28.334  0.00  0.00    +0.196 A 
ATOM     36  NE2 UNL     1       0.980   1.106  29.511  0.00  0.00    -0.351 N 
ATOM     37  HE2 UNL     1       0.924   1.532  30.425  0.00  0.00    +0.166 HD
ATOM     38  CD2 UNL     1       0.878  -0.225  29.221  0.00  0.00    +0.107 A 
ENDBRANCH  32  33
ENDBRANCH  20  32
ENDBRANCH  18  20
ENDBRANCH  15  16
BRANCH  15  39
ATOM     39  CB  UNL     1       3.637  -6.625  25.394  0.00  0.00    +0.069 C 
BRANCH  39  40
ATOM     40  CG  UNL     1       2.636  -7.638  24.927  0.00  0.00    -0.020 A 
ATOM     41  CD2 UNL     1       1.989  -7.750  23.654  0.00  0.00    +0.003 A 
ATOM     42  CE2 UNL     1       1.206  -8.907  23.694  0.00  0.00    +0.047 A 
ATOM     43  CZ2 UNL     1       0.447  -9.352  22.606  0.00  0.00    +0.026 A 
ATOM     44  CH2 UNL     1       0.443  -8.566  21.453  0.00  0.00    +0.002 A 
ATOM     45  CZ3 UNL     1       1.193  -7.395  21.385  0.00  0.00    +0.001 A 
ATOM     46  NE1 UNL     1       1.329  -9.442  24.954  0.00  0.00    -0.360 N 
ATOM     47  HE1 UNL     1       0.858 -10.278  25.271  0.00  0.00    +0.165 HD
ATOM     48  CE3 UNL     1       1.980  -6.984  22.468  0.00  0.00    +0.010 A 
ATOM     49  CD1 UNL     1       2.119  -8.641  25.726  0.00  0.00    +0.087 A 
ENDBRANCH  39  40
ENDBRANCH  15  39
ENDBRANCH  13  15
ENDBRANCH  10  11
BRANCH  10  50
ATOM     50  C   UNL     1       6.508  -4.338  21.422  0.00  0.00    +0.187 C 
BRANCH  50  51
ATOM     51  O   UNL     1       5.549  -5.323  21.015  0.00  0.00    -0.393 OA
ATOM     52  H   UNL     1       5.044  -5.557  21.819  0.00  0.00    +0.209 HD
ENDBRANCH  50  51
ENDBRANCH  10  50
ENDBRANCH   8  10
ENDBRANCH   5   6
BRANCH   5  53
ATOM     53  C   UNL     1      10.028  -2.912  24.266  0.00  0.00    +0.067 C 
BRANCH  53  54
ATOM     54  C   UNL     1       9.158  -3.760  25.187  0.00  0.00    -0.045 A 
ATOM     55  C   UNL     1       8.501  -3.196  26.292  0.00  0.00    +0.007 A 
ATOM     56  C   UNL     1       7.562  -3.943  27.013  0.00  0.00    +0.045 A 
ATOM     57  C   UNL     1       7.287  -5.253  26.641  0.00  0.00    +0.117 A 
ATOM     58  C   UNL     1       7.997  -5.860  25.614  0.00  0.00    +0.045 A 
ATOM     59  C   UNL     1       8.947  -5.120  24.907  0.00  0.00    +0.007 A 
BRANCH  57  60
ATOM     60  O   UNL     1       6.291  -5.913  27.300  0.00  0.00    -0.507 OA
ATOM     61  H   UNL     1       5.593  -6.134  26.660  0.00  0.00    +0.292 HD
ENDBRANCH  57  60
ENDBRANCH  53  54
ENDBRANCH   5  53
ENDBRANCH   3   5
BRANCH   1  62
ATOM     62  C   UNL     1       6.535   0.602  24.966  0.00  0.00    +0.163 C 
BRANCH  62  65
ATOM     63  N   UNL     1       6.645   2.012  27.019  0.00  0.00    -0.302 N 
ATOM     64  H   UNL     1       6.195   2.716  26.442  0.00  0.00    +0.150 HD
ATOM     65  C   UNL     1       7.088   0.871  26.397  0.00  0.00    +0.234 C 
ATOM     66  O   UNL     1       7.977   0.195  26.917  0.00  0.00    -0.274 OA
BRANCH  63  67
ATOM     67  C   UNL     1       7.129   2.402  28.342  0.00  0.00    +0.159 C 
BRANCH  67  68
ATOM     68  C   UNL     1       6.760   3.887  28.627  0.00  0.00    +0.234 C 
ATOM     69  N   UNL     1       6.205   4.615  27.591  0.00  0.00    -0.302 N 
ATOM     70  H   UNL     1       5.952   4.141  26.724  0.00  0.00    +0.150 HD
ATOM     71  O   UNL     1       6.893   4.385  29.749  0.00  0.00    -0.274 OA
BRANCH  69  72
ATOM     72  C   UNL     1       5.843   6.043  27.796  0.00  0.00    +0.159 C 
BRANCH  72  73
ATOM     73  C   UNL     1       4.419   6.357  27.264  0.00  0.00    +0.237 C 
ATOM     74  N   UNL     1       3.350   6.090  28.099  0.00  0.00    -0.288 N 
ATOM     75  C   UNL     1       1.930   6.191  27.680  0.00  0.00    +0.162 C 
ATOM     76  C   UNL     1       1.135   5.954  28.980  0.00  0.00    +0.033 C 
ATOM     77  C   UNL     1       2.163   5.358  29.926  0.00  0.00    +0.021 C 
ATOM     78  C   UNL     1       3.423   6.083  29.549  0.00  0.00    +0.109 C 
ATOM     79  O   UNL     1       4.219   6.914  26.175  0.00  0.00    -0.274 OA
BRANCH  75  80
ATOM     80  C   UNL     1       1.535   5.182  26.565  0.00  0.00    +0.234 C 
ATOM     81  N   UNL     1       2.550   4.328  26.214  0.00  0.00    -0.305 N 
ATOM     82  H   UNL     1       3.474   4.607  26.547  0.00  0.00    +0.149 HD
ATOM     83  O   UNL     1       0.451   5.195  25.989  0.00  0.00    -0.274 OA
BRANCH  81  84
ATOM     84  C   UNL     1       2.564   3.375  25.116  0.00  0.00    +0.199 C 
BRANCH  84  85
ATOM     85  C   UNL     1       2.424   3.897  23.678  0.00  0.00    +0.228 C 
ATOM     86  O   UNL     1       3.383   3.982  22.917  0.00  0.00    -0.274 OA
ATOM     87  N   UNL     1       1.228   4.433  23.323  0.00  0.00    -0.328 N 
ATOM     88  H   UNL     1       1.107   4.816  22.398  0.00  0.00    +0.145 HD
ATOM     89  H   UNL     1       0.417   4.409  23.941  0.00  0.00    +0.145 HD
ENDBRANCH  84  85
ENDBRANCH  81  84
ENDBRANCH  75  80
ENDBRANCH  72  73
BRANCH  72  90
ATOM     90  C   UNL     1       6.962   6.897  27.171  0.00  0.00    +0.035 C 
BRANCH  90  91
ATOM     91  C   UNL     1       7.051   6.987  25.639  0.00  0.00    +0.039 C 
BRANCH  91  92
ATOM     92  C   UNL     1       5.685   6.617  25.050  0.00  0.00    +0.196 C 
BRANCH  92  93
ATOM     93  N   UNL     1       5.778   5.569  24.050  0.00  0.00    -0.276 N 
ATOM     94  H   UNL     1       5.062   4.856  24.123  0.00  0.00    +0.258 HD
ATOM     95  C   UNL     1       6.118   5.823  22.766  0.00  0.00    +0.376 C 
ATOM     96  N   UNL     1       6.565   6.910  22.254  0.00  0.00    -0.130 NA
ATOM     97  H   UNL     1       6.636   7.626  22.977  0.00  0.00    +0.306 HD
ATOM     98  N   UNL     1       5.969   4.748  21.972  0.00  0.00    -0.289 N 
ATOM     99  H   UNL     1       6.358   4.969  21.059  0.00  0.00    +0.255 HD
ATOM    100  H   UNL     1       6.431   3.930  22.348  0.00  0.00    +0.255 HD
ENDBRANCH  92  93
ENDBRANCH  91  92
ENDBRANCH  90  91
ENDBRANCH  72  90
ENDBRANCH  69  72
ENDBRANCH  67  68
BRANCH  67 101
ATOM    101  C   UNL     1       6.471   1.540  29.436  0.00  0.00    +0.034 C 
BRANCH 101 103
ATOM    102  C   UNL     1       4.870  -0.409  28.973  0.00  0.00    +0.007 C 
ATOM    103  C   UNL     1       5.015   1.092  29.210  0.00  0.00    -0.015 C 
ATOM    104  C   UNL     1       4.179   1.503  30.430  0.00  0.00    +0.007 C 
ENDBRANCH 101 103
ENDBRANCH  67 101
ENDBRANCH  63  67
ENDBRANCH  62  65
BRANCH  62 105
ATOM    105  C   UNL     1       6.469   1.925  24.160  0.00  0.00    +0.067 C 
BRANCH 105 106
ATOM    106  C   UNL     1       7.781   2.622  23.854  0.00  0.00    -0.045 A 
ATOM    107  C   UNL     1       8.578   2.145  22.821  0.00  0.00    +0.004 A 
ATOM    108  C   UNL     1       9.852   2.644  22.572  0.00  0.00    +0.009 A 
ATOM    109  C   UNL     1      10.340   3.716  23.304  0.00  0.00    -0.018 A 
ATOM    110  C   UNL     1       9.517   4.310  24.284  0.00  0.00    -0.018 A 
ATOM    111  C   UNL     1       9.995   5.470  24.918  0.00  0.00    +0.008 A 
ATOM    112  C   UNL     1      11.250   6.004  24.600  0.00  0.00    +0.001 A 
ATOM    113  C   UNL     1      12.081   5.356  23.691  0.00  0.00    +0.001 A 
ATOM    114  C   UNL     1      11.626   4.212  23.049  0.00  0.00    +0.008 A 
ATOM    115  C   UNL     1       8.258   3.723  24.577  0.00  0.00    +0.012 A 
ENDBRANCH 105 106
ENDBRANCH  62 105
ENDBRANCH   1  62
TORSDOF 35
ENDMDL
MODEL 2
REMARK VINA RESULT:      -5.0      2.423      9.679
REMARK  Name = 
REMARK  37 active torsions:
REMARK  status: ('A' for Active; 'I' for Inactive)
REMARK    1  A    between atoms: C_1  and  C_2
REMARK    2  A    between atoms: C_2  and  C_3
REMARK    3  A    between atoms: C_2  and  C_4
REMARK    4  A    between atoms: C_4  and  C_5
REMARK    5  A    between atoms: C_5  and  N_6
REMARK    6  A    between atoms: C_5  and  C_72
REMARK    7  A    between atoms: C_7  and  C_9
REMARK    8  A    between atoms: C_9  and  C_10
REMARK    9  A    between atoms: C_9  and  N_21
REMARK   10  A    between atoms: C_10  and  C_11
REMARK   11  A    between atoms: C_22  and  C_24
REMARK   12  A    between atoms: C_24  and  C_25
REMARK   13  A    between atoms: C_24  and  N_33
REMARK   14  A    between atoms: C_25  and  C_26
REMARK   15  A    between atoms: C_29  and  O_30
REMARK   16  A    between atoms: C_34  and  CA_36
REMARK   17  A    between atoms: CA_36  and  C_37
REMARK   18  A    between atoms: CA_36  and  N_39
REMARK   19  A    between atoms: C_37  and  O_38
REMARK   20  A    between atoms: C_40  and  CA_42
REMARK   21  A    between atoms: CA_42  and  CB_43
REMARK   22  A    between atoms: CA_42  and  N_53
REMARK   23  A    between atoms: CB_43  and  CG_44
REMARK   24  A    between atoms: C_54  and  CA_56
REMARK   25  A    between atoms: CA_56  and  CB_57
REMARK   26  A    between atoms: CA_56  and  N_63
REMARK   27  A    between atoms: CB_57  and  CG_58
REMARK   28  A    between atoms: C_64  and  CA_66
REMARK   29  A    between atoms: N_74  and  C_75
REMARK   30  A    between atoms: C_75  and  C_76
REMARK   31  A    between atoms: C_75  and  C_83
REMARK   32  A    between atoms: C_76  and  C_77
REMARK   33  A    between atoms: C_77  and  C_78
REMARK   34  A    between atoms: C_78  and  N_79
REMARK   35  A    between atoms: C_89  and  C_90
REMARK   36  A    between atoms: N_92  and  C_93
REMARK   37  A    between atoms: C_93  and  C_94
REMARK                            x       y       z     vdW  Elec       q    Type
REMARK                         _______ _______ _______ _____ _____    ______ ____
ROOT
ATOM      1  N   UNL     1       5.887  -2.975  26.357  0.00  0.00    -0.302 N 
ATOM      2  H   UNL     1       5.110  -2.369  26.099  0.00  0.00    +0.150 HD
ATOM      3  C   UNL     1       6.892  -3.172  25.423  0.00  0.00    +0.234 C 
ATOM      4  O   UNL     1       7.935  -3.755  25.707  0.00  0.00    -0.274 OA
ENDROOT
BRANCH   3   5
ATOM      5  C   UNL     1       6.658  -2.452  24.067  0.00  0.00    +0.163 C 
BRANCH   5   6
ATOM      6  N   UNL     1       5.659  -1.394  24.243  0.00  0.00    -0.302 N 
ATOM      7  H   UNL     1       4.828  -1.585  24.794  0.00  0.00    +0.150 HD
ATOM      8  C   UNL     1       5.886  -0.085  23.876  0.00  0.00    +0.236 C 
ATOM      9  O   UNL     1       6.932   0.269  23.338  0.00  0.00    -0.274 OA
BRANCH   8  10
ATOM     10  CA  UNL     1       4.683   0.852  24.071  0.00  0.00    +0.184 C 
BRANCH  10  11
ATOM     11  N   UNL     1       5.097   2.252  23.892  0.00  0.00    -0.301 N 
ATOM     12  H   UNL     1       5.748   2.589  24.589  0.00  0.00    +0.150 HD
ATOM     13  C   UNL     1       4.339   3.144  23.167  0.00  0.00    +0.234 C 
ATOM     14  O   UNL     1       3.462   2.743  22.401  0.00  0.00    -0.274 OA
BRANCH  13  15
ATOM     15  CA  UNL     1       4.704   4.663  23.230  0.00  0.00    +0.163 C 
BRANCH  15  16
ATOM     16  N   UNL     1       3.466   5.432  22.989  0.00  0.00    -0.302 N 
ATOM     17  H   UNL     1       3.140   5.999  23.769  0.00  0.00    +0.150 HD
ATOM     18  C   UNL     1       3.061   5.828  21.725  0.00  0.00    +0.234 C 
ATOM     19  O   UNL     1       3.621   5.453  20.696  0.00  0.00    -0.274 OA
BRANCH  18  20
ATOM     20  CA  UNL     1       1.746   6.615  21.673  0.00  0.00    +0.165 C 
BRANCH  20  21
ATOM     21  N   UNL     1       1.259   6.780  23.059  0.00  0.00    -0.302 N 
ATOM     22  H   UNL     1       1.004   7.723  23.326  0.00  0.00    +0.150 HD
ATOM     23  C   UNL     1       0.822   5.729  23.831  0.00  0.00    +0.234 C 
ATOM     24  O   UNL     1       0.800   4.575  23.414  0.00  0.00    -0.274 OA
BRANCH  23  25
ATOM     25  CA  UNL     1       0.446   6.064  25.285  0.00  0.00    +0.159 C 
ATOM     26  N   UNL     1       1.434   6.946  25.862  0.00  0.00    -0.304 N 
ATOM     27  H   UNL     1       1.940   7.657  25.339  0.00  0.00    +0.149 HD
ATOM     28  C   UNL     1       1.824   6.564  27.127  0.00  0.00    +0.214 C 
ATOM     29  O   UNL     1       2.695   7.104  27.792  0.00  0.00    -0.276 OA
ATOM     30  C   UNL     1       0.963   5.407  27.545  0.00  0.00    +0.098 C 
ATOM     31  C   UNL     1       0.478   4.856  26.210  0.00  0.00    +0.041 C 
ENDBRANCH  23  25
ENDBRANCH  20  21
BRANCH  20  32
ATOM     32  CB  UNL     1       0.658   5.919  20.846  0.00  0.00    +0.088 C 
BRANCH  32  33
ATOM     33  CG  UNL     1       1.061   5.529  19.468  0.00  0.00    +0.061 A 
ATOM     34  ND1 UNL     1       1.405   6.483  18.546  0.00  0.00    -0.241 NA
ATOM     35  CE1 UNL     1       1.711   5.832  17.447  0.00  0.00    +0.196 A 
ATOM     36  NE2 UNL     1       1.503   4.494  17.593  0.00  0.00    -0.351 N 
ATOM     37  HE2 UNL     1       1.635   3.793  16.877  0.00  0.00    +0.166 HD
ATOM     38  CD2 UNL     1       1.090   4.284  18.878  0.00  0.00    +0.107 A 
ENDBRANCH  32  33
ENDBRANCH  20  32
ENDBRANCH  18  20
ENDBRANCH  15  16
BRANCH  15  39
ATOM     39  CB  UNL     1       5.850   5.111  22.307  0.00  0.00    +0.069 C 
BRANCH  39  40
ATOM     40  CG  UNL     1       7.189   4.489  22.560  0.00  0.00    -0.020 A 
ATOM     41  CD2 UNL     1       8.328   5.036  23.236  0.00  0.00    +0.003 A 
ATOM     42  CE2 UNL     1       9.299   4.033  23.278  0.00  0.00    +0.047 A 
ATOM     43  CZ2 UNL     1      10.544   4.204  23.892  0.00  0.00    +0.026 A 
ATOM     44  CH2 UNL     1      10.833   5.455  24.439  0.00  0.00    +0.002 A 
ATOM     45  CZ3 UNL     1       9.898   6.484  24.396  0.00  0.00    +0.001 A 
ATOM     46  NE1 UNL     1       8.795   2.945  22.607  0.00  0.00    -0.360 N 
ATOM     47  HE1 UNL     1       9.290   2.076  22.468  0.00  0.00    +0.165 HD
ATOM     48  CE3 UNL     1       8.640   6.286  23.813  0.00  0.00    +0.010 A 
ATOM     49  CD1 UNL     1       7.561   3.239  22.102  0.00  0.00    +0.087 A 
ENDBRANCH  39  40
ENDBRANCH  15  39
ENDBRANCH  13  15
ENDBRANCH  10  11
BRANCH  10  50
ATOM     50  C   UNL     1       4.096   0.649  25.480  0.00  0.00    +0.187 C 
BRANCH  50  51
ATOM     51  O   UNL     1       5.134   0.466  26.451  0.00  0.00    -0.393 OA
ATOM     52  H   UNL     1       5.699  -0.256  26.109  0.00  0.00    +0.209 HD
ENDBRANCH  50  51
ENDBRANCH  10  50
ENDBRANCH   8  10
ENDBRANCH   5   6
BRANCH   5  53
ATOM     53  C   UNL     1       6.277  -3.403  22.904  0.00  0.00    +0.067 C 
BRANCH  53  54
ATOM     54  C   UNL     1       5.297  -4.485  23.345  0.00  0.00    -0.045 A 
ATOM     55  C   UNL     1       3.915  -4.336  23.155  0.00  0.00    +0.007 A 
ATOM     56  C   UNL     1       3.049  -5.411  23.391  0.00  0.00    +0.045 A 
ATOM     57  C   UNL     1       3.559  -6.627  23.828  0.00  0.00    +0.117 A 
ATOM     58  C   UNL     1       4.910  -6.764  24.117  0.00  0.00    +0.045 A 
ATOM     59  C   UNL     1       5.770  -5.686  23.898  0.00  0.00    +0.007 A 
BRANCH  57  60
ATOM     60  O   UNL     1       2.700  -7.680  23.945  0.00  0.00    -0.507 OA
ATOM     61  H   UNL     1       2.800  -8.248  23.163  0.00  0.00    +0.292 HD
ENDBRANCH  57  60
ENDBRANCH  53  54
ENDBRANCH   5  53
ENDBRANCH   3   5
BRANCH   1  62
ATOM     62  C   UNL     1       5.891  -3.565  27.719  0.00  0.00    +0.163 C 
BRANCH  62  65
ATOM     63  N   UNL     1       3.616  -2.584  27.998  0.00  0.00    -0.302 N 
ATOM     64  H   UNL     1       3.689  -2.380  27.006  0.00  0.00    +0.150 HD
ATOM     65  C   UNL     1       4.742  -3.048  28.634  0.00  0.00    +0.234 C 
ATOM     66  O   UNL     1       4.853  -2.918  29.854  0.00  0.00    -0.274 OA
BRANCH  63  67
ATOM     67  C   UNL     1       2.489  -2.025  28.743  0.00  0.00    +0.159 C 
BRANCH  67  68
ATOM     68  C   UNL     1       2.801  -0.558  29.159  0.00  0.00    +0.234 C 
ATOM     69  N   UNL     1       2.788   0.402  28.164  0.00  0.00    -0.302 N 
ATOM     70  H   UNL     1       2.470   0.150  27.228  0.00  0.00    +0.150 HD
ATOM     71  O   UNL     1       2.989  -0.244  30.337  0.00  0.00    -0.274 OA
BRANCH  69  72
ATOM     72  C   UNL     1       3.092   1.820  28.495  0.00  0.00    +0.159 C 
BRANCH  72  73
ATOM     73  C   UNL     1       4.567   2.002  28.941  0.00  0.00    +0.237 C 
ATOM     74  N   UNL     1       5.407   2.713  28.104  0.00  0.00    -0.288 N 
ATOM     75  C   UNL     1       6.870   2.841  28.316  0.00  0.00    +0.162 C 
ATOM     76  C   UNL     1       7.324   3.838  27.231  0.00  0.00    +0.033 C 
ATOM     77  C   UNL     1       6.150   3.878  26.268  0.00  0.00    +0.021 C 
ATOM     78  C   UNL     1       4.965   3.741  27.179  0.00  0.00    +0.109 C 
ATOM     79  O   UNL     1       4.985   1.619  30.044  0.00  0.00    -0.274 OA
BRANCH  75  80
ATOM     80  C   UNL     1       7.635   1.490  28.221  0.00  0.00    +0.234 C 
ATOM     81  N   UNL     1       7.854   1.074  26.932  0.00  0.00    -0.305 N 
ATOM     82  H   UNL     1       7.301   1.565  26.227  0.00  0.00    +0.149 HD
ATOM     83  O   UNL     1       7.942   0.812  29.197  0.00  0.00    -0.274 OA
BRANCH  81  84
ATOM     84  C   UNL     1       8.400  -0.200  26.494  0.00  0.00    +0.199 C 
BRANCH  84  85
ATOM     85  C   UNL     1       9.564  -0.204  25.491  0.00  0.00    +0.228 C 
ATOM     86  O   UNL     1      10.492   0.595  25.562  0.00  0.00    -0.274 OA
ATOM     87  N   UNL     1       9.449  -1.014  24.407  0.00  0.00    -0.328 N 
ATOM     88  H   UNL     1      10.177  -1.021  23.709  0.00  0.00    +0.145 HD
ATOM     89  H   UNL     1       8.676  -1.669  24.298  0.00  0.00    +0.145 HD
ENDBRANCH  84  85
ENDBRANCH  81  84
ENDBRANCH  75  80
ENDBRANCH  72  73
BRANCH  72  90
ATOM     90  C   UNL     1       2.049   2.286  29.528  0.00  0.00    +0.035 C 
BRANCH  90  91
ATOM     91  C   UNL     1       1.886   3.793  29.783  0.00  0.00    +0.039 C 
BRANCH  91  92
ATOM     92  C   UNL     1       3.149   4.306  30.485  0.00  0.00    +0.196 C 
BRANCH  92  93
ATOM     93  N   UNL     1       3.692   5.494  29.850  0.00  0.00    -0.276 N 
ATOM     94  H   UNL     1       3.080   6.301  29.878  0.00  0.00    +0.258 HD
ATOM     95  C   UNL     1       4.996   5.837  29.953  0.00  0.00    +0.376 C 
ATOM     96  N   UNL     1       5.970   5.155  30.433  0.00  0.00    -0.130 NA
ATOM     97  H   UNL     1       5.627   4.253  30.764  0.00  0.00    +0.306 HD
ATOM     98  N   UNL     1       5.248   7.057  29.447  0.00  0.00    -0.289 N 
ATOM     99  H   UNL     1       6.255   7.197  29.441  0.00  0.00    +0.255 HD
ATOM    100  H   UNL     1       4.885   7.162  28.509  0.00  0.00    +0.255 HD
ENDBRANCH  92  93
ENDBRANCH  91  92
ENDBRANCH  90  91
ENDBRANCH  72  90
ENDBRANCH  69  72
ENDBRANCH  67  68
BRANCH  67 101
ATOM    101  C   UNL     1       1.219  -2.003  27.870  0.00  0.00    +0.034 C 
BRANCH 101 103
ATOM    102  C   UNL     1       1.009  -3.217  25.621  0.00  0.00    +0.007 C 
ATOM    103  C   UNL     1       1.407  -1.931  26.343  0.00  0.00    -0.015 C 
ATOM    104  C   UNL     1       0.578  -0.760  25.800  0.00  0.00    +0.007 C 
ENDBRANCH 101 103
ENDBRANCH  67 101
ENDBRANCH  63  67
ENDBRANCH  62  65
BRANCH  62 105
ATOM    105  C   UNL     1       5.849  -5.113  27.631  0.00  0.00    +0.067 C 
BRANCH 105 106
ATOM    106  C   UNL     1       4.523  -5.793  27.913  0.00  0.00    -0.045 A 
ATOM    107  C   UNL     1       3.422  -5.484  27.126  0.00  0.00    +0.004 A 
ATOM    108  C   UNL     1       2.147  -5.962  27.409  0.00  0.00    +0.009 A 
ATOM    109  C   UNL     1       1.948  -6.851  28.455  0.00  0.00    -0.018 A 
ATOM    110  C   UNL     1       3.060  -7.286  29.207  0.00  0.00    -0.018 A 
ATOM    111  C   UNL     1       2.840  -8.281  30.176  0.00  0.00    +0.008 A 
ATOM    112  C   UNL     1       1.561  -8.807  30.396  0.00  0.00    +0.001 A 
ATOM    113  C   UNL     1       0.464  -8.305  29.702  0.00  0.00    +0.001 A 
ATOM    114  C   UNL     1       0.659  -7.326  28.736  0.00  0.00    +0.008 A 
ATOM    115  C   UNL     1       4.333  -6.713  28.953  0.00  0.00    +0.012 A 
ENDBRANCH 105 106
ENDBRANCH  62 105
ENDBRANCH   1  62
TORSDOF 35
ENDMDL
MODEL 3
REMARK VINA RESULT:      -4.6      2.213     10.369
REMARK  Name = 
REMARK  37 active torsions:
REMARK  status: ('A' for Active; 'I' for Inactive)
REMARK    1  A    between atoms: C_1  and  C_2
REMARK    2  A    between atoms: C_2  and  C_3
REMARK    3  A    between atoms: C_2  and  C_4
REMARK    4  A    between atoms: C_4  and  C_5
REMARK    5  A    between atoms: C_5  and  N_6
REMARK    6  A    between atoms: C_5  and  C_72
REMARK    7  A    between atoms: C_7  and  C_9
REMARK    8  A    between atoms: C_9  and  C_10
REMARK    9  A    between atoms: C_9  and  N_21
REMARK   10  A    between atoms: C_10  and  C_11
REMARK   11  A    between atoms: C_22  and  C_24
REMARK   12  A    between atoms: C_24  and  C_25
REMARK   13  A    between atoms: C_24  and  N_33
REMARK   14  A    between atoms: C_25  and  C_26
REMARK   15  A    between atoms: C_29  and  O_30
REMARK   16  A    between atoms: C_34  and  CA_36
REMARK   17  A    between atoms: CA_36  and  C_37
REMARK   18  A    between atoms: CA_36  and  N_39
REMARK   19  A    between atoms: C_37  and  O_38
REMARK   20  A    between atoms: C_40  and  CA_42
REMARK   21  A    between atoms: CA_42  and  CB_43
REMARK   22  A    between atoms: CA_42  and  N_53
REMARK   23  A    between atoms: CB_43  and  CG_44
REMARK   24  A    between atoms: C_54  and  CA_56
REMARK   25  A    between atoms: CA_56  and  CB_57
REMARK   26  A    between atoms: CA_56  and  N_63
REMARK   27  A    between atoms: CB_57  and  CG_58
REMARK   28  A    between atoms: C_64  and  CA_66
REMARK   29  A    between atoms: N_74  and  C_75
REMARK   30  A    between atoms: C_75  and  C_76
REMARK   31  A    between atoms: C_75  and  C_83
REMARK   32  A    between atoms: C_76  and  C_77
REMARK   33  A    between atoms: C_77  and  C_78
REMARK   34  A    between atoms: C_78  and  N_79
REMARK   35  A    between atoms: C_89  and  C_90
REMARK   36  A    between atoms: N_92  and  C_93
REMARK   37  A    between atoms: C_93  and  C_94
REMARK                            x       y       z     vdW  Elec       q    Type
REMARK                         _______ _______ _______ _____ _____    ______ ____
ROOT
ATOM      1  N   UNL     1       2.534  -5.394  26.051  0.00  0.00    -0.302 N 
ATOM      2  H   UNL     1       3.429  -5.546  26.515  0.00  0.00    +0.150 HD
ATOM      3  C   UNL     1       1.499  -4.860  26.802  0.00  0.00    +0.234 C 
ATOM      4  O   UNL     1       0.444  -4.501  26.287  0.00  0.00    -0.274 OA
ENDROOT
BRANCH   3   5
ATOM      5  C   UNL     1       1.853  -4.604  28.292  0.00  0.00    +0.163 C 
BRANCH   5   6
ATOM      6  N   UNL     1       2.419  -3.260  28.435  0.00  0.00    -0.302 N 
ATOM      7  H   UNL     1       2.989  -3.047  29.248  0.00  0.00    +0.150 HD
ATOM      8  C   UNL     1       2.397  -2.328  27.419  0.00  0.00    +0.236 C 
ATOM      9  O   UNL     1       1.859  -2.557  26.338  0.00  0.00    -0.274 OA
BRANCH   8  10
ATOM     10  CA  UNL     1       2.973  -0.954  27.797  0.00  0.00    +0.184 C 
BRANCH  10  11
ATOM     11  N   UNL     1       1.900   0.052  27.830  0.00  0.00    -0.301 N 
ATOM     12  H   UNL     1       1.235  -0.020  27.072  0.00  0.00    +0.150 HD
ATOM     13  C   UNL     1       2.042   1.239  28.515  0.00  0.00    +0.234 C 
ATOM     14  O   UNL     1       2.928   1.371  29.361  0.00  0.00    -0.274 OA
BRANCH  13  15
ATOM     15  CA  UNL     1       0.975   2.360  28.299  0.00  0.00    +0.163 C 
BRANCH  15  16
ATOM     16  N   UNL     1       1.528   3.323  27.324  0.00  0.00    -0.302 N 
ATOM     17  H   UNL     1       2.119   4.054  27.712  0.00  0.00    +0.150 HD
ATOM     18  C   UNL     1       1.728   3.010  25.989  0.00  0.00    +0.234 C 
ATOM     19  O   UNL     1       1.335   1.960  25.483  0.00  0.00    -0.274 OA
BRANCH  18  20
ATOM     20  CA  UNL     1       2.306   4.140  25.129  0.00  0.00    +0.165 C 
BRANCH  20  21
ATOM     21  N   UNL     1       3.518   4.652  25.805  0.00  0.00    -0.302 N 
ATOM     22  H   UNL     1       3.480   5.620  26.100  0.00  0.00    +0.150 HD
ATOM     23  C   UNL     1       4.483   3.831  26.338  0.00  0.00    +0.234 C 
ATOM     24  O   UNL     1       4.399   2.607  26.294  0.00  0.00    -0.274 OA
BRANCH  23  25
ATOM     25  CA  UNL     1       5.728   4.529  26.913  0.00  0.00    +0.159 C 
ATOM     26  N   UNL     1       5.881   5.837  26.320  0.00  0.00    -0.304 N 
ATOM     27  H   UNL     1       5.105   6.431  26.038  0.00  0.00    +0.149 HD
ATOM     28  C   UNL     1       7.174   6.100  25.924  0.00  0.00    +0.214 C 
ATOM     29  O   UNL     1       7.543   7.104  25.334  0.00  0.00    -0.276 OA
ATOM     30  C   UNL     1       8.039   4.961  26.384  0.00  0.00    +0.098 C 
ATOM     31  C   UNL     1       7.032   3.830  26.555  0.00  0.00    +0.041 C 
ENDBRANCH  23  25
ENDBRANCH  20  21
BRANCH  20  32
ATOM     32  CB  UNL     1       1.327   5.302  24.922  0.00  0.00    +0.088 C 
BRANCH  32  33
ATOM     33  CG  UNL     1       1.249   5.827  23.533  0.00  0.00    +0.061 A 
ATOM     34  ND1 UNL     1       1.979   5.248  22.527  0.00  0.00    -0.241 NA
ATOM     35  CE1 UNL     1       1.694   5.922  21.437  0.00  0.00    +0.196 A 
ATOM     36  NE2 UNL     1       0.868   6.970  21.707  0.00  0.00    -0.351 N 
ATOM     37  HE2 UNL     1       0.537   7.651  21.039  0.00  0.00    +0.166 HD
ATOM     38  CD2 UNL     1       0.573   6.923  23.041  0.00  0.00    +0.107 A 
ENDBRANCH  32  33
ENDBRANCH  20  32
ENDBRANCH  18  20
ENDBRANCH  15  16
BRANCH  15  39
ATOM     39  CB  UNL     1       0.474   3.057  29.576  0.00  0.00    +0.069 C 
BRANCH  39  40
ATOM     40  CG  UNL     1       1.148   4.346  29.937  0.00  0.00    -0.020 A 
ATOM     41  CD2 UNL     1       2.547   4.633  30.051  0.00  0.00    +0.003 A 
ATOM     42  CE2 UNL     1       2.662   5.997  30.332  0.00  0.00    +0.047 A 
ATOM     43  CZ2 UNL     1       3.894   6.642  30.485  0.00  0.00    +0.026 A 
ATOM     44  CH2 UNL     1       5.049   5.864  30.399  0.00  0.00    +0.002 A 
ATOM     45  CZ3 UNL     1       4.973   4.499  30.141  0.00  0.00    +0.001 A 
ATOM     46  NE1 UNL     1       1.389   6.502  30.440  0.00  0.00    -0.360 N 
ATOM     47  HE1 UNL     1       1.170   7.465  30.654  0.00  0.00    +0.165 HD
ATOM     48  CE3 UNL     1       3.733   3.875  29.951  0.00  0.00    +0.010 A 
ATOM     49  CD1 UNL     1       0.474   5.501  30.286  0.00  0.00    +0.087 A 
ENDBRANCH  39  40
ENDBRANCH  15  39
ENDBRANCH  13  15
ENDBRANCH  10  11
BRANCH  10  50
ATOM     50  C   UNL     1       4.050  -0.548  26.774  0.00  0.00    +0.187 C 
BRANCH  50  51
ATOM     51  O   UNL     1       4.984   0.376  27.348  0.00  0.00    -0.393 OA
ATOM     52  H   UNL     1       5.818  -0.121  27.463  0.00  0.00    +0.209 HD
ENDBRANCH  50  51
ENDBRANCH  10  50
ENDBRANCH   8  10
ENDBRANCH   5   6
BRANCH   5  53
ATOM     53  C   UNL     1       2.780  -5.678  28.916  0.00  0.00    +0.067 C 
BRANCH  53  54
ATOM     54  C   UNL     1       4.220  -5.542  28.435  0.00  0.00    -0.045 A 
ATOM     55  C   UNL     1       5.002  -6.672  28.149  0.00  0.00    +0.007 A 
ATOM     56  C   UNL     1       6.250  -6.531  27.532  0.00  0.00    +0.045 A 
ATOM     57  C   UNL     1       6.725  -5.264  27.213  0.00  0.00    +0.117 A 
ATOM     58  C   UNL     1       6.012  -4.130  27.578  0.00  0.00    +0.045 A 
ATOM     59  C   UNL     1       4.774  -4.272  28.208  0.00  0.00    +0.007 A 
BRANCH  57  60
ATOM     60  O   UNL     1       7.895  -5.172  26.519  0.00  0.00    -0.507 OA
ATOM     61  H   UNL     1       8.126  -4.232  26.429  0.00  0.00    +0.292 HD
ENDBRANCH  57  60
ENDBRANCH  53  54
ENDBRANCH   5  53
ENDBRANCH   3   5
BRANCH   1  62
ATOM     62  C   UNL     1       2.429  -5.726  24.608  0.00  0.00    +0.163 C 
BRANCH  62  65
ATOM     63  N   UNL     1       4.743  -5.056  23.964  0.00  0.00    -0.302 N 
ATOM     64  H   UNL     1       5.005  -5.468  24.854  0.00  0.00    +0.150 HD
ATOM     65  C   UNL     1       3.402  -4.914  23.702  0.00  0.00    +0.234 C 
ATOM     66  O   UNL     1       3.024  -4.080  22.879  0.00  0.00    -0.274 OA
BRANCH  63  67
ATOM     67  C   UNL     1       5.754  -4.309  23.218  0.00  0.00    +0.159 C 
BRANCH  67  68
ATOM     68  C   UNL     1       5.939  -2.895  23.841  0.00  0.00    +0.234 C 
ATOM     69  N   UNL     1       7.172  -2.597  24.390  0.00  0.00    -0.302 N 
ATOM     70  H   UNL     1       7.945  -3.253  24.274  0.00  0.00    +0.150 HD
ATOM     71  O   UNL     1       5.046  -2.043  23.792  0.00  0.00    -0.274 OA
BRANCH  69  72
ATOM     72  C   UNL     1       7.407  -1.266  25.013  0.00  0.00    +0.159 C 
BRANCH  72  73
ATOM     73  C   UNL     1       7.064  -0.108  24.039  0.00  0.00    +0.237 C 
ATOM     74  N   UNL     1       7.945   0.140  23.003  0.00  0.00    -0.288 N 
ATOM     75  C   UNL     1       7.837   1.302  22.086  0.00  0.00    +0.162 C 
ATOM     76  C   UNL     1       8.932   1.053  21.029  0.00  0.00    +0.033 C 
ATOM     77  C   UNL     1       9.807  -0.014  21.665  0.00  0.00    +0.021 C 
ATOM     78  C   UNL     1       8.816  -0.859  22.409  0.00  0.00    +0.109 C 
ATOM     79  O   UNL     1       6.003   0.530  24.103  0.00  0.00    -0.274 OA
BRANCH  75  80
ATOM     80  C   UNL     1       8.013   2.675  22.795  0.00  0.00    +0.234 C 
ATOM     81  N   UNL     1       6.935   3.511  22.644  0.00  0.00    -0.305 N 
ATOM     82  H   UNL     1       6.278   3.230  21.914  0.00  0.00    +0.149 HD
ATOM     83  O   UNL     1       9.044   3.019  23.364  0.00  0.00    -0.274 OA
BRANCH  81  84
ATOM     84  C   UNL     1       6.835   4.904  23.046  0.00  0.00    +0.199 C 
BRANCH  84  85
ATOM     85  C   UNL     1       6.292   5.930  22.038  0.00  0.00    +0.228 C 
ATOM     86  O   UNL     1       7.018   6.503  21.232  0.00  0.00    -0.274 OA
ATOM     87  N   UNL     1       5.000   6.322  22.183  0.00  0.00    -0.328 N 
ATOM     88  H   UNL     1       4.616   7.018  21.563  0.00  0.00    +0.145 HD
ATOM     89  H   UNL     1       4.375   5.892  22.864  0.00  0.00    +0.145 HD
ENDBRANCH  84  85
ENDBRANCH  81  84
ENDBRANCH  75  80
ENDBRANCH  72  73
BRANCH  72  90
ATOM     90  C   UNL     1       8.853  -1.253  25.540  0.00  0.00    +0.035 C 
BRANCH  90  91
ATOM     91  C   UNL     1       9.219  -0.272  26.666  0.00  0.00    +0.039 C 
BRANCH  91  92
ATOM     92  C   UNL     1       8.087  -0.277  27.701  0.00  0.00    +0.196 C 
BRANCH  92  93
ATOM     93  N   UNL     1       8.396   0.538  28.863  0.00  0.00    -0.276 N 
ATOM     94  H   UNL     1       9.340   0.907  28.876  0.00  0.00    +0.258 HD
ATOM     95  C   UNL     1       7.502   1.398  29.401  0.00  0.00    +0.376 C 
ATOM     96  N   UNL     1       6.255   1.527  29.137  0.00  0.00    -0.130 NA
ATOM     97  H   UNL     1       5.986   0.863  28.412  0.00  0.00    +0.306 HD
ATOM     98  N   UNL     1       8.048   2.179  30.350  0.00  0.00    -0.289 N 
ATOM     99  H   UNL     1       7.302   2.706  30.796  0.00  0.00    +0.255 HD
ATOM    100  H   UNL     1       8.546   1.640  31.046  0.00  0.00    +0.255 HD
ENDBRANCH  92  93
ENDBRANCH  91  92
ENDBRANCH  90  91
ENDBRANCH  72  90
ENDBRANCH  69  72
ENDBRANCH  67  68
BRANCH  67 101
ATOM    101  C   UNL     1       7.116  -5.028  23.281  0.00  0.00    +0.034 C 
BRANCH 101 103
ATOM    102  C   UNL     1       8.064  -6.994  21.934  0.00  0.00    +0.007 C 
ATOM    103  C   UNL     1       7.731  -5.503  21.952  0.00  0.00    -0.015 C 
ATOM    104  C   UNL     1       6.751  -5.183  20.815  0.00  0.00    +0.007 C 
ENDBRANCH 101 103
ENDBRANCH  67 101
ENDBRANCH  63  67
ENDBRANCH  62  65
BRANCH  62 105
ATOM    105  C   UNL     1       2.640  -7.247  24.392  0.00  0.00    +0.067 C 
BRANCH 105 106
ATOM    106  C   UNL     1       2.152  -8.181  25.482  0.00  0.00    -0.045 A 
ATOM    107  C   UNL     1       1.730  -9.459  25.142  0.00  0.00    +0.004 A 
ATOM    108  C   UNL     1       1.143 -10.320  26.064  0.00  0.00    +0.009 A 
ATOM    109  C   UNL     1       1.042  -9.954  27.398  0.00  0.00    -0.018 A 
ATOM    110  C   UNL     1       1.567  -8.712  27.812  0.00  0.00    -0.018 A 
ATOM    111  C   UNL     1       1.559  -8.428  29.188  0.00  0.00    +0.008 A 
ATOM    112  C   UNL     1       1.033  -9.340  30.112  0.00  0.00    +0.001 A 
ATOM    113  C   UNL     1       0.444 -10.524  29.676  0.00  0.00    +0.001 A 
ATOM    114  C   UNL     1       0.446 -10.826  28.321  0.00  0.00    +0.008 A 
ATOM    115  C   UNL     1       2.078  -7.818  26.834  0.00  0.00    +0.012 A 
ENDBRANCH 105 106
ENDBRANCH  62 105
ENDBRANCH   1  62
TORSDOF 35
ENDMDL
MODEL 4
REMARK VINA RESULT:      -4.4      2.127     10.316
REMARK  Name = 
REMARK  37 active torsions:
REMARK  status: ('A' for Active; 'I' for Inactive)
REMARK    1  A    between atoms: C_1  and  C_2
REMARK    2  A    between atoms: C_2  and  C_3
REMARK    3  A    between atoms: C_2  and  C_4
REMARK    4  A    between atoms: C_4  and  C_5
REMARK    5  A    between atoms: C_5  and  N_6
REMARK    6  A    between atoms: C_5  and  C_72
REMARK    7  A    between atoms: C_7  and  C_9
REMARK    8  A    between atoms: C_9  and  C_10
REMARK    9  A    between atoms: C_9  and  N_21
REMARK   10  A    between atoms: C_10  and  C_11
REMARK   11  A    between atoms: C_22  and  C_24
REMARK   12  A    between atoms: C_24  and  C_25
REMARK   13  A    between atoms: C_24  and  N_33
REMARK   14  A    between atoms: C_25  and  C_26
REMARK   15  A    between atoms: C_29  and  O_30
REMARK   16  A    between atoms: C_34  and  CA_36
REMARK   17  A    between atoms: CA_36  and  C_37
REMARK   18  A    between atoms: CA_36  and  N_39
REMARK   19  A    between atoms: C_37  and  O_38
REMARK   20  A    between atoms: C_40  and  CA_42
REMARK   21  A    between atoms: CA_42  and  CB_43
REMARK   22  A    between atoms: CA_42  and  N_53
REMARK   23  A    between atoms: CB_43  and  CG_44
REMARK   24  A    between atoms: C_54  and  CA_56
REMARK   25  A    between atoms: CA_56  and  CB_57
REMARK   26  A    between atoms: CA_56  and  N_63
REMARK   27  A    between atoms: CB_57  and  CG_58
REMARK   28  A    between atoms: C_64  and  CA_66
REMARK   29  A    between atoms: N_74  and  C_75
REMARK   30  A    between atoms: C_75  and  C_76
REMARK   31  A    between atoms: C_75  and  C_83
REMARK   32  A    between atoms: C_76  and  C_77
REMARK   33  A    between atoms: C_77  and  C_78
REMARK   34  A    between atoms: C_78  and  N_79
REMARK   35  A    between atoms: C_89  and  C_90
REMARK   36  A    between atoms: N_92  and  C_93
REMARK   37  A    between atoms: C_93  and  C_94
REMARK                            x       y       z     vdW  Elec       q    Type
REMARK                         _______ _______ _______ _____ _____    ______ ____
ROOT
ATOM      1  N   UNL     1       2.573  -4.998  25.917  0.00  0.00    -0.302 N 
ATOM      2  H   UNL     1       3.491  -5.163  26.327  0.00  0.00    +0.150 HD
ATOM      3  C   UNL     1       1.574  -4.512  26.745  0.00  0.00    +0.234 C 
ATOM      4  O   UNL     1       0.491  -4.137  26.303  0.00  0.00    -0.274 OA
ENDROOT
BRANCH   3   5
ATOM      5  C   UNL     1       2.002  -4.325  28.226  0.00  0.00    +0.163 C 
BRANCH   5   6
ATOM      6  N   UNL     1       2.498  -2.960  28.422  0.00  0.00    -0.302 N 
ATOM      7  H   UNL     1       2.960  -2.722  29.295  0.00  0.00    +0.150 HD
ATOM      8  C   UNL     1       2.562  -2.035  27.402  0.00  0.00    +0.236 C 
ATOM      9  O   UNL     1       2.164  -2.288  26.268  0.00  0.00    -0.274 OA
BRANCH   8  10
ATOM     10  CA  UNL     1       3.038  -0.638  27.834  0.00  0.00    +0.184 C 
BRANCH  10  11
ATOM     11  N   UNL     1       1.896   0.287  27.901  0.00  0.00    -0.301 N 
ATOM     12  H   UNL     1       1.195   0.139  27.188  0.00  0.00    +0.150 HD
ATOM     13  C   UNL     1       1.989   1.506  28.537  0.00  0.00    +0.234 C 
ATOM     14  O   UNL     1       2.911   1.734  29.321  0.00  0.00    -0.274 OA
BRANCH  13  15
ATOM     15  CA  UNL     1       0.830   2.537  28.352  0.00  0.00    +0.163 C 
BRANCH  15  16
ATOM     16  N   UNL     1       1.185   3.412  27.216  0.00  0.00    -0.302 N 
ATOM     17  H   UNL     1       1.576   4.318  27.462  0.00  0.00    +0.150 HD
ATOM     18  C   UNL     1       1.505   2.921  25.960  0.00  0.00    +0.234 C 
ATOM     19  O   UNL     1       1.383   1.736  25.656  0.00  0.00    -0.274 OA
BRANCH  18  20
ATOM     20  CA  UNL     1       1.842   3.983  24.906  0.00  0.00    +0.165 C 
BRANCH  20  21
ATOM     21  N   UNL     1       2.878   4.873  25.473  0.00  0.00    -0.302 N 
ATOM     22  H   UNL     1       2.822   5.031  26.471  0.00  0.00    +0.150 HD
ATOM     23  C   UNL     1       4.045   5.181  24.814  0.00  0.00    +0.234 C 
ATOM     24  O   UNL     1       4.310   4.728  23.705  0.00  0.00    -0.274 OA
BRANCH  23  25
ATOM     25  CA  UNL     1       4.965   6.204  25.504  0.00  0.00    +0.159 C 
ATOM     26  N   UNL     1       6.285   6.155  24.922  0.00  0.00    -0.304 N 
ATOM     27  H   UNL     1       6.471   5.952  23.943  0.00  0.00    +0.149 HD
ATOM     28  C   UNL     1       7.289   6.146  25.865  0.00  0.00    +0.214 C 
ATOM     29  O   UNL     1       8.483   6.037  25.626  0.00  0.00    -0.276 OA
ATOM     30  C   UNL     1       6.657   6.338  27.214  0.00  0.00    +0.098 C 
ATOM     31  C   UNL     1       5.220   5.892  26.971  0.00  0.00    +0.041 C 
ENDBRANCH  23  25
ENDBRANCH  20  21
BRANCH  20  32
ATOM     32  CB  UNL     1       0.633   4.831  24.495  0.00  0.00    +0.088 C 
BRANCH  32  33
ATOM     33  CG  UNL     1       0.712   5.433  23.137  0.00  0.00    +0.061 A 
ATOM     34  ND1 UNL     1       0.450   4.678  22.023  0.00  0.00    -0.241 NA
ATOM     35  CE1 UNL     1       0.595   5.483  20.996  0.00  0.00    +0.196 A 
ATOM     36  NE2 UNL     1       1.018   6.715  21.392  0.00  0.00    -0.351 N 
ATOM     37  HE2 UNL     1       1.232   7.492  20.782  0.00  0.00    +0.166 HD
ATOM     38  CD2 UNL     1       1.096   6.701  22.756  0.00  0.00    +0.107 A 
ENDBRANCH  32  33
ENDBRANCH  20  32
ENDBRANCH  18  20
ENDBRANCH  15  16
BRANCH  15  39
ATOM     39  CB  UNL     1       0.451   3.346  29.605  0.00  0.00    +0.069 C 
BRANCH  39  40
ATOM     40  CG  UNL     1       1.116   4.680  29.760  0.00  0.00    -0.020 A 
ATOM     41  CD2 UNL     1       2.495   4.979  30.004  0.00  0.00    +0.003 A 
ATOM     42  CE2 UNL     1       2.621   6.371  29.986  0.00  0.00    +0.047 A 
ATOM     43  CZ2 UNL     1       3.842   7.029  30.164  0.00  0.00    +0.026 A 
ATOM     44  CH2 UNL     1       4.969   6.247  30.419  0.00  0.00    +0.002 A 
ATOM     45  CZ3 UNL     1       4.879   4.859  30.467  0.00  0.00    +0.001 A 
ATOM     46  NE1 UNL     1       1.364   6.893  29.796  0.00  0.00    -0.360 N 
ATOM     47  HE1 UNL     1       1.153   7.881  29.755  0.00  0.00    +0.165 HD
ATOM     48  CE3 UNL     1       3.656   4.213  30.247  0.00  0.00    +0.010 A 
ATOM     49  CD1 UNL     1       0.443   5.887  29.742  0.00  0.00    +0.087 A 
ENDBRANCH  39  40
ENDBRANCH  15  39
ENDBRANCH  13  15
ENDBRANCH  10  11
BRANCH  10  50
ATOM     50  C   UNL     1       4.083  -0.119  26.830  0.00  0.00    +0.187 C 
BRANCH  50  51
ATOM     51  O   UNL     1       4.063   1.313  26.758  0.00  0.00    -0.393 OA
ATOM     52  H   UNL     1       3.516   1.613  27.512  0.00  0.00    +0.209 HD
ENDBRANCH  50  51
ENDBRANCH  10  50
ENDBRANCH   8  10
ENDBRANCH   5   6
BRANCH   5  53
ATOM     53  C   UNL     1       3.025  -5.376  28.726  0.00  0.00    +0.067 C 
BRANCH  53  54
ATOM     54  C   UNL     1       4.392  -5.201  28.075  0.00  0.00    -0.045 A 
ATOM     55  C   UNL     1       5.195  -4.084  28.357  0.00  0.00    +0.007 A 
ATOM     56  C   UNL     1       6.517  -4.031  27.901  0.00  0.00    +0.045 A 
ATOM     57  C   UNL     1       7.035  -5.082  27.155  0.00  0.00    +0.117 A 
ATOM     58  C   UNL     1       6.227  -6.148  26.781  0.00  0.00    +0.045 A 
ATOM     59  C   UNL     1       4.903  -6.192  27.222  0.00  0.00    +0.007 A 
BRANCH  57  60
ATOM     60  O   UNL     1       8.356  -5.043  26.819  0.00  0.00    -0.507 OA
ATOM     61  H   UNL     1       8.802  -5.801  27.234  0.00  0.00    +0.292 HD
ENDBRANCH  57  60
ENDBRANCH  53  54
ENDBRANCH   5  53
ENDBRANCH   3   5
BRANCH   1  62
ATOM     62  C   UNL     1       2.396  -5.260  24.467  0.00  0.00    +0.163 C 
BRANCH  62  65
ATOM     63  N   UNL     1       4.425  -4.976  23.045  0.00  0.00    -0.302 N 
ATOM     64  H   UNL     1       4.728  -5.843  23.476  0.00  0.00    +0.150 HD
ATOM     65  C   UNL     1       3.297  -4.377  23.552  0.00  0.00    +0.234 C 
ATOM     66  O   UNL     1       3.114  -3.171  23.382  0.00  0.00    -0.274 OA
BRANCH  63  67
ATOM     67  C   UNL     1       5.377  -4.239  22.216  0.00  0.00    +0.159 C 
BRANCH  67  68
ATOM     68  C   UNL     1       6.321  -3.390  23.116  0.00  0.00    +0.234 C 
ATOM     69  N   UNL     1       7.092  -2.424  22.497  0.00  0.00    -0.302 N 
ATOM     70  H   UNL     1       6.943  -2.220  21.508  0.00  0.00    +0.150 HD
ATOM     71  O   UNL     1       6.338  -3.521  24.343  0.00  0.00    -0.274 OA
BRANCH  69  72
ATOM     72  C   UNL     1       8.024  -1.588  23.302  0.00  0.00    +0.159 C 
BRANCH  72  73
ATOM     73  C   UNL     1       7.261  -0.672  24.295  0.00  0.00    +0.237 C 
ATOM     74  N   UNL     1       6.822   0.554  23.829  0.00  0.00    -0.288 N 
ATOM     75  C   UNL     1       6.217   1.597  24.692  0.00  0.00    +0.162 C 
ATOM     76  C   UNL     1       5.757   2.687  23.703  0.00  0.00    +0.033 C 
ATOM     77  C   UNL     1       6.491   2.338  22.419  0.00  0.00    +0.021 C 
ATOM     78  C   UNL     1       6.506   0.838  22.441  0.00  0.00    +0.109 C 
ATOM     79  O   UNL     1       6.958  -1.033  25.442  0.00  0.00    -0.274 OA
BRANCH  75  80
ATOM     80  C   UNL     1       7.191   2.161  25.767  0.00  0.00    +0.234 C 
ATOM     81  N   UNL     1       6.629   2.263  27.015  0.00  0.00    -0.305 N 
ATOM     82  H   UNL     1       5.611   2.185  27.030  0.00  0.00    +0.149 HD
ATOM     83  O   UNL     1       8.325   2.556  25.516  0.00  0.00    -0.274 OA
BRANCH  81  84
ATOM     84  C   UNL     1       7.207   2.882  28.196  0.00  0.00    +0.199 C 
BRANCH  84  85
ATOM     85  C   UNL     1       7.009   2.206  29.561  0.00  0.00    +0.228 C 
ATOM     86  O   UNL     1       7.834   2.300  30.464  0.00  0.00    -0.274 OA
ATOM     87  N   UNL     1       5.964   1.346  29.685  0.00  0.00    -0.328 N 
ATOM     88  H   UNL     1       5.820   0.857  30.555  0.00  0.00    +0.145 HD
ATOM     89  H   UNL     1       5.276   1.218  28.945  0.00  0.00    +0.145 HD
ENDBRANCH  84  85
ENDBRANCH  81  84
ENDBRANCH  75  80
ENDBRANCH  72  73
BRANCH  72  90
ATOM     90  C   UNL     1       8.940  -0.840  22.315  0.00  0.00    +0.035 C 
BRANCH  90  91
ATOM     91  C   UNL     1      10.245  -0.224  22.844  0.00  0.00    +0.039 C 
BRANCH  91  92
ATOM     92  C   UNL     1       9.897   0.775  23.954  0.00  0.00    +0.196 C 
BRANCH  92  93
ATOM     93  N   UNL     1      10.861   1.856  24.049  0.00  0.00    -0.276 N 
ATOM     94  H   UNL     1      11.828   1.557  24.033  0.00  0.00    +0.258 HD
ATOM     95  C   UNL     1      10.682   3.041  23.422  0.00  0.00    +0.376 C 
ATOM     96  N   UNL     1       9.638   3.482  22.823  0.00  0.00    -0.130 NA
ATOM     97  H   UNL     1       8.897   2.783  22.864  0.00  0.00    +0.306 HD
ATOM     98  N   UNL     1      11.770   3.829  23.492  0.00  0.00    -0.289 N 
ATOM     99  H   UNL     1      11.526   4.742  23.117  0.00  0.00    +0.255 HD
ATOM    100  H   UNL     1      12.105   3.931  24.441  0.00  0.00    +0.255 HD
ENDBRANCH  92  93
ENDBRANCH  91  92
ENDBRANCH  90  91
ENDBRANCH  72  90
ENDBRANCH  69  72
ENDBRANCH  67  68
BRANCH  67 101
ATOM    101  C   UNL     1       6.256  -5.211  21.405  0.00  0.00    +0.034 C 
BRANCH 101 103
ATOM    102  C   UNL     1       8.078  -5.725  23.135  0.00  0.00    +0.007 C 
ATOM    103  C   UNL     1       7.026  -6.293  22.185  0.00  0.00    -0.015 C 
ATOM    104  C   UNL     1       6.019  -7.136  22.980  0.00  0.00    +0.007 C 
ENDBRANCH 101 103
ENDBRANCH  67 101
ENDBRANCH  63  67
ENDBRANCH  62  65
BRANCH  62 105
ATOM    105  C   UNL     1       2.632  -6.762  24.162  0.00  0.00    +0.067 C 
BRANCH 105 106
ATOM    106  C   UNL     1       2.147  -7.767  25.188  0.00  0.00    -0.045 A 
ATOM    107  C   UNL     1       1.712  -9.015  24.763  0.00  0.00    +0.004 A 
ATOM    108  C   UNL     1       1.128  -9.935  25.627  0.00  0.00    +0.009 A 
ATOM    109  C   UNL     1       1.042  -9.664  26.984  0.00  0.00    -0.018 A 
ATOM    110  C   UNL     1       1.581  -8.457  27.480  0.00  0.00    -0.018 A 
ATOM    111  C   UNL     1       1.589  -8.272  28.873  0.00  0.00    +0.008 A 
ATOM    112  C   UNL     1       1.065  -9.244  29.735  0.00  0.00    +0.001 A 
ATOM    113  C   UNL     1       0.462 -10.389  29.222  0.00  0.00    +0.001 A 
ATOM    114  C   UNL     1       0.449 -10.594  27.849  0.00  0.00    +0.008 A 
ATOM    115  C   UNL     1       2.089  -7.500  26.563  0.00  0.00    +0.012 A 
ENDBRANCH 105 106
ENDBRANCH  62 105
ENDBRANCH   1  62
TORSDOF 35
ENDMDL
MODEL 5
REMARK VINA RESULT:      -3.5      2.313      6.726
REMARK  Name = 
REMARK  37 active torsions:
REMARK  status: ('A' for Active; 'I' for Inactive)
REMARK    1  A    between atoms: C_1  and  C_2
REMARK    2  A    between atoms: C_2  and  C_3
REMARK    3  A    between atoms: C_2  and  C_4
REMARK    4  A    between atoms: C_4  and  C_5
REMARK    5  A    between atoms: C_5  and  N_6
REMARK    6  A    between atoms: C_5  and  C_72
REMARK    7  A    between atoms: C_7  and  C_9
REMARK    8  A    between atoms: C_9  and  C_10
REMARK    9  A    between atoms: C_9  and  N_21
REMARK   10  A    between atoms: C_10  and  C_11
REMARK   11  A    between atoms: C_22  and  C_24
REMARK   12  A    between atoms: C_24  and  C_25
REMARK   13  A    between atoms: C_24  and  N_33
REMARK   14  A    between atoms: C_25  and  C_26
REMARK   15  A    between atoms: C_29  and  O_30
REMARK   16  A    between atoms: C_34  and  CA_36
REMARK   17  A    between atoms: CA_36  and  C_37
REMARK   18  A    between atoms: CA_36  and  N_39
REMARK   19  A    between atoms: C_37  and  O_38
REMARK   20  A    between atoms: C_40  and  CA_42
REMARK   21  A    between atoms: CA_42  and  CB_43
REMARK   22  A    between atoms: CA_42  and  N_53
REMARK   23  A    between atoms: CB_43  and  CG_44
REMARK   24  A    between atoms: C_54  and  CA_56
REMARK   25  A    between atoms: CA_56  and  CB_57
REMARK   26  A    between atoms: CA_56  and  N_63
REMARK   27  A    between atoms: CB_57  and  CG_58
REMARK   28  A    between atoms: C_64  and  CA_66
REMARK   29  A    between atoms: N_74  and  C_75
REMARK   30  A    between atoms: C_75  and  C_76
REMARK   31  A    between atoms: C_75  and  C_83
REMARK   32  A    between atoms: C_76  and  C_77
REMARK   33  A    between atoms: C_77  and  C_78
REMARK   34  A    between atoms: C_78  and  N_79
REMARK   35  A    between atoms: C_89  and  C_90
REMARK   36  A    between atoms: N_92  and  C_93
REMARK   37  A    between atoms: C_93  and  C_94
REMARK                            x       y       z     vdW  Elec       q    Type
REMARK                         _______ _______ _______ _____ _____    ______ ____
ROOT
ATOM      1  N   UNL     1       6.863  -2.918  24.620  0.00  0.00    -0.302 N 
ATOM      2  H   UNL     1       7.824  -2.932  24.283  0.00  0.00    +0.150 HD
ATOM      3  C   UNL     1       6.485  -3.888  25.534  0.00  0.00    +0.234 C 
ATOM      4  O   UNL     1       5.399  -3.850  26.108  0.00  0.00    -0.274 OA
ENDROOT
BRANCH   3   5
ATOM      5  C   UNL     1       7.602  -4.907  25.888  0.00  0.00    +0.163 C 
BRANCH   5   6
ATOM      6  N   UNL     1       7.027  -6.014  26.658  0.00  0.00    -0.302 N 
ATOM      7  H   UNL     1       7.086  -6.957  26.287  0.00  0.00    +0.150 HD
ATOM      8  C   UNL     1       6.598  -5.874  27.960  0.00  0.00    +0.236 C 
ATOM      9  O   UNL     1       6.632  -4.794  28.545  0.00  0.00    -0.274 OA
BRANCH   8  10
ATOM     10  CA  UNL     1       5.955  -7.134  28.561  0.00  0.00    +0.184 C 
BRANCH  10  11
ATOM     11  N   UNL     1       4.519  -6.911  28.787  0.00  0.00    -0.301 N 
ATOM     12  H   UNL     1       3.920  -7.250  28.046  0.00  0.00    +0.150 HD
ATOM     13  C   UNL     1       4.065  -5.941  29.653  0.00  0.00    +0.234 C 
ATOM     14  O   UNL     1       4.823  -5.440  30.485  0.00  0.00    -0.274 OA
BRANCH  13  15
ATOM     15  CA  UNL     1       2.542  -5.590  29.653  0.00  0.00    +0.163 C 
BRANCH  15  16
ATOM     16  N   UNL     1       2.400  -4.205  30.149  0.00  0.00    -0.302 N 
ATOM     17  H   UNL     1       3.095  -3.908  30.831  0.00  0.00    +0.150 HD
ATOM     18  C   UNL     1       1.783  -3.204  29.418  0.00  0.00    +0.234 C 
ATOM     19  O   UNL     1       1.184  -3.419  28.364  0.00  0.00    -0.274 OA
BRANCH  18  20
ATOM     20  CA  UNL     1       1.728  -1.832  30.099  0.00  0.00    +0.165 C 
BRANCH  20  21
ATOM     21  N   UNL     1       1.013  -0.904  29.196  0.00  0.00    -0.302 N 
ATOM     22  H   UNL     1       0.191  -1.281  28.740  0.00  0.00    +0.150 HD
ATOM     23  C   UNL     1       1.190   0.459  29.227  0.00  0.00    +0.234 C 
ATOM     24  O   UNL     1       1.955   1.002  30.018  0.00  0.00    -0.274 OA
BRANCH  23  25
ATOM     25  CA  UNL     1       0.445   1.266  28.149  0.00  0.00    +0.159 C 
ATOM     26  N   UNL     1       1.092   1.100  26.869  0.00  0.00    -0.304 N 
ATOM     27  H   UNL     1       1.555   0.245  26.570  0.00  0.00    +0.149 HD
ATOM     28  C   UNL     1       1.258   2.288  26.191  0.00  0.00    +0.214 C 
ATOM     29  O   UNL     1       1.840   2.418  25.125  0.00  0.00    -0.276 OA
ATOM     30  C   UNL     1       0.564   3.366  26.973  0.00  0.00    +0.098 C 
ATOM     31  C   UNL     1       0.502   2.770  28.374  0.00  0.00    +0.041 C 
ENDBRANCH  23  25
ENDBRANCH  20  21
BRANCH  20  32
ATOM     32  CB  UNL     1       3.115  -1.254  30.404  0.00  0.00    +0.088 C 
BRANCH  32  33
ATOM     33  CG  UNL     1       4.019  -1.118  29.230  0.00  0.00    +0.061 A 
ATOM     34  ND1 UNL     1       5.062  -0.229  29.253  0.00  0.00    -0.241 NA
ATOM     35  CE1 UNL     1       5.666  -0.347  28.094  0.00  0.00    +0.196 A 
ATOM     36  NE2 UNL     1       5.008  -1.221  27.282  0.00  0.00    -0.351 N 
ATOM     37  HE2 UNL     1       5.261  -1.452  26.332  0.00  0.00    +0.166 HD
ATOM     38  CD2 UNL     1       3.956  -1.724  27.994  0.00  0.00    +0.107 A 
ENDBRANCH  32  33
ENDBRANCH  20  32
ENDBRANCH  18  20
ENDBRANCH  15  16
BRANCH  15  39
ATOM     39  CB  UNL     1       1.632  -6.570  30.415  0.00  0.00    +0.069 C 
BRANCH  39  40
ATOM     40  CG  UNL     1       1.400  -7.901  29.766  0.00  0.00    -0.020 A 
ATOM     41  CD2 UNL     1       1.063  -8.197  28.406  0.00  0.00    +0.003 A 
ATOM     42  CE2 UNL     1       1.035  -9.589  28.285  0.00  0.00    +0.047 A 
ATOM     43  CZ2 UNL     1       0.764 -10.244  27.080  0.00  0.00    +0.026 A 
ATOM     44  CH2 UNL     1       0.462  -9.458  25.967  0.00  0.00    +0.002 A 
ATOM     45  CZ3 UNL     1       0.459  -8.069  26.055  0.00  0.00    +0.001 A 
ATOM     46  NE1 UNL     1       1.287 -10.113  29.530  0.00  0.00    -0.360 N 
ATOM     47  HE1 UNL     1       1.313 -11.101  29.743  0.00  0.00    +0.165 HD
ATOM     48  CE3 UNL     1       0.771  -7.426  27.259  0.00  0.00    +0.010 A 
ATOM     49  CD1 UNL     1       1.425  -9.107  30.442  0.00  0.00    +0.087 A 
ENDBRANCH  39  40
ENDBRANCH  15  39
ENDBRANCH  13  15
ENDBRANCH  10  11
BRANCH  10  50
ATOM     50  C   UNL     1       6.652  -7.485  29.888  0.00  0.00    +0.187 C 
BRANCH  50  51
ATOM     51  O   UNL     1       7.553  -8.588  29.722  0.00  0.00    -0.393 OA
ATOM     52  H   UNL     1       7.475  -8.862  28.786  0.00  0.00    +0.209 HD
ENDBRANCH  50  51
ENDBRANCH  10  50
ENDBRANCH   8  10
ENDBRANCH   5   6
BRANCH   5  53
ATOM     53  C   UNL     1       8.820  -4.283  26.618  0.00  0.00    +0.067 C 
BRANCH  53  54
ATOM     54  C   UNL     1       9.102  -2.860  26.148  0.00  0.00    -0.045 A 
ATOM     55  C   UNL     1       8.785  -1.753  26.950  0.00  0.00    +0.007 A 
ATOM     56  C   UNL     1       9.218  -0.472  26.589  0.00  0.00    +0.045 A 
ATOM     57  C   UNL     1       9.956  -0.292  25.425  0.00  0.00    +0.117 A 
ATOM     58  C   UNL     1      10.194  -1.359  24.569  0.00  0.00    +0.045 A 
ATOM     59  C   UNL     1       9.746  -2.634  24.921  0.00  0.00    +0.007 A 
BRANCH  57  60
ATOM     60  O   UNL     1      10.451   0.951  25.162  0.00  0.00    -0.507 OA
ATOM     61  H   UNL     1       9.759   1.605  25.355  0.00  0.00    +0.292 HD
ENDBRANCH  57  60
ENDBRANCH  53  54
ENDBRANCH   5  53
ENDBRANCH   3   5
BRANCH   1  62
ATOM     62  C   UNL     1       5.964  -1.844  24.129  0.00  0.00    +0.163 C 
BRANCH  62  65
ATOM     63  N   UNL     1       6.522   0.014  22.562  0.00  0.00    -0.302 N 
ATOM     64  H   UNL     1       6.149  -0.607  21.850  0.00  0.00    +0.150 HD
ATOM     65  C   UNL     1       6.694  -0.502  23.824  0.00  0.00    +0.234 C 
ATOM     66  O   UNL     1       7.495   0.025  24.596  0.00  0.00    -0.274 OA
BRANCH  63  67
ATOM     67  C   UNL     1       7.194   1.240  22.135  0.00  0.00    +0.159 C 
BRANCH  67  68
ATOM     68  C   UNL     1       6.852   2.402  23.114  0.00  0.00    +0.234 C 
ATOM     69  N   UNL     1       7.774   2.695  24.100  0.00  0.00    -0.302 N 
ATOM     70  H   UNL     1       8.683   2.231  24.092  0.00  0.00    +0.150 HD
ATOM     71  O   UNL     1       5.831   3.082  22.980  0.00  0.00    -0.274 OA
BRANCH  69  72
ATOM     72  C   UNL     1       7.499   3.786  25.075  0.00  0.00    +0.159 C 
BRANCH  72  73
ATOM     73  C   UNL     1       6.201   3.519  25.883  0.00  0.00    +0.237 C 
ATOM     74  N   UNL     1       5.221   4.494  25.861  0.00  0.00    -0.288 N 
ATOM     75  C   UNL     1       3.998   4.454  26.699  0.00  0.00    +0.162 C 
ATOM     76  C   UNL     1       3.162   5.653  26.207  0.00  0.00    +0.033 C 
ATOM     77  C   UNL     1       4.158   6.481  25.412  0.00  0.00    +0.021 C 
ATOM     78  C   UNL     1       5.027   5.437  24.774  0.00  0.00    +0.109 C 
ATOM     79  O   UNL     1       5.980   2.445  26.460  0.00  0.00    -0.274 OA
BRANCH  75  80
ATOM     80  C   UNL     1       4.284   4.534  28.226  0.00  0.00    +0.234 C 
ATOM     81  N   UNL     1       5.283   3.688  28.640  0.00  0.00    -0.305 N 
ATOM     82  H   UNL     1       5.539   2.969  27.961  0.00  0.00    +0.149 HD
ATOM     83  O   UNL     1       3.631   5.219  29.006  0.00  0.00    -0.274 OA
BRANCH  81  84
ATOM     84  C   UNL     1       5.693   3.406  30.005  0.00  0.00    +0.199 C 
BRANCH  84  85
ATOM     85  C   UNL     1       7.191   3.261  30.316  0.00  0.00    +0.228 C 
ATOM     86  O   UNL     1       7.943   4.229  30.383  0.00  0.00    -0.274 OA
ATOM     87  N   UNL     1       7.703   2.003  30.342  0.00  0.00    -0.328 N 
ATOM     88  H   UNL     1       8.688   1.868  30.510  0.00  0.00    +0.145 HD
ATOM     89  H   UNL     1       7.114   1.175  30.259  0.00  0.00    +0.145 HD
ENDBRANCH  84  85
ENDBRANCH  81  84
ENDBRANCH  75  80
ENDBRANCH  72  73
BRANCH  72  90
ATOM     90  C   UNL     1       7.506   5.113  24.294  0.00  0.00    +0.035 C 
BRANCH  90  91
ATOM     91  C   UNL     1       8.051   6.372  24.987  0.00  0.00    +0.039 C 
BRANCH  91  92
ATOM     92  C   UNL     1       9.125   6.997  24.087  0.00  0.00    +0.196 C 
BRANCH  92  93
ATOM     93  N   UNL     1       9.918   5.996  23.396  0.00  0.00    -0.276 N 
ATOM     94  H   UNL     1       9.751   5.947  22.398  0.00  0.00    +0.258 HD
ATOM     95  C   UNL     1      11.211   5.754  23.711  0.00  0.00    +0.376 C 
ATOM     96  N   UNL     1      11.886   6.184  24.711  0.00  0.00    -0.130 NA
ATOM     97  H   UNL     1      11.300   6.786  25.289  0.00  0.00    +0.306 HD
ATOM     98  N   UNL     1      11.806   4.925  22.836  0.00  0.00    -0.289 N 
ATOM     99  H   UNL     1      12.726   4.687  23.198  0.00  0.00    +0.255 HD
ATOM    100  H   UNL     1      11.271   4.080  22.687  0.00  0.00    +0.255 HD
ENDBRANCH  92  93
ENDBRANCH  91  92
ENDBRANCH  90  91
ENDBRANCH  72  90
ENDBRANCH  69  72
ENDBRANCH  67  68
BRANCH  67 101
ATOM    101  C   UNL     1       8.723   1.053  22.150  0.00  0.00    +0.034 C 
BRANCH 101 103
ATOM    102  C   UNL     1      10.727  -0.477  21.682  0.00  0.00    +0.007 C 
ATOM    103  C   UNL     1       9.310  -0.074  21.280  0.00  0.00    -0.015 C 
ATOM    104  C   UNL     1       8.385  -1.296  21.370  0.00  0.00    +0.007 C 
ENDBRANCH 101 103
ENDBRANCH  67 101
ENDBRANCH  63  67
ENDBRANCH  62  65
BRANCH  62 105
ATOM    105  C   UNL     1       5.186  -2.327  22.878  0.00  0.00    +0.067 C 
BRANCH 105 106
ATOM    106  C   UNL     1       4.499  -3.676  22.961  0.00  0.00    -0.045 A 
ATOM    107  C   UNL     1       5.250  -4.832  22.789  0.00  0.00    +0.004 A 
ATOM    108  C   UNL     1       4.670  -6.093  22.715  0.00  0.00    +0.009 A 
ATOM    109  C   UNL     1       3.304  -6.248  22.905  0.00  0.00    -0.018 A 
ATOM    110  C   UNL     1       2.519  -5.114  23.202  0.00  0.00    -0.018 A 
ATOM    111  C   UNL     1       1.164  -5.325  23.512  0.00  0.00    +0.008 A 
ATOM    112  C   UNL     1       0.612  -6.612  23.508  0.00  0.00    +0.001 A 
ATOM    113  C   UNL     1       1.383  -7.708  23.131  0.00  0.00    +0.001 A 
ATOM    114  C   UNL     1       2.725  -7.523  22.827  0.00  0.00    +0.008 A 
ATOM    115  C   UNL     1       3.124  -3.830  23.182  0.00  0.00    +0.012 A 
ENDBRANCH 105 106
ENDBRANCH  62 105
ENDBRANCH   1  62
TORSDOF 35
ENDMDL
MODEL 6
REMARK VINA RESULT:      -2.4      2.176     10.227
REMARK  Name = 
REMARK  37 active torsions:
REMARK  status: ('A' for Active; 'I' for Inactive)
REMARK    1  A    between atoms: C_1  and  C_2
REMARK    2  A    between atoms: C_2  and  C_3
REMARK    3  A    between atoms: C_2  and  C_4
REMARK    4  A    between atoms: C_4  and  C_5
REMARK    5  A    between atoms: C_5  and  N_6
REMARK    6  A    between atoms: C_5  and  C_72
REMARK    7  A    between atoms: C_7  and  C_9
REMARK    8  A    between atoms: C_9  and  C_10
REMARK    9  A    between atoms: C_9  and  N_21
REMARK   10  A    between atoms: C_10  and  C_11
REMARK   11  A    between atoms: C_22  and  C_24
REMARK   12  A    between atoms: C_24  and  C_25
REMARK   13  A    between atoms: C_24  and  N_33
REMARK   14  A    between atoms: C_25  and  C_26
REMARK   15  A    between atoms: C_29  and  O_30
REMARK   16  A    between atoms: C_34  and  CA_36
REMARK   17  A    between atoms: CA_36  and  C_37
REMARK   18  A    between atoms: CA_36  and  N_39
REMARK   19  A    between atoms: C_37  and  O_38
REMARK   20  A    between atoms: C_40  and  CA_42
REMARK   21  A    between atoms: CA_42  and  CB_43
REMARK   22  A    between atoms: CA_42  and  N_53
REMARK   23  A    between atoms: CB_43  and  CG_44
REMARK   24  A    between atoms: C_54  and  CA_56
REMARK   25  A    between atoms: CA_56  and  CB_57
REMARK   26  A    between atoms: CA_56  and  N_63
REMARK   27  A    between atoms: CB_57  and  CG_58
REMARK   28  A    between atoms: C_64  and  CA_66
REMARK   29  A    between atoms: N_74  and  C_75
REMARK   30  A    between atoms: C_75  and  C_76
REMARK   31  A    between atoms: C_75  and  C_83
REMARK   32  A    between atoms: C_76  and  C_77
REMARK   33  A    between atoms: C_77  and  C_78
REMARK   34  A    between atoms: C_78  and  N_79
REMARK   35  A    between atoms: C_89  and  C_90
REMARK   36  A    between atoms: N_92  and  C_93
REMARK   37  A    between atoms: C_93  and  C_94
REMARK                            x       y       z     vdW  Elec       q    Type
REMARK                         _______ _______ _______ _____ _____    ______ ____
ROOT
ATOM      1  N   UNL     1       5.703   1.503  24.341  0.00  0.00    -0.302 N 
ATOM      2  H   UNL     1       5.163   1.021  23.624  0.00  0.00    +0.150 HD
ATOM      3  C   UNL     1       5.466   2.855  24.528  0.00  0.00    +0.234 C 
ATOM      4  O   UNL     1       5.955   3.475  25.470  0.00  0.00    -0.274 OA
ENDROOT
BRANCH   3   5
ATOM      5  C   UNL     1       4.413   3.462  23.562  0.00  0.00    +0.163 C 
BRANCH   5   6
ATOM      6  N   UNL     1       4.075   4.820  24.000  0.00  0.00    -0.302 N 
ATOM      7  H   UNL     1       4.382   5.610  23.441  0.00  0.00    +0.150 HD
ATOM      8  C   UNL     1       3.180   5.076  25.016  0.00  0.00    +0.236 C 
ATOM      9  O   UNL     1       2.639   4.173  25.650  0.00  0.00    -0.274 OA
BRANCH   8  10
ATOM     10  CA  UNL     1       3.025   6.563  25.373  0.00  0.00    +0.184 C 
BRANCH  10  11
ATOM     11  N   UNL     1       2.998   6.732  26.834  0.00  0.00    -0.301 N 
ATOM     12  H   UNL     1       3.841   6.432  27.306  0.00  0.00    +0.150 HD
ATOM     13  C   UNL     1       1.813   6.829  27.530  0.00  0.00    +0.234 C 
ATOM     14  O   UNL     1       0.761   7.081  26.941  0.00  0.00    -0.274 OA
BRANCH  13  15
ATOM     15  CA  UNL     1       1.853   6.753  29.090  0.00  0.00    +0.163 C 
BRANCH  15  16
ATOM     16  N   UNL     1       3.270   6.797  29.506  0.00  0.00    -0.302 N 
ATOM     17  H   UNL     1       3.577   7.666  29.934  0.00  0.00    +0.150 HD
ATOM     18  C   UNL     1       3.996   5.660  29.823  0.00  0.00    +0.234 C 
ATOM     19  O   UNL     1       3.563   4.521  29.652  0.00  0.00    -0.274 OA
BRANCH  18  20
ATOM     20  CA  UNL     1       5.455   5.904  30.228  0.00  0.00    +0.165 C 
BRANCH  20  21
ATOM     21  N   UNL     1       6.112   6.651  29.134  0.00  0.00    -0.302 N 
ATOM     22  H   UNL     1       5.776   7.594  28.983  0.00  0.00    +0.150 HD
ATOM     23  C   UNL     1       7.320   6.279  28.592  0.00  0.00    +0.234 C 
ATOM     24  O   UNL     1       7.942   5.298  28.989  0.00  0.00    -0.274 OA
BRANCH  23  25
ATOM     25  CA  UNL     1       7.810   7.108  27.392  0.00  0.00    +0.159 C 
ATOM     26  N   UNL     1       7.224   6.607  26.171  0.00  0.00    -0.304 N 
ATOM     27  H   UNL     1       6.292   6.207  26.107  0.00  0.00    +0.149 HD
ATOM     28  C   UNL     1       8.140   6.475  25.150  0.00  0.00    +0.214 C 
ATOM     29  O   UNL     1       7.905   6.006  24.046  0.00  0.00    -0.276 OA
ATOM     30  C   UNL     1       9.446   7.046  25.624  0.00  0.00    +0.098 C 
ATOM     31  C   UNL     1       9.305   6.977  27.139  0.00  0.00    +0.041 C 
ENDBRANCH  23  25
ENDBRANCH  20  21
BRANCH  20  32
ATOM     32  CB  UNL     1       6.235   4.609  30.482  0.00  0.00    +0.088 C 
BRANCH  32  33
ATOM     33  CG  UNL     1       5.845   3.455  29.628  0.00  0.00    +0.061 A 
ATOM     34  ND1 UNL     1       5.269   2.341  30.182  0.00  0.00    -0.241 NA
ATOM     35  CE1 UNL     1       5.039   1.517  29.186  0.00  0.00    +0.196 A 
ATOM     36  NE2 UNL     1       5.516   2.017  28.012  0.00  0.00    -0.351 N 
ATOM     37  HE2 UNL     1       5.487   1.553  27.116  0.00  0.00    +0.166 HD
ATOM     38  CD2 UNL     1       6.031   3.255  28.277  0.00  0.00    +0.107 A 
ENDBRANCH  32  33
ENDBRANCH  20  32
ENDBRANCH  18  20
ENDBRANCH  15  16
BRANCH  15  39
ATOM     39  CB  UNL     1       1.106   5.563  29.718  0.00  0.00    +0.069 C 
BRANCH  39  40
ATOM     40  CG  UNL     1       0.894   4.371  28.835  0.00  0.00    -0.020 A 
ATOM     41  CD2 UNL     1       0.887   2.980  29.181  0.00  0.00    +0.003 A 
ATOM     42  CE2 UNL     1       0.568   2.273  28.019  0.00  0.00    +0.047 A 
ATOM     43  CZ2 UNL     1       0.443   0.880  27.985  0.00  0.00    +0.026 A 
ATOM     44  CH2 UNL     1       0.702   0.176  29.161  0.00  0.00    +0.002 A 
ATOM     45  CZ3 UNL     1       1.044   0.845  30.333  0.00  0.00    +0.001 A 
ATOM     46  NE1 UNL     1       0.443   3.189  27.002  0.00  0.00    -0.360 N 
ATOM     47  HE1 UNL     1       0.229   2.956  26.042  0.00  0.00    +0.165 HD
ATOM     48  CE3 UNL     1       1.125   2.243  30.361  0.00  0.00    +0.010 A 
ATOM     49  CD1 UNL     1       0.719   4.442  27.466  0.00  0.00    +0.087 A 
ENDBRANCH  39  40
ENDBRANCH  15  39
ENDBRANCH  13  15
ENDBRANCH  10  11
BRANCH  10  50
ATOM     50  C   UNL     1       1.725   7.108  24.752  0.00  0.00    +0.187 C 
BRANCH  50  51
ATOM     51  O   UNL     1       1.369   6.374  23.574  0.00  0.00    -0.393 OA
ATOM     52  H   UNL     1       0.417   6.166  23.663  0.00  0.00    +0.209 HD
ENDBRANCH  50  51
ENDBRANCH  10  50
ENDBRANCH   8  10
ENDBRANCH   5   6
BRANCH   5  53
ATOM     53  C   UNL     1       3.142   2.592  23.384  0.00  0.00    +0.067 C 
BRANCH  53  54
ATOM     54  C   UNL     1       2.340   2.995  22.152  0.00  0.00    -0.045 A 
ATOM     55  C   UNL     1       2.795   3.998  21.282  0.00  0.00    +0.007 A 
ATOM     56  C   UNL     1       2.146   4.225  20.063  0.00  0.00    +0.045 A 
ATOM     57  C   UNL     1       1.038   3.462  19.716  0.00  0.00    +0.117 A 
ATOM     58  C   UNL     1       0.513   2.534  20.606  0.00  0.00    +0.045 A 
ATOM     59  C   UNL     1       1.151   2.321  21.829  0.00  0.00    +0.007 A 
BRANCH  57  60
ATOM     60  O   UNL     1       0.498   3.638  18.476  0.00  0.00    -0.507 OA
ATOM     61  H   UNL     1       0.399   4.592  18.316  0.00  0.00    +0.292 HD
ENDBRANCH  57  60
ENDBRANCH  53  54
ENDBRANCH   5  53
ENDBRANCH   3   5
BRANCH   1  62
ATOM     62  C   UNL     1       6.669   0.710  25.142  0.00  0.00    +0.163 C 
BRANCH  62  65
ATOM     63  N   UNL     1       4.672  -0.660  25.736  0.00  0.00    -0.302 N 
ATOM     64  H   UNL     1       4.147   0.104  25.323  0.00  0.00    +0.150 HD
ATOM     65  C   UNL     1       6.021  -0.476  25.917  0.00  0.00    +0.234 C 
ATOM     66  O   UNL     1       6.623  -1.146  26.757  0.00  0.00    -0.274 OA
BRANCH  63  67
ATOM     67  C   UNL     1       3.938  -1.706  26.447  0.00  0.00    +0.159 C 
BRANCH  67  68
ATOM     68  C   UNL     1       4.666  -3.072  26.282  0.00  0.00    +0.234 C 
ATOM     69  N   UNL     1       5.747  -3.321  27.106  0.00  0.00    -0.302 N 
ATOM     70  H   UNL     1       5.965  -2.668  27.860  0.00  0.00    +0.150 HD
ATOM     71  O   UNL     1       4.260  -3.932  25.495  0.00  0.00    -0.274 OA
BRANCH  69  72
ATOM     72  C   UNL     1       6.493  -4.603  26.988  0.00  0.00    +0.159 C 
BRANCH  72  73
ATOM     73  C   UNL     1       6.369  -5.210  25.565  0.00  0.00    +0.237 C 
ATOM     74  N   UNL     1       6.886  -4.482  24.510  0.00  0.00    -0.288 N 
ATOM     75  C   UNL     1       6.709  -4.854  23.085  0.00  0.00    +0.162 C 
ATOM     76  C   UNL     1       7.584  -3.842  22.318  0.00  0.00    +0.033 C 
ATOM     77  C   UNL     1       7.861  -2.757  23.345  0.00  0.00    +0.021 C 
ATOM     78  C   UNL     1       7.978  -3.532  24.626  0.00  0.00    +0.109 C 
ATOM     79  O   UNL     1       5.914  -6.345  25.359  0.00  0.00    -0.274 OA
BRANCH  75  80
ATOM     80  C   UNL     1       5.229  -4.821  22.609  0.00  0.00    +0.234 C 
ATOM     81  N   UNL     1       4.555  -5.996  22.833  0.00  0.00    -0.305 N 
ATOM     82  H   UNL     1       5.154  -6.792  23.057  0.00  0.00    +0.149 HD
ATOM     83  O   UNL     1       4.727  -3.872  22.015  0.00  0.00    -0.274 OA
BRANCH  81  84
ATOM     84  C   UNL     1       3.220  -6.349  22.380  0.00  0.00    +0.199 C 
BRANCH  84  85
ATOM     85  C   UNL     1       2.345  -7.241  23.274  0.00  0.00    +0.228 C 
ATOM     86  O   UNL     1       2.662  -8.391  23.562  0.00  0.00    -0.274 OA
ATOM     87  N   UNL     1       1.110  -6.777  23.598  0.00  0.00    -0.328 N 
ATOM     88  H   UNL     1       0.493  -7.348  24.156  0.00  0.00    +0.145 HD
ATOM     89  H   UNL     1       0.799  -5.839  23.350  0.00  0.00    +0.145 HD
ENDBRANCH  84  85
ENDBRANCH  81  84
ENDBRANCH  75  80
ENDBRANCH  72  73
BRANCH  72  90
ATOM     90  C   UNL     1       6.008  -5.525  28.122  0.00  0.00    +0.035 C 
BRANCH  90  91
ATOM     91  C   UNL     1       4.553  -6.017  28.100  0.00  0.00    +0.039 C 
BRANCH  91  92
ATOM     92  C   UNL     1       4.372  -7.053  29.216  0.00  0.00    +0.196 C 
BRANCH  92  93
ATOM     93  N   UNL     1       3.006  -7.110  29.704  0.00  0.00    -0.276 N 
ATOM     94  H   UNL     1       2.724  -6.306  30.253  0.00  0.00    +0.258 HD
ATOM     95  C   UNL     1       1.992  -7.601  28.956  0.00  0.00    +0.376 C 
ATOM     96  N   UNL     1       2.049  -8.228  27.840  0.00  0.00    -0.130 NA
ATOM     97  H   UNL     1       3.020  -8.318  27.545  0.00  0.00    +0.306 HD
ATOM     98  N   UNL     1       0.790  -7.395  29.523  0.00  0.00    -0.289 N 
ATOM     99  H   UNL     1       0.091  -7.895  28.978  0.00  0.00    +0.255 HD
ATOM    100  H   UNL     1       0.762  -7.712  30.482  0.00  0.00    +0.255 HD
ENDBRANCH  92  93
ENDBRANCH  91  92
ENDBRANCH  90  91
ENDBRANCH  72  90
ENDBRANCH  69  72
ENDBRANCH  67  68
BRANCH  67 101
ATOM    101  C   UNL     1       3.870  -1.393  27.954  0.00  0.00    +0.034 C 
BRANCH 101 103
ATOM    102  C   UNL     1       1.874  -3.002  27.969  0.00  0.00    +0.007 C 
ATOM    103  C   UNL     1       2.865  -2.192  28.802  0.00  0.00    -0.015 C 
ATOM    104  C   UNL     1       3.644  -3.134  29.730  0.00  0.00    +0.007 C 
ENDBRANCH 101 103
ENDBRANCH  67 101
ENDBRANCH  63  67
ENDBRANCH  62  65
BRANCH  62 105
ATOM    105  C   UNL     1       7.818   0.194  24.237  0.00  0.00    +0.067 C 
BRANCH 105 106
ATOM    106  C   UNL     1       8.811   1.216  23.720  0.00  0.00    -0.045 A 
ATOM    107  C   UNL     1       9.352   1.056  22.451  0.00  0.00    +0.004 A 
ATOM    108  C   UNL     1      10.367   1.873  21.965  0.00  0.00    +0.009 A 
ATOM    109  C   UNL     1      10.817   2.951  22.712  0.00  0.00    -0.018 A 
ATOM    110  C   UNL     1      10.212   3.224  23.958  0.00  0.00    -0.018 A 
ATOM    111  C   UNL     1      10.605   4.394  24.629  0.00  0.00    +0.008 A 
ATOM    112  C   UNL     1      11.576   5.248  24.088  0.00  0.00    +0.001 A 
ATOM    113  C   UNL     1      12.220   4.917  22.899  0.00  0.00    +0.001 A 
ATOM    114  C   UNL     1      11.842   3.769  22.217  0.00  0.00    +0.008 A 
ATOM    115  C   UNL     1       9.242   2.321  24.467  0.00  0.00    +0.012 A 
ENDBRANCH 105 106
ENDBRANCH  62 105
ENDBRANCH   1  62
TORSDOF 35
ENDMDL
