MODEL 1
REMARK VINA RESULT:      -5.8      0.000      0.000
REMARK  Name = 
REMARK  14 active torsions:
REMARK  status: ('A' for Active; 'I' for Inactive)
REMARK    1  A    between atoms: C_1  and  O_2
REMARK    2  A    between atoms: O_2  and  C_3
REMARK    3  A    between atoms: N_5  and  C_6
REMARK    4  A    between atoms: C_6  and  C_7
REMARK    5  A    between atoms: C_7  and  C_8
REMARK    6  A    between atoms: C_8  and  C_9
REMARK    7  A    between atoms: C_9  and  C_10
REMARK    8  A    between atoms: C_10  and  C_11
REMARK    9  A    between atoms: N_13  and  C_14
REMARK   10  A    between atoms: C_17  and  C_19
REMARK   11  A    between atoms: C_19  and  O_20
REMARK   12  A    between atoms: C_21  and  O_23
REMARK   13  A    between atoms: C_24  and  O_26
REMARK   14  A    between atoms: C_27  and  O_29
REMARK                            x       y       z     vdW  Elec       q    Type
REMARK                         _______ _______ _______ _____ _____    ______ ____
ROOT
ATOM      1  C   UNL     1       6.264  -2.099  23.276  0.00  0.00    +0.215 C 
ATOM      2  N   UNL     1       7.073  -1.068  22.840  0.00  0.00    -0.288 N 
ATOM      3  H   UNL     1       7.756  -1.330  22.140  0.00  0.00    +0.151 HD
ATOM      4  O   UNL     1       5.754  -2.135  24.388  0.00  0.00    -0.276 OA
ENDROOT
BRANCH   2   5
ATOM      5  C   UNL     1       7.528  -0.064  23.772  0.00  0.00    +0.237 C 
ATOM      6  C   UNL     1       7.800   1.343  23.194  0.00  0.00    +0.192 C 
ATOM      7  C   UNL     1       9.128   1.429  22.425  0.00  0.00    +0.178 C 
ATOM      8  C   UNL     1      10.295   0.691  23.089  0.00  0.00    +0.177 C 
ATOM      9  C   UNL     1       9.920  -0.591  23.849  0.00  0.00    +0.177 C 
ATOM     10  O   UNL     1       8.635  -0.608  24.486  0.00  0.00    -0.348 OA
BRANCH   6  11
ATOM     11  O   UNL     1       7.793   2.278  24.289  0.00  0.00    -0.385 OA
ATOM     12  H   UNL     1       7.361   3.094  23.985  0.00  0.00    +0.210 HD
ENDBRANCH   6  11
BRANCH   7  13
ATOM     13  O   UNL     1       9.007   0.996  21.062  0.00  0.00    -0.386 OA
ATOM     14  H   UNL     1       9.267   0.064  20.995  0.00  0.00    +0.210 HD
ENDBRANCH   7  13
BRANCH   8  15
ATOM     15  O   UNL     1      10.927   1.608  24.000  0.00  0.00    -0.386 OA
ATOM     16  H   UNL     1      11.826   1.782  23.669  0.00  0.00    +0.210 HD
ENDBRANCH   8  15
BRANCH   9  17
ATOM     17  C   UNL     1      10.103  -1.877  23.032  0.00  0.00    +0.190 C 
BRANCH  17  18
ATOM     18  O   UNL     1      10.073  -1.562  21.635  0.00  0.00    -0.392 OA
ATOM     19  H   UNL     1      10.205  -0.598  21.551  0.00  0.00    +0.210 HD
ENDBRANCH  17  18
ENDBRANCH   9  17
ENDBRANCH   2   5
BRANCH   1  20
ATOM     20  C   UNL     1       5.975  -3.153  22.228  0.00  0.00    +0.096 C 
BRANCH  20  21
ATOM     21  C   UNL     1       7.211  -4.029  22.052  0.00  0.00    +0.009 C 
BRANCH  21  22
ATOM     22  C   UNL     1       7.197  -5.271  22.942  0.00  0.00    +0.002 C 
BRANCH  22  23
ATOM     23  C   UNL     1       5.754  -5.661  23.278  0.00  0.00    +0.019 C 
BRANCH  23  24
ATOM     24  C   UNL     1       5.511  -5.702  24.783  0.00  0.00    +0.107 C 
BRANCH  24  26
ATOM     25  C   UNL     1       6.939  -5.440  26.766  0.00  0.00    +0.400 C 
ATOM     26  N   UNL     1       6.572  -5.046  25.514  0.00  0.00    -0.281 N 
ATOM     27  H   UNL     1       7.051  -4.245  25.131  0.00  0.00    +0.152 HD
ATOM     28  O   UNL     1       6.427  -6.355  27.392  0.00  0.00    -0.226 OA
BRANCH  25  30
ATOM     29  C   UNL     1       8.343  -3.659  26.264  0.00  0.00    +0.282 C 
ATOM     30  O   UNL     1       7.962  -4.663  27.203  0.00  0.00    -0.454 OA
ENDBRANCH  25  30
ENDBRANCH  24  26
ENDBRANCH  23  24
ENDBRANCH  22  23
ENDBRANCH  21  22
ENDBRANCH  20  21
ENDBRANCH   1  20
TORSDOF 13
ENDMDL
MODEL 2
REMARK VINA RESULT:      -5.8      2.289      3.270
REMARK  Name = 
REMARK  14 active torsions:
REMARK  status: ('A' for Active; 'I' for Inactive)
REMARK    1  A    between atoms: C_1  and  O_2
REMARK    2  A    between atoms: O_2  and  C_3
REMARK    3  A    between atoms: N_5  and  C_6
REMARK    4  A    between atoms: C_6  and  C_7
REMARK    5  A    between atoms: C_7  and  C_8
REMARK    6  A    between atoms: C_8  and  C_9
REMARK    7  A    between atoms: C_9  and  C_10
REMARK    8  A    between atoms: C_10  and  C_11
REMARK    9  A    between atoms: N_13  and  C_14
REMARK   10  A    between atoms: C_17  and  C_19
REMARK   11  A    between atoms: C_19  and  O_20
REMARK   12  A    between atoms: C_21  and  O_23
REMARK   13  A    between atoms: C_24  and  O_26
REMARK   14  A    between atoms: C_27  and  O_29
REMARK                            x       y       z     vdW  Elec       q    Type
REMARK                         _______ _______ _______ _____ _____    ______ ____
ROOT
ATOM      1  C   UNL     1       6.177  -0.653  24.735  0.00  0.00    +0.215 C 
ATOM      2  N   UNL     1       7.230  -0.370  23.887  0.00  0.00    -0.288 N 
ATOM      3  H   UNL     1       8.092  -0.855  24.102  0.00  0.00    +0.151 HD
ATOM      4  O   UNL     1       5.264   0.130  24.963  0.00  0.00    -0.276 OA
ENDROOT
BRANCH   2   5
ATOM      5  C   UNL     1       7.408   0.970  23.380  0.00  0.00    +0.237 C 
ATOM      6  C   UNL     1       7.628   1.109  21.857  0.00  0.00    +0.192 C 
ATOM      7  C   UNL     1       9.052   0.733  21.418  0.00  0.00    +0.178 C 
ATOM      8  C   UNL     1      10.158   1.243  22.349  0.00  0.00    +0.177 C 
ATOM      9  C   UNL     1       9.793   1.297  23.842  0.00  0.00    +0.177 C 
ATOM     10  O   UNL     1       8.427   1.593  24.159  0.00  0.00    -0.348 OA
BRANCH   6  11
ATOM     11  O   UNL     1       7.333   2.470  21.492  0.00  0.00    -0.385 OA
ATOM     12  H   UNL     1       8.134   2.857  21.100  0.00  0.00    +0.210 HD
ENDBRANCH   6  11
BRANCH   7  13
ATOM     13  O   UNL     1       9.215  -0.679  21.218  0.00  0.00    -0.386 OA
ATOM     14  H   UNL     1       8.345  -1.093  21.114  0.00  0.00    +0.210 HD
ENDBRANCH   7  13
BRANCH   8  15
ATOM     15  O   UNL     1      10.523   2.563  21.908  0.00  0.00    -0.386 OA
ATOM     16  H   UNL     1      11.368   2.493  21.430  0.00  0.00    +0.210 HD
ENDBRANCH   8  15
BRANCH   9  17
ATOM     17  C   UNL     1      10.249   0.068  24.639  0.00  0.00    +0.190 C 
BRANCH  17  18
ATOM     18  O   UNL     1      10.174  -1.095  23.808  0.00  0.00    -0.392 OA
ATOM     19  H   UNL     1      10.993  -1.609  23.950  0.00  0.00    +0.210 HD
ENDBRANCH  17  18
ENDBRANCH   9  17
ENDBRANCH   2   5
BRANCH   1  20
ATOM     20  C   UNL     1       6.188  -2.059  25.298  0.00  0.00    +0.096 C 
BRANCH  20  21
ATOM     21  C   UNL     1       7.130  -2.105  26.497  0.00  0.00    +0.009 C 
BRANCH  21  22
ATOM     22  C   UNL     1       8.383  -2.942  26.240  0.00  0.00    +0.002 C 
BRANCH  22  23
ATOM     23  C   UNL     1       7.992  -4.375  25.868  0.00  0.00    +0.019 C 
BRANCH  23  24
ATOM     24  C   UNL     1       8.662  -4.830  24.576  0.00  0.00    +0.107 C 
BRANCH  24  26
ATOM     25  C   UNL     1       7.522  -3.982  22.570  0.00  0.00    +0.400 C 
ATOM     26  N   UNL     1       7.708  -4.964  23.497  0.00  0.00    -0.281 N 
ATOM     27  H   UNL     1       7.118  -5.779  23.421  0.00  0.00    +0.152 HD
ATOM     28  O   UNL     1       8.114  -2.915  22.550  0.00  0.00    -0.226 OA
BRANCH  25  30
ATOM     29  C   UNL     1       6.642  -5.775  21.384  0.00  0.00    +0.282 C 
ATOM     30  O   UNL     1       6.584  -4.379  21.673  0.00  0.00    -0.454 OA
ENDBRANCH  25  30
ENDBRANCH  24  26
ENDBRANCH  23  24
ENDBRANCH  22  23
ENDBRANCH  21  22
ENDBRANCH  20  21
ENDBRANCH   1  20
TORSDOF 13
ENDMDL
MODEL 3
REMARK VINA RESULT:      -5.7      1.856      3.749
REMARK  Name = 
REMARK  14 active torsions:
REMARK  status: ('A' for Active; 'I' for Inactive)
REMARK    1  A    between atoms: C_1  and  O_2
REMARK    2  A    between atoms: O_2  and  C_3
REMARK    3  A    between atoms: N_5  and  C_6
REMARK    4  A    between atoms: C_6  and  C_7
REMARK    5  A    between atoms: C_7  and  C_8
REMARK    6  A    between atoms: C_8  and  C_9
REMARK    7  A    between atoms: C_9  and  C_10
REMARK    8  A    between atoms: C_10  and  C_11
REMARK    9  A    between atoms: N_13  and  C_14
REMARK   10  A    between atoms: C_17  and  C_19
REMARK   11  A    between atoms: C_19  and  O_20
REMARK   12  A    between atoms: C_21  and  O_23
REMARK   13  A    between atoms: C_24  and  O_26
REMARK   14  A    between atoms: C_27  and  O_29
REMARK                            x       y       z     vdW  Elec       q    Type
REMARK                         _______ _______ _______ _____ _____    ______ ____
ROOT
ATOM      1  C   UNL     1       8.712  -3.561  25.047  0.00  0.00    +0.215 C 
ATOM      2  N   UNL     1       8.398  -2.334  24.495  0.00  0.00    -0.288 N 
ATOM      3  H   UNL     1       7.505  -1.953  24.785  0.00  0.00    +0.151 HD
ATOM      4  O   UNL     1       9.437  -4.382  24.501  0.00  0.00    -0.276 OA
ENDROOT
BRANCH   2   5
ATOM      5  C   UNL     1       8.755  -2.045  23.127  0.00  0.00    +0.237 C 
ATOM      6  C   UNL     1      10.144  -1.408  22.895  0.00  0.00    +0.192 C 
ATOM      7  C   UNL     1      10.183   0.089  23.241  0.00  0.00    +0.178 C 
ATOM      8  C   UNL     1       8.950   0.878  22.787  0.00  0.00    +0.177 C 
ATOM      9  C   UNL     1       7.620   0.106  22.824  0.00  0.00    +0.177 C 
ATOM     10  O   UNL     1       7.686  -1.300  22.550  0.00  0.00    -0.348 OA
BRANCH   6  11
ATOM     11  O   UNL     1      10.498  -1.614  21.515  0.00  0.00    -0.385 OA
ATOM     12  H   UNL     1       9.764  -2.084  21.083  0.00  0.00    +0.210 HD
ENDBRANCH   6  11
BRANCH   7  13
ATOM     13  O   UNL     1      10.410   0.329  24.637  0.00  0.00    -0.386 OA
ATOM     14  H   UNL     1      10.863  -0.435  25.027  0.00  0.00    +0.210 HD
ENDBRANCH   7  13
BRANCH   8  15
ATOM     15  O   UNL     1       9.192   1.327  21.441  0.00  0.00    -0.386 OA
ATOM     16  H   UNL     1       9.557   0.576  20.939  0.00  0.00    +0.210 HD
ENDBRANCH   8  15
BRANCH   9  17
ATOM     17  C   UNL     1       6.799   0.342  24.098  0.00  0.00    +0.190 C 
BRANCH  17  18
ATOM     18  O   UNL     1       5.700  -0.576  24.134  0.00  0.00    -0.392 OA
ATOM     19  H   UNL     1       4.883  -0.048  24.234  0.00  0.00    +0.210 HD
ENDBRANCH  17  18
ENDBRANCH   9  17
ENDBRANCH   2   5
BRANCH   1  20
ATOM     20  C   UNL     1       8.160  -3.780  26.440  0.00  0.00    +0.096 C 
BRANCH  20  21
ATOM     21  C   UNL     1       7.573  -5.186  26.525  0.00  0.00    +0.009 C 
BRANCH  21  22
ATOM     22  C   UNL     1       6.070  -5.191  26.798  0.00  0.00    +0.002 C 
BRANCH  22  23
ATOM     23  C   UNL     1       5.401  -6.344  26.042  0.00  0.00    +0.019 C 
BRANCH  23  24
ATOM     24  C   UNL     1       4.619  -5.851  24.829  0.00  0.00    +0.107 C 
BRANCH  24  26
ATOM     25  C   UNL     1       5.807  -4.480  23.171  0.00  0.00    +0.400 C 
ATOM     26  N   UNL     1       5.469  -5.702  23.669  0.00  0.00    -0.281 N 
ATOM     27  H   UNL     1       5.807  -6.508  23.164  0.00  0.00    +0.152 HD
ATOM     28  O   UNL     1       5.441  -3.409  23.629  0.00  0.00    -0.226 OA
BRANCH  25  30
ATOM     29  C   UNL     1       7.146  -5.959  21.981  0.00  0.00    +0.282 C 
ATOM     30  O   UNL     1       6.619  -4.638  22.095  0.00  0.00    -0.454 OA
ENDBRANCH  25  30
ENDBRANCH  24  26
ENDBRANCH  23  24
ENDBRANCH  22  23
ENDBRANCH  21  22
ENDBRANCH  20  21
ENDBRANCH   1  20
TORSDOF 13
ENDMDL
MODEL 4
REMARK VINA RESULT:      -5.6      2.390      7.277
REMARK  Name = 
REMARK  14 active torsions:
REMARK  status: ('A' for Active; 'I' for Inactive)
REMARK    1  A    between atoms: C_1  and  O_2
REMARK    2  A    between atoms: O_2  and  C_3
REMARK    3  A    between atoms: N_5  and  C_6
REMARK    4  A    between atoms: C_6  and  C_7
REMARK    5  A    between atoms: C_7  and  C_8
REMARK    6  A    between atoms: C_8  and  C_9
REMARK    7  A    between atoms: C_9  and  C_10
REMARK    8  A    between atoms: C_10  and  C_11
REMARK    9  A    between atoms: N_13  and  C_14
REMARK   10  A    between atoms: C_17  and  C_19
REMARK   11  A    between atoms: C_19  and  O_20
REMARK   12  A    between atoms: C_21  and  O_23
REMARK   13  A    between atoms: C_24  and  O_26
REMARK   14  A    between atoms: C_27  and  O_29
REMARK                            x       y       z     vdW  Elec       q    Type
REMARK                         _______ _______ _______ _____ _____    ______ ____
ROOT
ATOM      1  C   UNL     1       9.082  -2.756  24.131  0.00  0.00    +0.215 C 
ATOM      2  N   UNL     1       7.875  -3.325  23.774  0.00  0.00    -0.288 N 
ATOM      3  H   UNL     1       7.069  -2.956  24.264  0.00  0.00    +0.151 HD
ATOM      4  O   UNL     1      10.154  -3.342  24.054  0.00  0.00    -0.276 OA
ENDROOT
BRANCH   2   5
ATOM      5  C   UNL     1       7.801  -4.737  23.481  0.00  0.00    +0.237 C 
ATOM      6  C   UNL     1       6.945  -5.145  22.261  0.00  0.00    +0.192 C 
ATOM      7  C   UNL     1       5.435  -5.106  22.546  0.00  0.00    +0.178 C 
ATOM      8  C   UNL     1       5.035  -5.660  23.918  0.00  0.00    +0.177 C 
ATOM      9  C   UNL     1       6.046  -5.417  25.051  0.00  0.00    +0.177 C 
ATOM     10  O   UNL     1       7.431  -5.408  24.683  0.00  0.00    -0.348 OA
BRANCH   6  11
ATOM     11  O   UNL     1       7.348  -6.470  21.865  0.00  0.00    -0.385 OA
ATOM     12  H   UNL     1       6.544  -6.992  21.700  0.00  0.00    +0.210 HD
ENDBRANCH   6  11
BRANCH   7  13
ATOM     13  O   UNL     1       4.875  -3.796  22.382  0.00  0.00    -0.386 OA
ATOM     14  H   UNL     1       4.486  -3.503  23.221  0.00  0.00    +0.210 HD
ENDBRANCH   7  13
BRANCH   8  15
ATOM     15  O   UNL     1       4.827  -7.076  23.772  0.00  0.00    -0.386 OA
ATOM     16  H   UNL     1       3.959  -7.207  23.349  0.00  0.00    +0.210 HD
ENDBRANCH   8  15
BRANCH   9  17
ATOM     17  C   UNL     1       5.735  -4.184  25.910  0.00  0.00    +0.190 C 
BRANCH  17  18
ATOM     18  O   UNL     1       6.875  -3.864  26.714  0.00  0.00    -0.392 OA
ATOM     19  H   UNL     1       6.680  -3.025  27.176  0.00  0.00    +0.210 HD
ENDBRANCH  17  18
ENDBRANCH   9  17
ENDBRANCH   2   5
BRANCH   1  20
ATOM     20  C   UNL     1       8.990  -1.302  24.544  0.00  0.00    +0.096 C 
BRANCH  20  21
ATOM     21  C   UNL     1      10.090  -0.516  23.837  0.00  0.00    +0.009 C 
BRANCH  21  22
ATOM     22  C   UNL     1      10.475   0.767  24.571  0.00  0.00    +0.002 C 
BRANCH  22  23
ATOM     23  C   UNL     1      10.593   1.928  23.578  0.00  0.00    +0.019 C 
BRANCH  23  24
ATOM     24  C   UNL     1       9.997   1.576  22.219  0.00  0.00    +0.107 C 
BRANCH  24  26
ATOM     25  C   UNL     1       7.627   2.209  22.067  0.00  0.00    +0.400 C 
ATOM     26  N   UNL     1       8.942   2.490  21.844  0.00  0.00    -0.281 N 
ATOM     27  H   UNL     1       9.147   3.354  21.365  0.00  0.00    +0.152 HD
ATOM     28  O   UNL     1       7.206   1.188  22.586  0.00  0.00    -0.226 OA
BRANCH  25  30
ATOM     29  C   UNL     1       7.179   4.480  22.266  0.00  0.00    +0.282 C 
ATOM     30  O   UNL     1       6.863   3.243  21.630  0.00  0.00    -0.454 OA
ENDBRANCH  25  30
ENDBRANCH  24  26
ENDBRANCH  23  24
ENDBRANCH  22  23
ENDBRANCH  21  22
ENDBRANCH  20  21
ENDBRANCH   1  20
TORSDOF 13
ENDMDL
MODEL 5
REMARK VINA RESULT:      -5.6      2.187      6.877
REMARK  Name = 
REMARK  14 active torsions:
REMARK  status: ('A' for Active; 'I' for Inactive)
REMARK    1  A    between atoms: C_1  and  O_2
REMARK    2  A    between atoms: O_2  and  C_3
REMARK    3  A    between atoms: N_5  and  C_6
REMARK    4  A    between atoms: C_6  and  C_7
REMARK    5  A    between atoms: C_7  and  C_8
REMARK    6  A    between atoms: C_8  and  C_9
REMARK    7  A    between atoms: C_9  and  C_10
REMARK    8  A    between atoms: C_10  and  C_11
REMARK    9  A    between atoms: N_13  and  C_14
REMARK   10  A    between atoms: C_17  and  C_19
REMARK   11  A    between atoms: C_19  and  O_20
REMARK   12  A    between atoms: C_21  and  O_23
REMARK   13  A    between atoms: C_24  and  O_26
REMARK   14  A    between atoms: C_27  and  O_29
REMARK                            x       y       z     vdW  Elec       q    Type
REMARK                         _______ _______ _______ _____ _____    ______ ____
ROOT
ATOM      1  C   UNL     1       9.034  -1.731  23.405  0.00  0.00    +0.215 C 
ATOM      2  N   UNL     1       7.735  -2.202  23.400  0.00  0.00    -0.288 N 
ATOM      3  H   UNL     1       7.352  -2.403  24.315  0.00  0.00    +0.151 HD
ATOM      4  O   UNL     1       9.815  -1.891  22.476  0.00  0.00    -0.276 OA
ENDROOT
BRANCH   2   5
ATOM      5  C   UNL     1       7.298  -3.100  22.358  0.00  0.00    +0.237 C 
ATOM      6  C   UNL     1       5.784  -3.114  22.048  0.00  0.00    +0.192 C 
ATOM      7  C   UNL     1       4.964  -3.892  23.090  0.00  0.00    +0.178 C 
ATOM      8  C   UNL     1       5.610  -5.201  23.555  0.00  0.00    +0.177 C 
ATOM      9  C   UNL     1       7.146  -5.194  23.623  0.00  0.00    +0.177 C 
ATOM     10  O   UNL     1       7.828  -4.391  22.651  0.00  0.00    -0.348 OA
BRANCH   6  11
ATOM     11  O   UNL     1       5.608  -3.688  20.739  0.00  0.00    -0.385 OA
ATOM     12  H   UNL     1       6.011  -3.086  20.090  0.00  0.00    +0.210 HD
ENDBRANCH   6  11
BRANCH   7  13
ATOM     13  O   UNL     1       4.627  -3.097  24.235  0.00  0.00    -0.386 OA
ATOM     14  H   UNL     1       4.028  -2.382  23.969  0.00  0.00    +0.210 HD
ENDBRANCH   7  13
BRANCH   8  15
ATOM     15  O   UNL     1       5.186  -6.240  22.654  0.00  0.00    -0.386 OA
ATOM     16  H   UNL     1       4.351  -6.606  22.995  0.00  0.00    +0.210 HD
ENDBRANCH   8  15
BRANCH   9  17
ATOM     17  C   UNL     1       7.707  -4.895  25.019  0.00  0.00    +0.190 C 
BRANCH  17  18
ATOM     18  O   UNL     1       6.819  -4.008  25.710  0.00  0.00    -0.392 OA
ATOM     19  H   UNL     1       6.085  -3.798  25.100  0.00  0.00    +0.210 HD
ENDBRANCH  17  18
ENDBRANCH   9  17
ENDBRANCH   2   5
BRANCH   1  20
ATOM     20  C   UNL     1       9.397  -0.910  24.625  0.00  0.00    +0.096 C 
BRANCH  20  21
ATOM     21  C   UNL     1      10.583  -0.013  24.285  0.00  0.00    +0.009 C 
BRANCH  21  22
ATOM     22  C   UNL     1      10.275   1.474  24.453  0.00  0.00    +0.002 C 
BRANCH  22  23
ATOM     23  C   UNL     1      10.653   2.238  23.180  0.00  0.00    +0.019 C 
BRANCH  23  24
ATOM     24  C   UNL     1       9.868   1.747  21.969  0.00  0.00    +0.107 C 
BRANCH  24  26
ATOM     25  C   UNL     1       7.442   2.111  22.121  0.00  0.00    +0.400 C 
ATOM     26  N   UNL     1       8.679   2.539  21.744  0.00  0.00    -0.281 N 
ATOM     27  H   UNL     1       8.726   3.423  21.260  0.00  0.00    +0.152 HD
ATOM     28  O   UNL     1       7.205   1.045  22.668  0.00  0.00    -0.226 OA
BRANCH  25  30
ATOM     29  C   UNL     1       5.330   2.961  22.583  0.00  0.00    +0.282 C 
ATOM     30  O   UNL     1       6.520   3.054  21.802  0.00  0.00    -0.454 OA
ENDBRANCH  25  30
ENDBRANCH  24  26
ENDBRANCH  23  24
ENDBRANCH  22  23
ENDBRANCH  21  22
ENDBRANCH  20  21
ENDBRANCH   1  20
TORSDOF 13
ENDMDL
MODEL 6
REMARK VINA RESULT:      -5.6      2.251      3.552
REMARK  Name = 
REMARK  14 active torsions:
REMARK  status: ('A' for Active; 'I' for Inactive)
REMARK    1  A    between atoms: C_1  and  O_2
REMARK    2  A    between atoms: O_2  and  C_3
REMARK    3  A    between atoms: N_5  and  C_6
REMARK    4  A    between atoms: C_6  and  C_7
REMARK    5  A    between atoms: C_7  and  C_8
REMARK    6  A    between atoms: C_8  and  C_9
REMARK    7  A    between atoms: C_9  and  C_10
REMARK    8  A    between atoms: C_10  and  C_11
REMARK    9  A    between atoms: N_13  and  C_14
REMARK   10  A    between atoms: C_17  and  C_19
REMARK   11  A    between atoms: C_19  and  O_20
REMARK   12  A    between atoms: C_21  and  O_23
REMARK   13  A    between atoms: C_24  and  O_26
REMARK   14  A    between atoms: C_27  and  O_29
REMARK                            x       y       z     vdW  Elec       q    Type
REMARK                         _______ _______ _______ _____ _____    ______ ____
ROOT
ATOM      1  C   UNL     1       8.623  -1.216  26.522  0.00  0.00    +0.215 C 
ATOM      2  N   UNL     1       8.955  -0.869  25.226  0.00  0.00    -0.288 N 
ATOM      3  H   UNL     1       9.362  -1.616  24.677  0.00  0.00    +0.151 HD
ATOM      4  O   UNL     1       8.593  -0.417  27.448  0.00  0.00    -0.276 OA
ENDROOT
BRANCH   2   5
ATOM      5  C   UNL     1       9.490   0.441  24.944  0.00  0.00    +0.237 C 
ATOM      6  C   UNL     1       8.501   1.484  24.376  0.00  0.00    +0.192 C 
ATOM      7  C   UNL     1       8.191   1.268  22.886  0.00  0.00    +0.178 C 
ATOM      8  C   UNL     1       9.408   0.899  22.032  0.00  0.00    +0.177 C 
ATOM      9  C   UNL     1      10.475   0.043  22.735  0.00  0.00    +0.177 C 
ATOM     10  O   UNL     1      10.654   0.267  24.140  0.00  0.00    -0.348 OA
BRANCH   6  11
ATOM     11  O   UNL     1       9.069   2.790  24.587  0.00  0.00    -0.385 OA
ATOM     12  H   UNL     1       9.303   2.868  25.528  0.00  0.00    +0.210 HD
ENDBRANCH   6  11
BRANCH   7  13
ATOM     13  O   UNL     1       7.151   0.303  22.671  0.00  0.00    -0.386 OA
ATOM     14  H   UNL     1       7.009  -0.206  23.483  0.00  0.00    +0.210 HD
ENDBRANCH   7  13
BRANCH   8  15
ATOM     15  O   UNL     1      10.013   2.125  21.583  0.00  0.00    -0.386 OA
ATOM     16  H   UNL     1       9.695   2.299  20.680  0.00  0.00    +0.210 HD
ENDBRANCH   8  15
BRANCH   9  17
ATOM     17  C   UNL     1      10.341  -1.462  22.469  0.00  0.00    +0.190 C 
BRANCH  17  18
ATOM     18  O   UNL     1       9.346  -1.682  21.463  0.00  0.00    -0.392 OA
ATOM     19  H   UNL     1       8.606  -2.160  21.885  0.00  0.00    +0.210 HD
ENDBRANCH  17  18
ENDBRANCH   9  17
ENDBRANCH   2   5
BRANCH   1  20
ATOM     20  C   UNL     1       8.204  -2.661  26.695  0.00  0.00    +0.096 C 
BRANCH  20  21
ATOM     21  C   UNL     1       6.900  -2.893  25.939  0.00  0.00    +0.009 C 
BRANCH  21  22
ATOM     22  C   UNL     1       6.565  -4.373  25.764  0.00  0.00    +0.002 C 
BRANCH  22  23
ATOM     23  C   UNL     1       7.751  -5.111  25.135  0.00  0.00    +0.019 C 
BRANCH  23  24
ATOM     24  C   UNL     1       8.178  -4.480  23.814  0.00  0.00    +0.107 C 
BRANCH  24  26
ATOM     25  C   UNL     1       6.600  -3.812  22.052  0.00  0.00    +0.400 C 
ATOM     26  N   UNL     1       7.250  -4.786  22.749  0.00  0.00    -0.281 N 
ATOM     27  H   UNL     1       7.023  -5.741  22.515  0.00  0.00    +0.152 HD
ATOM     28  O   UNL     1       6.720  -2.613  22.244  0.00  0.00    -0.226 OA
BRANCH  25  30
ATOM     29  C   UNL     1       6.162  -5.735  20.823  0.00  0.00    +0.282 C 
ATOM     30  O   UNL     1       5.808  -4.382  21.109  0.00  0.00    -0.454 OA
ENDBRANCH  25  30
ENDBRANCH  24  26
ENDBRANCH  23  24
ENDBRANCH  22  23
ENDBRANCH  21  22
ENDBRANCH  20  21
ENDBRANCH   1  20
TORSDOF 13
ENDMDL
MODEL 7
REMARK VINA RESULT:      -5.4      1.852      3.588
REMARK  Name = 
REMARK  14 active torsions:
REMARK  status: ('A' for Active; 'I' for Inactive)
REMARK    1  A    between atoms: C_1  and  O_2
REMARK    2  A    between atoms: O_2  and  C_3
REMARK    3  A    between atoms: N_5  and  C_6
REMARK    4  A    between atoms: C_6  and  C_7
REMARK    5  A    between atoms: C_7  and  C_8
REMARK    6  A    between atoms: C_8  and  C_9
REMARK    7  A    between atoms: C_9  and  C_10
REMARK    8  A    between atoms: C_10  and  C_11
REMARK    9  A    between atoms: N_13  and  C_14
REMARK   10  A    between atoms: C_17  and  C_19
REMARK   11  A    between atoms: C_19  and  O_20
REMARK   12  A    between atoms: C_21  and  O_23
REMARK   13  A    between atoms: C_24  and  O_26
REMARK   14  A    between atoms: C_27  and  O_29
REMARK                            x       y       z     vdW  Elec       q    Type
REMARK                         _______ _______ _______ _____ _____    ______ ____
ROOT
ATOM      1  C   UNL     1       6.661  -1.512  25.043  0.00  0.00    +0.215 C 
ATOM      2  N   UNL     1       7.899  -1.054  24.635  0.00  0.00    -0.288 N 
ATOM      3  H   UNL     1       8.312  -0.352  25.236  0.00  0.00    +0.151 HD
ATOM      4  O   UNL     1       5.814  -1.947  24.274  0.00  0.00    -0.276 OA
ENDROOT
BRANCH   2   5
ATOM      5  C   UNL     1       8.175  -0.876  23.229  0.00  0.00    +0.237 C 
ATOM      6  C   UNL     1       9.660  -0.935  22.804  0.00  0.00    +0.192 C 
ATOM      7  C   UNL     1      10.431   0.352  23.138  0.00  0.00    +0.178 C 
ATOM      8  C   UNL     1       9.658   1.645  22.859  0.00  0.00    +0.177 C 
ATOM      9  C   UNL     1       8.139   1.570  23.084  0.00  0.00    +0.177 C 
ATOM     10  O   UNL     1       7.510   0.312  22.807  0.00  0.00    -0.348 OA
BRANCH   6  11
ATOM     11  O   UNL     1       9.702  -1.193  21.388  0.00  0.00    -0.385 OA
ATOM     12  H   UNL     1      10.089  -0.415  20.952  0.00  0.00    +0.210 HD
ENDBRANCH   6  11
BRANCH   7  13
ATOM     13  O   UNL     1      10.916   0.372  24.488  0.00  0.00    -0.386 OA
ATOM     14  H   UNL     1      11.029  -0.538  24.805  0.00  0.00    +0.210 HD
ENDBRANCH   7  13
BRANCH   8  15
ATOM     15  O   UNL     1       9.911   2.017  21.492  0.00  0.00    -0.386 OA
ATOM     16  H   UNL     1       9.638   2.945  21.382  0.00  0.00    +0.210 HD
ENDBRANCH   8  15
BRANCH   9  17
ATOM     17  C   UNL     1       7.687   2.076  24.460  0.00  0.00    +0.190 C 
BRANCH  17  18
ATOM     18  O   UNL     1       8.709   1.807  25.426  0.00  0.00    -0.392 OA
ATOM     19  H   UNL     1       8.526   2.366  26.207  0.00  0.00    +0.210 HD
ENDBRANCH  17  18
ENDBRANCH   9  17
ENDBRANCH   2   5
BRANCH   1  20
ATOM     20  C   UNL     1       6.461  -1.521  26.544  0.00  0.00    +0.096 C 
BRANCH  20  21
ATOM     21  C   UNL     1       5.288  -2.437  26.883  0.00  0.00    +0.009 C 
BRANCH  21  22
ATOM     22  C   UNL     1       5.727  -3.791  27.436  0.00  0.00    +0.002 C 
BRANCH  22  23
ATOM     23  C   UNL     1       5.479  -4.890  26.397  0.00  0.00    +0.019 C 
BRANCH  23  24
ATOM     24  C   UNL     1       6.766  -5.310  25.696  0.00  0.00    +0.107 C 
BRANCH  24  26
ATOM     25  C   UNL     1       7.812  -4.657  23.569  0.00  0.00    +0.400 C 
ATOM     26  N   UNL     1       6.713  -5.045  24.275  0.00  0.00    -0.281 N 
ATOM     27  H   UNL     1       5.843  -5.101  23.767  0.00  0.00    +0.152 HD
ATOM     28  O   UNL     1       8.926  -4.491  24.040  0.00  0.00    -0.226 OA
BRANCH  25  30
ATOM     29  C   UNL     1       7.051  -5.703  21.639  0.00  0.00    +0.282 C 
ATOM     30  O   UNL     1       7.477  -4.493  22.264  0.00  0.00    -0.454 OA
ENDBRANCH  25  30
ENDBRANCH  24  26
ENDBRANCH  23  24
ENDBRANCH  22  23
ENDBRANCH  21  22
ENDBRANCH  20  21
ENDBRANCH   1  20
TORSDOF 13
ENDMDL
MODEL 8
REMARK VINA RESULT:      -5.4      2.020      2.993
REMARK  Name = 
REMARK  14 active torsions:
REMARK  status: ('A' for Active; 'I' for Inactive)
REMARK    1  A    between atoms: C_1  and  O_2
REMARK    2  A    between atoms: O_2  and  C_3
REMARK    3  A    between atoms: N_5  and  C_6
REMARK    4  A    between atoms: C_6  and  C_7
REMARK    5  A    between atoms: C_7  and  C_8
REMARK    6  A    between atoms: C_8  and  C_9
REMARK    7  A    between atoms: C_9  and  C_10
REMARK    8  A    between atoms: C_10  and  C_11
REMARK    9  A    between atoms: N_13  and  C_14
REMARK   10  A    between atoms: C_17  and  C_19
REMARK   11  A    between atoms: C_19  and  O_20
REMARK   12  A    between atoms: C_21  and  O_23
REMARK   13  A    between atoms: C_24  and  O_26
REMARK   14  A    between atoms: C_27  and  O_29
REMARK                            x       y       z     vdW  Elec       q    Type
REMARK                         _______ _______ _______ _____ _____    ______ ____
ROOT
ATOM      1  C   UNL     1       8.486  -2.137  25.487  0.00  0.00    +0.215 C 
ATOM      2  N   UNL     1       8.600  -1.309  24.387  0.00  0.00    -0.288 N 
ATOM      3  H   UNL     1       8.882  -1.773  23.533  0.00  0.00    +0.151 HD
ATOM      4  O   UNL     1       8.642  -1.755  26.639  0.00  0.00    -0.276 OA
ENDROOT
BRANCH   2   5
ATOM      5  C   UNL     1       9.119   0.029  24.542  0.00  0.00    +0.237 C 
ATOM      6  C   UNL     1       8.080   1.170  24.618  0.00  0.00    +0.192 C 
ATOM      7  C   UNL     1       7.489   1.537  23.248  0.00  0.00    +0.178 C 
ATOM      8  C   UNL     1       8.511   1.577  22.107  0.00  0.00    +0.177 C 
ATOM      9  C   UNL     1       9.659   0.559  22.210  0.00  0.00    +0.177 C 
ATOM     10  O   UNL     1      10.106   0.227  23.532  0.00  0.00    -0.348 OA
BRANCH   6  11
ATOM     11  O   UNL     1       8.724   2.313  25.211  0.00  0.00    -0.385 OA
ATOM     12  H   UNL     1       8.143   2.657  25.911  0.00  0.00    +0.210 HD
ENDBRANCH   6  11
BRANCH   7  13
ATOM     13  O   UNL     1       6.393   0.691  22.872  0.00  0.00    -0.386 OA
ATOM     14  H   UNL     1       6.732  -0.178  22.604  0.00  0.00    +0.210 HD
ENDBRANCH   7  13
BRANCH   8  15
ATOM     15  O   UNL     1       9.066   2.904  22.066  0.00  0.00    -0.386 OA
ATOM     16  H   UNL     1      10.034   2.819  22.012  0.00  0.00    +0.210 HD
ENDBRANCH   8  15
BRANCH   9  17
ATOM     17  C   UNL     1       9.423  -0.729  21.411  0.00  0.00    +0.190 C 
BRANCH  17  18
ATOM     18  O   UNL     1      10.396  -1.709  21.788  0.00  0.00    -0.392 OA
ATOM     19  H   UNL     1      10.148  -2.548  21.352  0.00  0.00    +0.210 HD
ENDBRANCH  17  18
ENDBRANCH   9  17
ENDBRANCH   2   5
BRANCH   1  20
ATOM     20  C   UNL     1       8.057  -3.553  25.162  0.00  0.00    +0.096 C 
BRANCH  20  21
ATOM     21  C   UNL     1       8.083  -3.743  23.649  0.00  0.00    +0.009 C 
BRANCH  21  22
ATOM     22  C   UNL     1       7.633  -5.137  23.214  0.00  0.00    +0.002 C 
BRANCH  22  23
ATOM     23  C   UNL     1       7.141  -5.103  21.763  0.00  0.00    +0.019 C 
BRANCH  23  24
ATOM     24  C   UNL     1       5.872  -5.927  21.574  0.00  0.00    +0.107 C 
BRANCH  24  26
ATOM     25  C   UNL     1       4.174  -6.011  23.349  0.00  0.00    +0.400 C 
ATOM     26  N   UNL     1       5.365  -6.426  22.833  0.00  0.00    -0.281 N 
ATOM     27  H   UNL     1       5.901  -7.073  23.391  0.00  0.00    +0.152 HD
ATOM     28  O   UNL     1       3.430  -5.195  22.829  0.00  0.00    -0.226 OA
BRANCH  25  30
ATOM     29  C   UNL     1       4.957  -6.409  25.500  0.00  0.00    +0.282 C 
ATOM     30  O   UNL     1       3.944  -6.649  24.525  0.00  0.00    -0.454 OA
ENDBRANCH  25  30
ENDBRANCH  24  26
ENDBRANCH  23  24
ENDBRANCH  22  23
ENDBRANCH  21  22
ENDBRANCH  20  21
ENDBRANCH   1  20
TORSDOF 13
ENDMDL
MODEL 9
REMARK VINA RESULT:      -5.4      2.916      7.758
REMARK  Name = 
REMARK  14 active torsions:
REMARK  status: ('A' for Active; 'I' for Inactive)
REMARK    1  A    between atoms: C_1  and  O_2
REMARK    2  A    between atoms: O_2  and  C_3
REMARK    3  A    between atoms: N_5  and  C_6
REMARK    4  A    between atoms: C_6  and  C_7
REMARK    5  A    between atoms: C_7  and  C_8
REMARK    6  A    between atoms: C_8  and  C_9
REMARK    7  A    between atoms: C_9  and  C_10
REMARK    8  A    between atoms: C_10  and  C_11
REMARK    9  A    between atoms: N_13  and  C_14
REMARK   10  A    between atoms: C_17  and  C_19
REMARK   11  A    between atoms: C_19  and  O_20
REMARK   12  A    between atoms: C_21  and  O_23
REMARK   13  A    between atoms: C_24  and  O_26
REMARK   14  A    between atoms: C_27  and  O_29
REMARK                            x       y       z     vdW  Elec       q    Type
REMARK                         _______ _______ _______ _____ _____    ______ ____
ROOT
ATOM      1  C   UNL     1       9.325  -1.901  22.912  0.00  0.00    +0.215 C 
ATOM      2  N   UNL     1       8.602  -2.551  23.893  0.00  0.00    -0.288 N 
ATOM      3  H   UNL     1       7.851  -2.007  24.299  0.00  0.00    +0.151 HD
ATOM      4  O   UNL     1      10.497  -2.149  22.660  0.00  0.00    -0.276 OA
ENDROOT
BRANCH   2   5
ATOM      5  C   UNL     1       9.273  -3.429  24.822  0.00  0.00    +0.237 C 
ATOM      6  C   UNL     1       9.079  -4.946  24.601  0.00  0.00    +0.192 C 
ATOM      7  C   UNL     1       7.710  -5.453  25.081  0.00  0.00    +0.178 C 
ATOM      8  C   UNL     1       7.247  -4.861  26.416  0.00  0.00    +0.177 C 
ATOM      9  C   UNL     1       7.672  -3.406  26.678  0.00  0.00    +0.177 C 
ATOM     10  O   UNL     1       8.937  -3.000  26.139  0.00  0.00    -0.348 OA
BRANCH   6  11
ATOM     11  O   UNL     1      10.140  -5.630  25.294  0.00  0.00    -0.385 OA
ATOM     12  H   UNL     1      10.001  -5.512  26.249  0.00  0.00    +0.210 HD
ENDBRANCH   6  11
BRANCH   7  13
ATOM     13  O   UNL     1       6.679  -5.274  24.100  0.00  0.00    -0.386 OA
ATOM     14  H   UNL     1       5.814  -5.261  24.538  0.00  0.00    +0.210 HD
ENDBRANCH   7  13
BRANCH   8  15
ATOM     15  O   UNL     1       7.766  -5.696  27.466  0.00  0.00    -0.386 OA
ATOM     16  H   UNL     1       7.094  -6.370  27.669  0.00  0.00    +0.210 HD
ENDBRANCH   8  15
BRANCH   9  17
ATOM     17  C   UNL     1       6.603  -2.369  26.311  0.00  0.00    +0.190 C 
BRANCH  17  18
ATOM     18  O   UNL     1       5.824  -2.855  25.212  0.00  0.00    -0.392 OA
ATOM     19  H   UNL     1       5.449  -3.718  25.480  0.00  0.00    +0.210 HD
ENDBRANCH  17  18
ENDBRANCH   9  17
ENDBRANCH   2   5
BRANCH   1  20
ATOM     20  C   UNL     1       8.522  -0.908  22.097  0.00  0.00    +0.096 C 
BRANCH  20  21
ATOM     21  C   UNL     1       9.470   0.133  21.509  0.00  0.00    +0.009 C 
BRANCH  21  22
ATOM     22  C   UNL     1       8.983   1.567  21.712  0.00  0.00    +0.002 C 
BRANCH  22  23
ATOM     23  C   UNL     1       9.811   2.255  22.802  0.00  0.00    +0.019 C 
BRANCH  23  24
ATOM     24  C   UNL     1       9.134   3.520  23.317  0.00  0.00    +0.107 C 
BRANCH  24  26
ATOM     25  C   UNL     1      10.001   5.775  23.770  0.00  0.00    +0.400 C 
ATOM     26  N   UNL     1      10.082   4.424  23.929  0.00  0.00    -0.281 N 
ATOM     27  H   UNL     1      10.863   4.076  24.465  0.00  0.00    +0.152 HD
ATOM     28  O   UNL     1       9.152   6.355  23.111  0.00  0.00    -0.226 OA
BRANCH  25  30
ATOM     29  C   UNL     1      12.301   5.994  24.005  0.00  0.00    +0.282 C 
ATOM     30  O   UNL     1      11.004   6.373  24.461  0.00  0.00    -0.454 OA
ENDBRANCH  25  30
ENDBRANCH  24  26
ENDBRANCH  23  24
ENDBRANCH  22  23
ENDBRANCH  21  22
ENDBRANCH  20  21
ENDBRANCH   1  20
TORSDOF 13
ENDMDL
