MODEL 1
REMARK VINA RESULT:      -5.9      0.000      0.000
REMARK  Name = 
REMARK  14 active torsions:
REMARK  status: ('A' for Active; 'I' for Inactive)
REMARK    1  A    between atoms: O_1  and  C_2
REMARK    2  A    between atoms: C_4  and  O_6
REMARK    3  A    between atoms: C_7  and  O_9
REMARK    4  A    between atoms: O_9  and  P_10
REMARK    5  A    between atoms: P_10  and  O_11
REMARK    6  A    between atoms: P_10  and  C_13
REMARK    7  A    between atoms: C_13  and  P_14
REMARK    8  A    between atoms: P_14  and  O_15
REMARK    9  A    between atoms: P_14  and  O_16
REMARK   10  A    between atoms: C_19  and  C_21
REMARK   11  A    between atoms: C_21  and  O_22
REMARK   12  A    between atoms: O_22  and  P_23
REMARK   13  A    between atoms: P_23  and  O_24
REMARK   14  A    between atoms: P_23  and  O_25
REMARK                            x       y       z     vdW  Elec       q    Type
REMARK                         _______ _______ _______ _____ _____    ______ ____
ROOT
ATOM      1  C   UNL     1       7.632  -0.597  22.803  0.00  0.00    +0.179 C 
ATOM      2  C   UNL     1       8.230  -0.544  24.206  0.00  0.00    +0.179 C 
ATOM      3  O   UNL     1       8.857  -1.832  24.413  0.00  0.00    -0.340 OA
ATOM      4  C   UNL     1       9.169  -2.416  23.129  0.00  0.00    +0.291 C 
ATOM      5  C   UNL     1       8.643  -1.447  22.047  0.00  0.00    +0.202 C 
ENDROOT
BRANCH   1   6
ATOM      6  O   UNL     1       6.349  -1.234  22.830  0.00  0.00    -0.386 OA
ATOM      7  H   UNL     1       5.822  -0.832  23.543  0.00  0.00    +0.210 HD
ENDBRANCH   1   6
BRANCH   5   8
ATOM      8  O   UNL     1       9.700  -0.616  21.559  0.00  0.00    -0.384 OA
ATOM      9  H   UNL     1       9.610  -0.568  20.591  0.00  0.00    +0.210 HD
ENDBRANCH   5   8
BRANCH   2  10
ATOM     10  C   UNL     1       9.239   0.601  24.392  0.00  0.00    +0.206 C 
BRANCH  10  11
ATOM     11  O   UNL     1       8.837   1.697  23.587  0.00  0.00    -0.284 OA
BRANCH  11  12
ATOM     12  P   UNL     1       9.961   2.690  23.036  0.00  0.00    +0.472 P 
ATOM     13  O   UNL     1      11.240   2.716  23.793  0.00  0.00    -0.228 OA
BRANCH  12  14
ATOM     14  O   UNL     1       9.222   4.099  22.944  0.00  0.00    -0.303 OA
ATOM     15  H   UNL     1       9.144   4.494  23.834  0.00  0.00    +0.222 HD
ENDBRANCH  12  14
BRANCH  12  16
ATOM     16  O   UNL     1      10.069   2.243  21.510  0.00  0.00    -0.303 OA
ATOM     17  H   UNL     1      10.234   1.285  21.441  0.00  0.00    +0.222 HD
ENDBRANCH  12  16
ENDBRANCH  11  12
ENDBRANCH  10  11
ENDBRANCH   2  10
BRANCH   4  18
ATOM     18  O   UNL     1       8.538  -3.682  22.950  0.00  0.00    -0.275 OA
BRANCH  18  19
ATOM     19  P   UNL     1       8.311  -4.657  24.266  0.00  0.00    +0.344 P 
ATOM     20  O   UNL     1       8.679  -6.078  23.824  0.00  0.00    -0.258 OA
BRANCH  19  21
ATOM     21  O   UNL     1       9.962  -4.423  24.726  0.00  0.00    -0.323 OA
ATOM     22  H   UNL     1      10.070  -5.004  25.511  0.00  0.00    +0.220 HD
ENDBRANCH  19  21
BRANCH  19  23
ATOM     23  C   UNL     1       6.564  -4.905  23.779  0.00  0.00    +0.253 C 
BRANCH  23  24
ATOM     24  P   UNL     1       6.088  -4.960  22.090  0.00  0.00    +0.339 P 
ATOM     25  O   UNL     1       5.680  -3.703  21.394  0.00  0.00    -0.258 OA
BRANCH  24  26
ATOM     26  O   UNL     1       4.908  -6.043  22.088  0.00  0.00    -0.324 OA
ATOM     27  H   UNL     1       5.164  -6.872  21.637  0.00  0.00    +0.220 HD
ENDBRANCH  24  26
BRANCH  24  28
ATOM     28  O   UNL     1       7.242  -5.748  21.309  0.00  0.00    -0.324 OA
ATOM     29  H   UNL     1       8.025  -5.925  21.860  0.00  0.00    +0.220 HD
ENDBRANCH  24  28
ENDBRANCH  23  24
ENDBRANCH  19  23
ENDBRANCH  18  19
ENDBRANCH   4  18
TORSDOF 14
ENDMDL
MODEL 2
REMARK VINA RESULT:      -5.7      2.099      6.965
REMARK  Name = 
REMARK  14 active torsions:
REMARK  status: ('A' for Active; 'I' for Inactive)
REMARK    1  A    between atoms: O_1  and  C_2
REMARK    2  A    between atoms: C_4  and  O_6
REMARK    3  A    between atoms: C_7  and  O_9
REMARK    4  A    between atoms: O_9  and  P_10
REMARK    5  A    between atoms: P_10  and  O_11
REMARK    6  A    between atoms: P_10  and  C_13
REMARK    7  A    between atoms: C_13  and  P_14
REMARK    8  A    between atoms: P_14  and  O_15
REMARK    9  A    between atoms: P_14  and  O_16
REMARK   10  A    between atoms: C_19  and  C_21
REMARK   11  A    between atoms: C_21  and  O_22
REMARK   12  A    between atoms: O_22  and  P_23
REMARK   13  A    between atoms: P_23  and  O_24
REMARK   14  A    between atoms: P_23  and  O_25
REMARK                            x       y       z     vdW  Elec       q    Type
REMARK                         _______ _______ _______ _____ _____    ______ ____
ROOT
ATOM      1  C   UNL     1       9.194  -2.005  23.641  0.00  0.00    +0.179 C 
ATOM      2  C   UNL     1       9.022  -1.565  25.092  0.00  0.00    +0.179 C 
ATOM      3  O   UNL     1       8.364  -0.277  25.035  0.00  0.00    -0.340 OA
ATOM      4  C   UNL     1       7.651  -0.167  23.784  0.00  0.00    +0.291 C 
ATOM      5  C   UNL     1       7.938  -1.455  22.981  0.00  0.00    +0.202 C 
ENDROOT
BRANCH   1   6
ATOM      6  O   UNL     1      10.369  -1.412  23.075  0.00  0.00    -0.386 OA
ATOM      7  H   UNL     1      10.142  -1.060  22.196  0.00  0.00    +0.210 HD
ENDBRANCH   1   6
BRANCH   5   8
ATOM      8  O   UNL     1       6.867  -2.391  23.132  0.00  0.00    -0.384 OA
ATOM      9  H   UNL     1       6.728  -2.524  24.087  0.00  0.00    +0.210 HD
ENDBRANCH   5   8
BRANCH   2  10
ATOM     10  C   UNL     1       8.215  -2.565  25.937  0.00  0.00    +0.206 C 
BRANCH  10  11
ATOM     11  O   UNL     1       9.032  -3.690  26.214  0.00  0.00    -0.284 OA
BRANCH  11  12
ATOM     12  P   UNL     1       8.605  -5.108  25.611  0.00  0.00    +0.472 P 
ATOM     13  O   UNL     1       7.617  -5.076  24.501  0.00  0.00    -0.228 OA
BRANCH  12  14
ATOM     14  O   UNL     1       8.137  -5.944  26.885  0.00  0.00    -0.303 OA
ATOM     15  H   UNL     1       7.466  -5.441  27.386  0.00  0.00    +0.222 HD
ENDBRANCH  12  14
BRANCH  12  16
ATOM     16  O   UNL     1      10.020  -5.752  25.261  0.00  0.00    -0.303 OA
ATOM     17  H   UNL     1      10.457  -5.257  24.545  0.00  0.00    +0.222 HD
ENDBRANCH  12  16
ENDBRANCH  11  12
ENDBRANCH  10  11
ENDBRANCH   2  10
BRANCH   4  18
ATOM     18  O   UNL     1       8.088   0.953  23.017  0.00  0.00    -0.275 OA
BRANCH  18  19
ATOM     19  P   UNL     1       7.287   2.391  23.172  0.00  0.00    +0.344 P 
ATOM     20  O   UNL     1       7.467   3.135  21.844  0.00  0.00    -0.258 OA
BRANCH  19  21
ATOM     21  O   UNL     1       5.858   1.667  22.518  0.00  0.00    -0.323 OA
ATOM     22  H   UNL     1       5.155   2.327  22.706  0.00  0.00    +0.220 HD
ENDBRANCH  19  21
BRANCH  19  23
ATOM     23  C   UNL     1       8.799   3.157  23.863  0.00  0.00    +0.253 C 
BRANCH  23  24
ATOM     24  P   UNL     1      10.394   2.702  23.288  0.00  0.00    +0.339 P 
ATOM     25  O   UNL     1      11.518   3.681  23.373  0.00  0.00    -0.258 OA
BRANCH  24  26
ATOM     26  O   UNL     1      10.114   2.257  21.775  0.00  0.00    -0.324 OA
ATOM     27  H   UNL     1       9.234   2.541  21.459  0.00  0.00    +0.220 HD
ENDBRANCH  24  26
BRANCH  24  28
ATOM     28  O   UNL     1      10.749   1.298  23.970  0.00  0.00    -0.324 OA
ATOM     29  H   UNL     1       9.966   0.748  24.144  0.00  0.00    +0.220 HD
ENDBRANCH  24  28
ENDBRANCH  23  24
ENDBRANCH  19  23
ENDBRANCH  18  19
ENDBRANCH   4  18
TORSDOF 14
ENDMDL
MODEL 3
REMARK VINA RESULT:      -5.7      1.763      3.346
REMARK  Name = 
REMARK  14 active torsions:
REMARK  status: ('A' for Active; 'I' for Inactive)
REMARK    1  A    between atoms: O_1  and  C_2
REMARK    2  A    between atoms: C_4  and  O_6
REMARK    3  A    between atoms: C_7  and  O_9
REMARK    4  A    between atoms: O_9  and  P_10
REMARK    5  A    between atoms: P_10  and  O_11
REMARK    6  A    between atoms: P_10  and  C_13
REMARK    7  A    between atoms: C_13  and  P_14
REMARK    8  A    between atoms: P_14  and  O_15
REMARK    9  A    between atoms: P_14  and  O_16
REMARK   10  A    between atoms: C_19  and  C_21
REMARK   11  A    between atoms: C_21  and  O_22
REMARK   12  A    between atoms: O_22  and  P_23
REMARK   13  A    between atoms: P_23  and  O_24
REMARK   14  A    between atoms: P_23  and  O_25
REMARK                            x       y       z     vdW  Elec       q    Type
REMARK                         _______ _______ _______ _____ _____    ______ ____
ROOT
ATOM      1  C   UNL     1       8.094  -1.096  24.234  0.00  0.00    +0.179 C 
ATOM      2  C   UNL     1       8.873  -1.796  23.124  0.00  0.00    +0.179 C 
ATOM      3  O   UNL     1       7.956  -2.755  22.547  0.00  0.00    -0.340 OA
ATOM      4  C   UNL     1       6.601  -2.329  22.808  0.00  0.00    +0.291 C 
ATOM      5  C   UNL     1       6.684  -1.044  23.661  0.00  0.00    +0.202 C 
ENDROOT
BRANCH   1   6
ATOM      6  O   UNL     1       8.127  -1.875  25.436  0.00  0.00    -0.386 OA
ATOM      7  H   UNL     1       9.019  -1.807  25.821  0.00  0.00    +0.210 HD
ENDBRANCH   1   6
BRANCH   5   8
ATOM      8  O   UNL     1       6.542   0.117  22.838  0.00  0.00    -0.384 OA
ATOM      9  H   UNL     1       5.747   0.593  23.139  0.00  0.00    +0.210 HD
ENDBRANCH   5   8
BRANCH   2  10
ATOM     10  C   UNL     1       9.409  -0.828  22.057  0.00  0.00    +0.206 C 
BRANCH  10  11
ATOM     11  O   UNL     1       9.824   0.369  22.695  0.00  0.00    -0.284 OA
BRANCH  11  12
ATOM     12  P   UNL     1       9.246   1.759  22.159  0.00  0.00    +0.472 P 
ATOM     13  O   UNL     1       8.402   2.528  23.110  0.00  0.00    -0.228 OA
BRANCH  12  14
ATOM     14  O   UNL     1       8.516   1.373  20.795  0.00  0.00    -0.303 OA
ATOM     15  H   UNL     1       9.127   1.494  20.044  0.00  0.00    +0.222 HD
ENDBRANCH  12  14
BRANCH  12  16
ATOM     16  O   UNL     1      10.571   2.491  21.660  0.00  0.00    -0.303 OA
ATOM     17  H   UNL     1      10.560   2.604  20.693  0.00  0.00    +0.222 HD
ENDBRANCH  12  16
ENDBRANCH  11  12
ENDBRANCH  10  11
ENDBRANCH   2  10
BRANCH   4  18
ATOM     18  O   UNL     1       5.863  -3.310  23.534  0.00  0.00    -0.275 OA
BRANCH  18  19
ATOM     19  P   UNL     1       5.495  -4.744  22.797  0.00  0.00    +0.344 P 
ATOM     20  O   UNL     1       3.968  -4.794  22.679  0.00  0.00    -0.258 OA
BRANCH  19  21
ATOM     21  O   UNL     1       5.541  -3.964  21.254  0.00  0.00    -0.323 OA
ATOM     22  H   UNL     1       6.056  -4.584  20.693  0.00  0.00    +0.220 HD
ENDBRANCH  19  21
BRANCH  19  23
ATOM     23  C   UNL     1       5.447  -5.568  24.430  0.00  0.00    +0.253 C 
BRANCH  23  24
ATOM     24  P   UNL     1       6.606  -5.169  25.687  0.00  0.00    +0.339 P 
ATOM     25  O   UNL     1       6.837  -6.123  26.812  0.00  0.00    -0.258 OA
BRANCH  24  26
ATOM     26  O   UNL     1       6.083  -3.751  26.216  0.00  0.00    -0.324 OA
ATOM     27  H   UNL     1       5.883  -3.131  25.488  0.00  0.00    +0.220 HD
ENDBRANCH  24  26
BRANCH  24  28
ATOM     28  O   UNL     1       7.963  -4.749  24.949  0.00  0.00    -0.324 OA
ATOM     29  H   UNL     1       7.813  -4.273  24.114  0.00  0.00    +0.220 HD
ENDBRANCH  24  28
ENDBRANCH  23  24
ENDBRANCH  19  23
ENDBRANCH  18  19
ENDBRANCH   4  18
TORSDOF 14
ENDMDL
MODEL 4
REMARK VINA RESULT:      -5.6      3.005      4.190
REMARK  Name = 
REMARK  14 active torsions:
REMARK  status: ('A' for Active; 'I' for Inactive)
REMARK    1  A    between atoms: O_1  and  C_2
REMARK    2  A    between atoms: C_4  and  O_6
REMARK    3  A    between atoms: C_7  and  O_9
REMARK    4  A    between atoms: O_9  and  P_10
REMARK    5  A    between atoms: P_10  and  O_11
REMARK    6  A    between atoms: P_10  and  C_13
REMARK    7  A    between atoms: C_13  and  P_14
REMARK    8  A    between atoms: P_14  and  O_15
REMARK    9  A    between atoms: P_14  and  O_16
REMARK   10  A    between atoms: C_19  and  C_21
REMARK   11  A    between atoms: C_21  and  O_22
REMARK   12  A    between atoms: O_22  and  P_23
REMARK   13  A    between atoms: P_23  and  O_24
REMARK   14  A    between atoms: P_23  and  O_25
REMARK                            x       y       z     vdW  Elec       q    Type
REMARK                         _______ _______ _______ _____ _____    ______ ____
ROOT
ATOM      1  C   UNL     1       7.992  -4.497  23.778  0.00  0.00    +0.179 C 
ATOM      2  C   UNL     1       7.631  -3.302  24.656  0.00  0.00    +0.179 C 
ATOM      3  O   UNL     1       7.125  -3.863  25.891  0.00  0.00    -0.340 OA
ATOM      4  C   UNL     1       7.649  -5.199  26.052  0.00  0.00    +0.291 C 
ATOM      5  C   UNL     1       8.492  -5.512  24.796  0.00  0.00    +0.202 C 
ENDROOT
BRANCH   1   6
ATOM      6  O   UNL     1       6.831  -4.986  23.098  0.00  0.00    -0.386 OA
ATOM      7  H   UNL     1       6.618  -4.371  22.374  0.00  0.00    +0.210 HD
ENDBRANCH   1   6
BRANCH   5   8
ATOM      8  O   UNL     1       9.881  -5.289  25.055  0.00  0.00    -0.384 OA
ATOM      9  H   UNL     1      10.235  -4.763  24.316  0.00  0.00    +0.210 HD
ENDBRANCH   5   8
BRANCH   2  10
ATOM     10  C   UNL     1       8.818  -2.362  24.919  0.00  0.00    +0.206 C 
BRANCH  10  11
ATOM     11  O   UNL     1       9.680  -2.391  23.793  0.00  0.00    -0.284 OA
BRANCH  11  12
ATOM     12  P   UNL     1       9.860  -1.053  22.937  0.00  0.00    +0.472 P 
ATOM     13  O   UNL     1      10.765  -0.024  23.513  0.00  0.00    -0.228 OA
BRANCH  12  14
ATOM     14  O   UNL     1       8.368  -0.550  22.687  0.00  0.00    -0.303 OA
ATOM     15  H   UNL     1       8.371   0.213  22.078  0.00  0.00    +0.222 HD
ENDBRANCH  12  14
BRANCH  12  16
ATOM     16  O   UNL     1      10.285  -1.631  21.515  0.00  0.00    -0.303 OA
ATOM     17  H   UNL     1       9.557  -2.143  21.118  0.00  0.00    +0.222 HD
ENDBRANCH  12  16
ENDBRANCH  11  12
ENDBRANCH  10  11
ENDBRANCH   2  10
BRANCH   4  18
ATOM     18  O   UNL     1       6.611  -6.171  26.156  0.00  0.00    -0.275 OA
BRANCH  18  19
ATOM     19  P   UNL     1       5.560  -6.089  27.430  0.00  0.00    +0.344 P 
ATOM     20  O   UNL     1       5.790  -7.353  28.266  0.00  0.00    -0.258 OA
BRANCH  19  21
ATOM     21  O   UNL     1       6.772  -5.299  28.379  0.00  0.00    -0.323 OA
ATOM     22  H   UNL     1       7.064  -5.992  29.010  0.00  0.00    +0.220 HD
ENDBRANCH  19  21
BRANCH  19  23
ATOM     23  C   UNL     1       4.279  -6.925  26.426  0.00  0.00    +0.253 C 
BRANCH  23  24
ATOM     24  P   UNL     1       3.873  -6.361  24.814  0.00  0.00    +0.339 P 
ATOM     25  O   UNL     1       2.465  -6.455  24.329  0.00  0.00    -0.258 OA
BRANCH  24  26
ATOM     26  O   UNL     1       4.873  -7.197  23.882  0.00  0.00    -0.324 OA
ATOM     27  H   UNL     1       5.808  -7.088  24.146  0.00  0.00    +0.220 HD
ENDBRANCH  24  26
BRANCH  24  28
ATOM     28  O   UNL     1       4.474  -4.883  24.675  0.00  0.00    -0.324 OA
ATOM     29  H   UNL     1       5.301  -4.853  24.162  0.00  0.00    +0.220 HD
ENDBRANCH  24  28
ENDBRANCH  23  24
ENDBRANCH  19  23
ENDBRANCH  18  19
ENDBRANCH   4  18
TORSDOF 14
ENDMDL
MODEL 5
REMARK VINA RESULT:      -5.4      1.968      6.517
REMARK  Name = 
REMARK  14 active torsions:
REMARK  status: ('A' for Active; 'I' for Inactive)
REMARK    1  A    between atoms: O_1  and  C_2
REMARK    2  A    between atoms: C_4  and  O_6
REMARK    3  A    between atoms: C_7  and  O_9
REMARK    4  A    between atoms: O_9  and  P_10
REMARK    5  A    between atoms: P_10  and  O_11
REMARK    6  A    between atoms: P_10  and  C_13
REMARK    7  A    between atoms: C_13  and  P_14
REMARK    8  A    between atoms: P_14  and  O_15
REMARK    9  A    between atoms: P_14  and  O_16
REMARK   10  A    between atoms: C_19  and  C_21
REMARK   11  A    between atoms: C_21  and  O_22
REMARK   12  A    between atoms: O_22  and  P_23
REMARK   13  A    between atoms: P_23  and  O_24
REMARK   14  A    between atoms: P_23  and  O_25
REMARK                            x       y       z     vdW  Elec       q    Type
REMARK                         _______ _______ _______ _____ _____    ______ ____
ROOT
ATOM      1  C   UNL     1       5.712  -3.533  22.692  0.00  0.00    +0.179 C 
ATOM      2  C   UNL     1       6.870  -4.466  23.037  0.00  0.00    +0.179 C 
ATOM      3  O   UNL     1       8.058  -3.639  23.020  0.00  0.00    -0.340 OA
ATOM      4  C   UNL     1       7.678  -2.264  23.246  0.00  0.00    +0.291 C 
ATOM      5  C   UNL     1       6.137  -2.227  23.350  0.00  0.00    +0.202 C 
ENDROOT
BRANCH   1   6
ATOM      6  O   UNL     1       5.602  -3.377  21.273  0.00  0.00    -0.386 OA
ATOM      7  H   UNL     1       6.273  -2.733  20.982  0.00  0.00    +0.210 HD
ENDBRANCH   1   6
BRANCH   5   8
ATOM      8  O   UNL     1       5.725  -2.223  24.720  0.00  0.00    -0.384 OA
ATOM      9  H   UNL     1       5.291  -1.368  24.891  0.00  0.00    +0.210 HD
ENDBRANCH   5   8
BRANCH   2  10
ATOM     10  C   UNL     1       6.700  -5.166  24.395  0.00  0.00    +0.206 C 
BRANCH  10  11
ATOM     11  O   UNL     1       7.978  -5.326  24.988  0.00  0.00    -0.284 OA
BRANCH  11  12
ATOM     12  P   UNL     1       8.195  -4.803  26.483  0.00  0.00    +0.472 P 
ATOM     13  O   UNL     1       7.592  -3.484  26.809  0.00  0.00    -0.228 OA
BRANCH  12  14
ATOM     14  O   UNL     1       9.773  -4.874  26.692  0.00  0.00    -0.303 OA
ATOM     15  H   UNL     1      10.156  -3.977  26.650  0.00  0.00    +0.222 HD
ENDBRANCH  12  14
BRANCH  12  16
ATOM     16  O   UNL     1       7.665  -6.038  27.338  0.00  0.00    -0.303 OA
ATOM     17  H   UNL     1       8.175  -6.843  27.137  0.00  0.00    +0.222 HD
ENDBRANCH  12  16
ENDBRANCH  11  12
ENDBRANCH  10  11
ENDBRANCH   2  10
BRANCH   4  18
ATOM     18  O   UNL     1       8.080  -1.415  22.173  0.00  0.00    -0.275 OA
BRANCH  18  19
ATOM     19  P   UNL     1       9.481  -0.549  22.320  0.00  0.00    +0.344 P 
ATOM     20  O   UNL     1      10.001  -0.798  23.740  0.00  0.00    -0.258 OA
BRANCH  19  21
ATOM     21  O   UNL     1      10.389  -1.926  21.798  0.00  0.00    -0.323 OA
ATOM     22  H   UNL     1      11.321  -1.674  21.979  0.00  0.00    +0.220 HD
ENDBRANCH  19  21
BRANCH  19  23
ATOM     23  C   UNL     1       8.521   0.908  22.872  0.00  0.00    +0.253 C 
BRANCH  23  24
ATOM     24  P   UNL     1       9.203   2.525  22.813  0.00  0.00    +0.339 P 
ATOM     25  O   UNL     1       9.623   3.198  24.077  0.00  0.00    -0.258 OA
BRANCH  24  26
ATOM     26  O   UNL     1       8.070   3.361  22.050  0.00  0.00    -0.324 OA
ATOM     27  H   UNL     1       8.418   3.837  21.270  0.00  0.00    +0.220 HD
ENDBRANCH  24  26
BRANCH  24  28
ATOM     28  O   UNL     1      10.367   2.496  21.714  0.00  0.00    -0.324 OA
ATOM     29  H   UNL     1      10.214   1.842  21.011  0.00  0.00    +0.220 HD
ENDBRANCH  24  28
ENDBRANCH  23  24
ENDBRANCH  19  23
ENDBRANCH  18  19
ENDBRANCH   4  18
TORSDOF 14
ENDMDL
MODEL 6
REMARK VINA RESULT:      -5.4      3.145      6.559
REMARK  Name = 
REMARK  14 active torsions:
REMARK  status: ('A' for Active; 'I' for Inactive)
REMARK    1  A    between atoms: O_1  and  C_2
REMARK    2  A    between atoms: C_4  and  O_6
REMARK    3  A    between atoms: C_7  and  O_9
REMARK    4  A    between atoms: O_9  and  P_10
REMARK    5  A    between atoms: P_10  and  O_11
REMARK    6  A    between atoms: P_10  and  C_13
REMARK    7  A    between atoms: C_13  and  P_14
REMARK    8  A    between atoms: P_14  and  O_15
REMARK    9  A    between atoms: P_14  and  O_16
REMARK   10  A    between atoms: C_19  and  C_21
REMARK   11  A    between atoms: C_21  and  O_22
REMARK   12  A    between atoms: O_22  and  P_23
REMARK   13  A    between atoms: P_23  and  O_24
REMARK   14  A    between atoms: P_23  and  O_25
REMARK                            x       y       z     vdW  Elec       q    Type
REMARK                         _______ _______ _______ _____ _____    ______ ____
ROOT
ATOM      1  C   UNL     1       9.545   2.497  22.651  0.00  0.00    +0.179 C 
ATOM      2  C   UNL     1       9.586   1.608  23.891  0.00  0.00    +0.179 C 
ATOM      3  O   UNL     1       8.224   1.161  24.097  0.00  0.00    -0.340 OA
ATOM      4  C   UNL     1       7.510   1.230  22.843  0.00  0.00    +0.291 C 
ATOM      5  C   UNL     1       8.482   1.819  21.797  0.00  0.00    +0.202 C 
ENDROOT
BRANCH   1   6
ATOM      6  O   UNL     1       9.145   3.827  23.002  0.00  0.00    -0.386 OA
ATOM      7  H   UNL     1       9.743   4.454  22.557  0.00  0.00    +0.210 HD
ENDBRANCH   1   6
BRANCH   5   8
ATOM      8  O   UNL     1       9.081   0.776  21.023  0.00  0.00    -0.384 OA
ATOM      9  H   UNL     1       9.097  -0.025  21.576  0.00  0.00    +0.210 HD
ENDBRANCH   5   8
BRANCH   2  10
ATOM     10  C   UNL     1      10.546   0.417  23.751  0.00  0.00    +0.206 C 
BRANCH  10  11
ATOM     11  O   UNL     1       9.928  -0.734  24.304  0.00  0.00    -0.284 OA
BRANCH  11  12
ATOM     12  P   UNL     1       9.740  -2.019  23.373  0.00  0.00    +0.472 P 
ATOM     13  O   UNL     1      10.065  -3.330  23.994  0.00  0.00    -0.228 OA
BRANCH  12  14
ATOM     14  O   UNL     1      10.591  -1.679  22.069  0.00  0.00    -0.303 OA
ATOM     15  H   UNL     1      11.332  -1.087  22.299  0.00  0.00    +0.222 HD
ENDBRANCH  12  14
BRANCH  12  16
ATOM     16  O   UNL     1       8.237  -1.842  22.875  0.00  0.00    -0.303 OA
ATOM     17  H   UNL     1       7.636  -1.707  23.630  0.00  0.00    +0.222 HD
ENDBRANCH  12  16
ENDBRANCH  11  12
ENDBRANCH  10  11
ENDBRANCH   2  10
BRANCH   4  18
ATOM     18  O   UNL     1       6.365   2.076  22.925  0.00  0.00    -0.275 OA
BRANCH  18  19
ATOM     19  P   UNL     1       5.595   2.241  24.379  0.00  0.00    +0.344 P 
ATOM     20  O   UNL     1       4.099   2.357  24.069  0.00  0.00    -0.258 OA
BRANCH  19  21
ATOM     21  O   UNL     1       5.395   0.526  24.471  0.00  0.00    -0.323 OA
ATOM     22  H   UNL     1       4.863   0.309  23.673  0.00  0.00    +0.220 HD
ENDBRANCH  19  21
BRANCH  19  23
ATOM     23  C   UNL     1       5.807   4.057  24.282  0.00  0.00    +0.253 C 
BRANCH  23  24
ATOM     24  P   UNL     1       5.494   4.932  22.793  0.00  0.00    +0.339 P 
ATOM     25  O   UNL     1       4.864   6.284  22.847  0.00  0.00    -0.258 OA
BRANCH  24  26
ATOM     26  O   UNL     1       4.600   3.900  21.955  0.00  0.00    -0.324 OA
ATOM     27  H   UNL     1       3.658   4.159  21.927  0.00  0.00    +0.220 HD
ENDBRANCH  24  26
BRANCH  24  28
ATOM     28  O   UNL     1       6.857   4.922  21.954  0.00  0.00    -0.324 OA
ATOM     29  H   UNL     1       6.959   5.700  21.379  0.00  0.00    +0.220 HD
ENDBRANCH  24  28
ENDBRANCH  23  24
ENDBRANCH  19  23
ENDBRANCH  18  19
ENDBRANCH   4  18
TORSDOF 14
ENDMDL
MODEL 7
REMARK VINA RESULT:      -5.4      2.300      3.744
REMARK  Name = 
REMARK  14 active torsions:
REMARK  status: ('A' for Active; 'I' for Inactive)
REMARK    1  A    between atoms: O_1  and  C_2
REMARK    2  A    between atoms: C_4  and  O_6
REMARK    3  A    between atoms: C_7  and  O_9
REMARK    4  A    between atoms: O_9  and  P_10
REMARK    5  A    between atoms: P_10  and  O_11
REMARK    6  A    between atoms: P_10  and  C_13
REMARK    7  A    between atoms: C_13  and  P_14
REMARK    8  A    between atoms: P_14  and  O_15
REMARK    9  A    between atoms: P_14  and  O_16
REMARK   10  A    between atoms: C_19  and  C_21
REMARK   11  A    between atoms: C_21  and  O_22
REMARK   12  A    between atoms: O_22  and  P_23
REMARK   13  A    between atoms: P_23  and  O_24
REMARK   14  A    between atoms: P_23  and  O_25
REMARK                            x       y       z     vdW  Elec       q    Type
REMARK                         _______ _______ _______ _____ _____    ______ ____
ROOT
ATOM      1  C   UNL     1      10.428  -0.617  22.832  0.00  0.00    +0.179 C 
ATOM      2  C   UNL     1       9.389  -0.116  21.833  0.00  0.00    +0.179 C 
ATOM      3  O   UNL     1       8.131  -0.698  22.251  0.00  0.00    -0.340 OA
ATOM      4  C   UNL     1       8.206  -1.024  23.656  0.00  0.00    +0.291 C 
ATOM      5  C   UNL     1       9.634  -0.674  24.130  0.00  0.00    +0.202 C 
ENDROOT
BRANCH   1   6
ATOM      6  O   UNL     1      10.890  -1.921  22.460  0.00  0.00    -0.386 OA
ATOM      7  H   UNL     1      11.767  -2.061  22.861  0.00  0.00    +0.210 HD
ENDBRANCH   1   6
BRANCH   5   8
ATOM      8  O   UNL     1       9.654   0.609  24.762  0.00  0.00    -0.384 OA
ATOM      9  H   UNL     1      10.525   0.712  25.186  0.00  0.00    +0.210 HD
ENDBRANCH   5   8
BRANCH   2  10
ATOM     10  C   UNL     1       9.297   1.417  21.772  0.00  0.00    +0.206 C 
BRANCH  10  11
ATOM     11  O   UNL     1       7.971   1.781  21.425  0.00  0.00    -0.284 OA
BRANCH  11  12
ATOM     12  P   UNL     1       7.048   2.453  22.543  0.00  0.00    +0.472 P 
ATOM     13  O   UNL     1       7.726   2.832  23.810  0.00  0.00    -0.228 OA
BRANCH  12  14
ATOM     14  O   UNL     1       5.845   1.423  22.722  0.00  0.00    -0.303 OA
ATOM     15  H   UNL     1       4.994   1.900  22.723  0.00  0.00    +0.222 HD
ENDBRANCH  12  14
BRANCH  12  16
ATOM     16  O   UNL     1       6.376   3.649  21.733  0.00  0.00    -0.303 OA
ATOM     17  H   UNL     1       6.148   4.385  22.329  0.00  0.00    +0.222 HD
ENDBRANCH  12  16
ENDBRANCH  11  12
ENDBRANCH  10  11
ENDBRANCH   2  10
BRANCH   4  18
ATOM     18  O   UNL     1       7.975  -2.411  23.896  0.00  0.00    -0.275 OA
BRANCH  18  19
ATOM     19  P   UNL     1       6.436  -2.923  24.219  0.00  0.00    +0.344 P 
ATOM     20  O   UNL     1       6.150  -2.550  25.678  0.00  0.00    -0.258 OA
BRANCH  19  21
ATOM     21  O   UNL     1       5.822  -1.374  23.753  0.00  0.00    -0.323 OA
ATOM     22  H   UNL     1       6.323  -0.745  24.316  0.00  0.00    +0.220 HD
ENDBRANCH  19  21
BRANCH  19  23
ATOM     23  C   UNL     1       7.087  -4.561  24.712  0.00  0.00    +0.253 C 
BRANCH  23  24
ATOM     24  P   UNL     1       8.616  -4.716  25.561  0.00  0.00    +0.339 P 
ATOM     25  O   UNL     1       9.865  -4.990  24.791  0.00  0.00    -0.258 OA
BRANCH  24  26
ATOM     26  O   UNL     1       8.316  -5.874  26.626  0.00  0.00    -0.324 OA
ATOM     27  H   UNL     1       7.473  -6.336  26.448  0.00  0.00    +0.220 HD
ENDBRANCH  24  26
BRANCH  24  28
ATOM     28  O   UNL     1       8.748  -3.437  26.514  0.00  0.00    -0.324 OA
ATOM     29  H   UNL     1       9.606  -3.387  26.971  0.00  0.00    +0.220 HD
ENDBRANCH  24  28
ENDBRANCH  23  24
ENDBRANCH  19  23
ENDBRANCH  18  19
ENDBRANCH   4  18
TORSDOF 14
ENDMDL
MODEL 8
REMARK VINA RESULT:      -5.3      2.156      3.581
REMARK  Name = 
REMARK  14 active torsions:
REMARK  status: ('A' for Active; 'I' for Inactive)
REMARK    1  A    between atoms: O_1  and  C_2
REMARK    2  A    between atoms: C_4  and  O_6
REMARK    3  A    between atoms: C_7  and  O_9
REMARK    4  A    between atoms: O_9  and  P_10
REMARK    5  A    between atoms: P_10  and  O_11
REMARK    6  A    between atoms: P_10  and  C_13
REMARK    7  A    between atoms: C_13  and  P_14
REMARK    8  A    between atoms: P_14  and  O_15
REMARK    9  A    between atoms: P_14  and  O_16
REMARK   10  A    between atoms: C_19  and  C_21
REMARK   11  A    between atoms: C_21  and  O_22
REMARK   12  A    between atoms: O_22  and  P_23
REMARK   13  A    between atoms: P_23  and  O_24
REMARK   14  A    between atoms: P_23  and  O_25
REMARK                            x       y       z     vdW  Elec       q    Type
REMARK                         _______ _______ _______ _____ _____    ______ ____
ROOT
ATOM      1  C   UNL     1       6.980  -0.195  25.814  0.00  0.00    +0.179 C 
ATOM      2  C   UNL     1       8.398  -0.305  25.261  0.00  0.00    +0.179 C 
ATOM      3  O   UNL     1       8.381  -1.439  24.363  0.00  0.00    -0.340 OA
ATOM      4  C   UNL     1       7.027  -1.662  23.910  0.00  0.00    +0.291 C 
ATOM      5  C   UNL     1       6.131  -0.628  24.628  0.00  0.00    +0.202 C 
ENDROOT
BRANCH   1   6
ATOM      6  O   UNL     1       6.804  -1.087  26.920  0.00  0.00    -0.386 OA
ATOM      7  H   UNL     1       7.682  -1.299  27.286  0.00  0.00    +0.210 HD
ENDBRANCH   1   6
BRANCH   5   8
ATOM      8  O   UNL     1       5.881   0.496  23.779  0.00  0.00    -0.384 OA
ATOM      9  H   UNL     1       5.640   1.246  24.352  0.00  0.00    +0.210 HD
ENDBRANCH   5   8
BRANCH   2  10
ATOM     10  C   UNL     1       8.867   0.968  24.539  0.00  0.00    +0.206 C 
BRANCH  10  11
ATOM     11  O   UNL     1       9.664   0.594  23.427  0.00  0.00    -0.284 OA
BRANCH  11  12
ATOM     12  P   UNL     1       9.168   1.002  21.963  0.00  0.00    +0.472 P 
ATOM     13  O   UNL     1       7.751   1.435  21.849  0.00  0.00    -0.228 OA
BRANCH  12  14
ATOM     14  O   UNL     1       9.546  -0.257  21.062  0.00  0.00    -0.303 OA
ATOM     15  H   UNL     1       8.771  -0.844  20.968  0.00  0.00    +0.222 HD
ENDBRANCH  12  14
BRANCH  12  16
ATOM     16  O   UNL     1      10.260   2.084  21.541  0.00  0.00    -0.303 OA
ATOM     17  H   UNL     1      10.264   2.212  20.576  0.00  0.00    +0.222 HD
ENDBRANCH  12  16
ENDBRANCH  11  12
ENDBRANCH  10  11
ENDBRANCH   2  10
BRANCH   4  18
ATOM     18  O   UNL     1       6.563  -2.970  24.237  0.00  0.00    -0.275 OA
BRANCH  18  19
ATOM     19  P   UNL     1       7.370  -4.281  23.633  0.00  0.00    +0.344 P 
ATOM     20  O   UNL     1       6.367  -5.046  22.762  0.00  0.00    -0.258 OA
BRANCH  19  21
ATOM     21  O   UNL     1       7.814  -3.365  22.235  0.00  0.00    -0.323 OA
ATOM     22  H   UNL     1       7.388  -2.492  22.382  0.00  0.00    +0.220 HD
ENDBRANCH  19  21
BRANCH  19  23
ATOM     23  C   UNL     1       6.899  -5.250  25.113  0.00  0.00    +0.253 C 
BRANCH  23  24
ATOM     24  P   UNL     1       7.215  -4.651  26.733  0.00  0.00    +0.339 P 
ATOM     25  O   UNL     1       6.112  -4.022  27.518  0.00  0.00    -0.258 OA
BRANCH  24  26
ATOM     26  O   UNL     1       8.430  -3.632  26.504  0.00  0.00    -0.324 OA
ATOM     27  H   UNL     1       8.270  -3.021  25.757  0.00  0.00    +0.220 HD
ENDBRANCH  24  26
BRANCH  24  28
ATOM     28  O   UNL     1       7.942  -5.833  27.531  0.00  0.00    -0.324 OA
ATOM     29  H   UNL     1       8.790  -6.098  27.134  0.00  0.00    +0.220 HD
ENDBRANCH  24  28
ENDBRANCH  23  24
ENDBRANCH  19  23
ENDBRANCH  18  19
ENDBRANCH   4  18
TORSDOF 14
ENDMDL
MODEL 9
REMARK VINA RESULT:      -5.3      1.924      6.910
REMARK  Name = 
REMARK  14 active torsions:
REMARK  status: ('A' for Active; 'I' for Inactive)
REMARK    1  A    between atoms: O_1  and  C_2
REMARK    2  A    between atoms: C_4  and  O_6
REMARK    3  A    between atoms: C_7  and  O_9
REMARK    4  A    between atoms: O_9  and  P_10
REMARK    5  A    between atoms: P_10  and  O_11
REMARK    6  A    between atoms: P_10  and  C_13
REMARK    7  A    between atoms: C_13  and  P_14
REMARK    8  A    between atoms: P_14  and  O_15
REMARK    9  A    between atoms: P_14  and  O_16
REMARK   10  A    between atoms: C_19  and  C_21
REMARK   11  A    between atoms: C_21  and  O_22
REMARK   12  A    between atoms: O_22  and  P_23
REMARK   13  A    between atoms: P_23  and  O_24
REMARK   14  A    between atoms: P_23  and  O_25
REMARK                            x       y       z     vdW  Elec       q    Type
REMARK                         _______ _______ _______ _____ _____    ______ ____
ROOT
ATOM      1  C   UNL     1       7.195  -2.890  24.891  0.00  0.00    +0.179 C 
ATOM      2  C   UNL     1       7.246  -3.502  23.494  0.00  0.00    +0.179 C 
ATOM      3  O   UNL     1       8.399  -2.911  22.849  0.00  0.00    -0.340 OA
ATOM      4  C   UNL     1       9.325  -2.458  23.861  0.00  0.00    +0.291 C 
ATOM      5  C   UNL     1       8.671  -2.733  25.233  0.00  0.00    +0.202 C 
ENDROOT
BRANCH   1   6
ATOM      6  O   UNL     1       6.542  -1.616  24.856  0.00  0.00    -0.386 OA
ATOM      7  H   UNL     1       6.073  -1.488  25.700  0.00  0.00    +0.210 HD
ENDBRANCH   1   6
BRANCH   5   8
ATOM      8  O   UNL     1       9.167  -3.952  25.791  0.00  0.00    -0.384 OA
ATOM      9  H   UNL     1       8.823  -4.019  26.700  0.00  0.00    +0.210 HD
ENDBRANCH   5   8
BRANCH   2  10
ATOM     10  C   UNL     1       7.343  -5.036  23.508  0.00  0.00    +0.206 C 
BRANCH  10  11
ATOM     11  O   UNL     1       6.162  -5.562  24.091  0.00  0.00    -0.284 OA
BRANCH  11  12
ATOM     12  P   UNL     1       4.969  -6.009  23.125  0.00  0.00    +0.472 P 
ATOM     13  O   UNL     1       3.922  -4.987  22.863  0.00  0.00    -0.228 OA
BRANCH  12  14
ATOM     14  O   UNL     1       4.425  -7.356  23.781  0.00  0.00    -0.303 OA
ATOM     15  H   UNL     1       5.151  -8.002  23.867  0.00  0.00    +0.222 HD
ENDBRANCH  12  14
BRANCH  12  16
ATOM     16  O   UNL     1       5.764  -6.529  21.847  0.00  0.00    -0.303 OA
ATOM     17  H   UNL     1       6.151  -7.408  22.014  0.00  0.00    +0.222 HD
ENDBRANCH  12  16
ENDBRANCH  11  12
ENDBRANCH  10  11
ENDBRANCH   2  10
BRANCH   4  18
ATOM     18  O   UNL     1       9.589  -1.060  23.756  0.00  0.00    -0.275 OA
BRANCH  18  19
ATOM     19  P   UNL     1       9.221  -0.279  22.345  0.00  0.00    +0.344 P 
ATOM     20  O   UNL     1      10.327   0.758  22.121  0.00  0.00    -0.258 OA
BRANCH  19  21
ATOM     21  O   UNL     1      10.177  -1.419  21.463  0.00  0.00    -0.323 OA
ATOM     22  H   UNL     1      10.290  -2.166  22.091  0.00  0.00    +0.220 HD
ENDBRANCH  19  21
BRANCH  19  23
ATOM     23  C   UNL     1       8.210   0.927  23.279  0.00  0.00    +0.253 C 
BRANCH  23  24
ATOM     24  P   UNL     1       8.767   1.597  24.803  0.00  0.00    +0.339 P 
ATOM     25  O   UNL     1       8.462   3.018  25.143  0.00  0.00    -0.258 OA
BRANCH  24  26
ATOM     26  O   UNL     1      10.346   1.331  24.752  0.00  0.00    -0.324 OA
ATOM     27  H   UNL     1      10.773   1.447  25.624  0.00  0.00    +0.220 HD
ENDBRANCH  24  26
BRANCH  24  28
ATOM     28  O   UNL     1       8.312   0.579  25.951  0.00  0.00    -0.324 OA
ATOM     29  H   UNL     1       8.415  -0.355  25.697  0.00  0.00    +0.220 HD
ENDBRANCH  24  28
ENDBRANCH  23  24
ENDBRANCH  19  23
ENDBRANCH  18  19
ENDBRANCH   4  18
TORSDOF 14
ENDMDL
