MODEL 1
REMARK VINA RESULT:      -6.7      0.000      0.000
REMARK  Name = 
REMARK  8 active torsions:
REMARK  status: ('A' for Active; 'I' for Inactive)
REMARK    1  A    between atoms: O_1  and  C_2
REMARK    2  A    between atoms: C_2  and  C_4
REMARK    3  A    between atoms: C_4  and  O_5
REMARK    4  A    between atoms: O_5  and  C_6
REMARK    5  A    between atoms: C_6  and  C_8
REMARK    6  A    between atoms: N_13  and  C_14
REMARK    7  A    between atoms: C_14  and  C_15
REMARK    8  A    between atoms: C_15  and  O_16
REMARK                            x       y       z     vdW  Elec       q    Type
REMARK                         _______ _______ _______ _____ _____    ______ ____
ROOT
ATOM      1  C   UNL     1       7.286  -3.678  24.170  0.00  0.00    +0.087 A 
ATOM      2  C   UNL     1       6.259  -3.814  25.116  0.00  0.00    +0.025 A 
ATOM      3  C   UNL     1       5.941  -2.789  26.031  0.00  0.00    -0.016 A 
ATOM      4  C   UNL     1       6.647  -1.561  25.996  0.00  0.00    -0.004 A 
ATOM      5  C   UNL     1       6.263  -0.544  26.898  0.00  0.00    +0.009 A 
ATOM      6  C   UNL     1       5.227  -0.737  27.812  0.00  0.00    +0.001 A 
ATOM      7  C   UNL     1       4.558  -1.953  27.851  0.00  0.00    +0.001 A 
ATOM      8  C   UNL     1       7.683  -1.444  25.051  0.00  0.00    +0.073 A 
ATOM      9  C   UNL     1       8.503  -0.235  24.788  0.00  0.00    +0.269 C 
ATOM     10  N   UNL     1       9.398  -0.486  23.727  0.00  0.00    -0.157 N 
ATOM     11  S   UNL     1       9.315  -2.041  23.146  0.00  0.00    +0.079 S 
ATOM     12  O   UNL     1       8.861  -2.066  21.777  0.00  0.00    -0.150 OA
ATOM     13  O   UNL     1      10.531  -2.686  23.581  0.00  0.00    -0.150 OA
ATOM     14  O   UNL     1       8.420   0.834  25.361  0.00  0.00    -0.268 OA
ATOM     15  C   UNL     1       4.911  -2.971  26.966  0.00  0.00    +0.008 A 
ATOM     16  C   UNL     1       8.008  -2.496  24.190  0.00  0.00    +0.135 A 
ENDROOT
BRANCH   1  17
ATOM     17  C   UNL     1       7.441  -4.777  23.187  0.00  0.00    +0.342 C 
ATOM     18  O   UNL     1       8.234  -5.686  23.355  0.00  0.00    -0.245 OA
BRANCH  17  19
ATOM     19  O   UNL     1       6.643  -4.610  22.110  0.00  0.00    -0.450 OA
BRANCH  19  20
ATOM     20  C   UNL     1       5.871  -5.773  21.778  0.00  0.00    +0.352 C 
BRANCH  20  21
ATOM     21  C   UNL     1       4.687  -5.992  22.707  0.00  0.00    +0.343 C 
ATOM     22  O   UNL     1       3.750  -5.212  22.807  0.00  0.00    -0.247 OA
BRANCH  21  23
ATOM     23  O   UNL     1       4.787  -7.096  23.484  0.00  0.00    -0.478 OA
ATOM     24  H   UNL     1       5.702  -7.390  23.691  0.00  0.00    +0.295 HD
ENDBRANCH  21  23
ENDBRANCH  20  21
ENDBRANCH  19  20
ENDBRANCH  17  19
ENDBRANCH   1  17
BRANCH  10  25
ATOM     25  C   UNL     1      10.261   0.536  23.124  0.00  0.00    +0.255 C 
BRANCH  25  26
ATOM     26  C   UNL     1       9.784   1.442  22.017  0.00  0.00    +0.324 C 
ATOM     27  O   UNL     1       8.749   1.203  21.402  0.00  0.00    -0.249 OA
BRANCH  26  28
ATOM     28  O   UNL     1      10.525   2.519  21.705  0.00  0.00    -0.479 OA
ATOM     29  H   UNL     1      11.406   2.391  21.293  0.00  0.00    +0.295 HD
ENDBRANCH  26  28
ENDBRANCH  25  26
ENDBRANCH  10  25
TORSDOF 8
ENDMDL
MODEL 2
REMARK VINA RESULT:      -6.7      2.717      5.289
REMARK  Name = 
REMARK  8 active torsions:
REMARK  status: ('A' for Active; 'I' for Inactive)
REMARK    1  A    between atoms: O_1  and  C_2
REMARK    2  A    between atoms: C_2  and  C_4
REMARK    3  A    between atoms: C_4  and  O_5
REMARK    4  A    between atoms: O_5  and  C_6
REMARK    5  A    between atoms: C_6  and  C_8
REMARK    6  A    between atoms: N_13  and  C_14
REMARK    7  A    between atoms: C_14  and  C_15
REMARK    8  A    between atoms: C_15  and  O_16
REMARK                            x       y       z     vdW  Elec       q    Type
REMARK                         _______ _______ _______ _____ _____    ______ ____
ROOT
ATOM      1  C   UNL     1       7.818  -3.302  23.649  0.00  0.00    +0.087 A 
ATOM      2  C   UNL     1       8.633  -2.593  22.753  0.00  0.00    +0.025 A 
ATOM      3  C   UNL     1       8.457  -1.216  22.507  0.00  0.00    -0.016 A 
ATOM      4  C   UNL     1       7.449  -0.495  23.195  0.00  0.00    -0.004 A 
ATOM      5  C   UNL     1       7.339   0.893  22.955  0.00  0.00    +0.009 A 
ATOM      6  C   UNL     1       8.185   1.544  22.057  0.00  0.00    +0.001 A 
ATOM      7  C   UNL     1       9.153   0.821  21.372  0.00  0.00    +0.001 A 
ATOM      8  C   UNL     1       6.632  -1.221  24.080  0.00  0.00    +0.073 A 
ATOM      9  C   UNL     1       5.568  -0.666  24.955  0.00  0.00    +0.269 C 
ATOM     10  N   UNL     1       5.012  -1.695  25.743  0.00  0.00    -0.157 N 
ATOM     11  S   UNL     1       5.650  -3.195  25.419  0.00  0.00    +0.079 S 
ATOM     12  O   UNL     1       6.354  -3.724  26.561  0.00  0.00    -0.150 OA
ATOM     13  O   UNL     1       4.609  -3.923  24.732  0.00  0.00    -0.150 OA
ATOM     14  O   UNL     1       5.227   0.498  25.028  0.00  0.00    -0.268 OA
ATOM     15  C   UNL     1       9.289  -0.548  21.596  0.00  0.00    +0.008 A 
ATOM     16  C   UNL     1       6.799  -2.596  24.266  0.00  0.00    +0.135 A 
ENDROOT
BRANCH   1  17
ATOM     17  C   UNL     1       8.183  -4.715  23.910  0.00  0.00    +0.342 C 
ATOM     18  O   UNL     1       9.251  -5.024  24.407  0.00  0.00    -0.245 OA
BRANCH  17  19
ATOM     19  O   UNL     1       7.222  -5.571  23.498  0.00  0.00    -0.450 OA
BRANCH  19  20
ATOM     20  C   UNL     1       7.311  -5.910  22.107  0.00  0.00    +0.352 C 
BRANCH  20  21
ATOM     21  C   UNL     1       6.048  -5.578  21.327  0.00  0.00    +0.343 C 
ATOM     22  O   UNL     1       5.987  -5.575  20.105  0.00  0.00    -0.247 OA
BRANCH  21  23
ATOM     23  O   UNL     1       5.000  -5.204  22.098  0.00  0.00    -0.478 OA
ATOM     24  H   UNL     1       4.529  -5.933  22.559  0.00  0.00    +0.295 HD
ENDBRANCH  21  23
ENDBRANCH  20  21
ENDBRANCH  19  20
ENDBRANCH  17  19
ENDBRANCH   1  17
BRANCH  10  25
ATOM     25  C   UNL     1       4.029  -1.470  26.809  0.00  0.00    +0.255 C 
BRANCH  25  26
ATOM     26  C   UNL     1       2.669  -2.123  26.800  0.00  0.00    +0.324 C 
ATOM     27  O   UNL     1       2.048  -2.311  27.842  0.00  0.00    -0.249 OA
BRANCH  26  28
ATOM     28  O   UNL     1       2.151  -2.510  25.623  0.00  0.00    -0.479 OA
ATOM     29  H   UNL     1       2.041  -1.849  24.906  0.00  0.00    +0.295 HD
ENDBRANCH  26  28
ENDBRANCH  25  26
ENDBRANCH  10  25
TORSDOF 8
ENDMDL
MODEL 3
REMARK VINA RESULT:      -6.7      3.933      6.887
REMARK  Name = 
REMARK  8 active torsions:
REMARK  status: ('A' for Active; 'I' for Inactive)
REMARK    1  A    between atoms: O_1  and  C_2
REMARK    2  A    between atoms: C_2  and  C_4
REMARK    3  A    between atoms: C_4  and  O_5
REMARK    4  A    between atoms: O_5  and  C_6
REMARK    5  A    between atoms: C_6  and  C_8
REMARK    6  A    between atoms: N_13  and  C_14
REMARK    7  A    between atoms: C_14  and  C_15
REMARK    8  A    between atoms: C_15  and  O_16
REMARK                            x       y       z     vdW  Elec       q    Type
REMARK                         _______ _______ _______ _____ _____    ______ ____
ROOT
ATOM      1  C   UNL     1       9.706   1.833  22.774  0.00  0.00    +0.087 A 
ATOM      2  C   UNL     1      10.857   2.635  22.790  0.00  0.00    +0.025 A 
ATOM      3  C   UNL     1      10.870   3.918  23.374  0.00  0.00    -0.016 A 
ATOM      4  C   UNL     1       9.704   4.427  23.997  0.00  0.00    -0.004 A 
ATOM      5  C   UNL     1       9.775   5.697  24.612  0.00  0.00    +0.009 A 
ATOM      6  C   UNL     1      10.952   6.444  24.601  0.00  0.00    +0.001 A 
ATOM      7  C   UNL     1      12.082   5.944  23.968  0.00  0.00    +0.001 A 
ATOM      8  C   UNL     1       8.553   3.618  23.962  0.00  0.00    +0.073 A 
ATOM      9  C   UNL     1       7.248   3.913  24.606  0.00  0.00    +0.269 C 
ATOM     10  N   UNL     1       6.360   2.837  24.401  0.00  0.00    -0.157 N 
ATOM     11  S   UNL     1       7.001   1.620  23.467  0.00  0.00    +0.079 S 
ATOM     12  O   UNL     1       7.127   0.394  24.217  0.00  0.00    -0.150 OA
ATOM     13  O   UNL     1       6.313   1.697  22.200  0.00  0.00    -0.150 OA
ATOM     14  O   UNL     1       6.967   4.906  25.247  0.00  0.00    -0.268 OA
ATOM     15  C   UNL     1      12.042   4.690  23.360  0.00  0.00    +0.008 A 
ATOM     16  C   UNL     1       8.557   2.371  23.332  0.00  0.00    +0.135 A 
ENDROOT
BRANCH   1  17
ATOM     17  C   UNL     1       9.855   0.459  22.239  0.00  0.00    +0.342 C 
ATOM     18  O   UNL     1       9.409   0.138  21.152  0.00  0.00    -0.245 OA
BRANCH  17  19
ATOM     19  O   UNL     1      10.489  -0.358  23.110  0.00  0.00    -0.450 OA
BRANCH  19  20
ATOM     20  C   UNL     1      10.299  -1.753  22.833  0.00  0.00    +0.352 C 
BRANCH  20  21
ATOM     21  C   UNL     1       9.748  -2.529  24.020  0.00  0.00    +0.343 C 
ATOM     22  O   UNL     1       9.990  -3.710  24.228  0.00  0.00    -0.247 OA
BRANCH  21  23
ATOM     23  O   UNL     1       8.894  -1.824  24.798  0.00  0.00    -0.478 OA
ATOM     24  H   UNL     1       9.097  -0.867  24.894  0.00  0.00    +0.295 HD
ENDBRANCH  21  23
ENDBRANCH  20  21
ENDBRANCH  19  20
ENDBRANCH  17  19
ENDBRANCH   1  17
BRANCH  10  25
ATOM     25  C   UNL     1       5.031   2.743  25.015  0.00  0.00    +0.255 C 
BRANCH  25  26
ATOM     26  C   UNL     1       3.781   3.195  24.302  0.00  0.00    +0.324 C 
ATOM     27  O   UNL     1       3.028   4.023  24.804  0.00  0.00    -0.249 OA
BRANCH  26  28
ATOM     28  O   UNL     1       3.498   2.659  23.102  0.00  0.00    -0.479 OA
ATOM     29  H   UNL     1       3.679   1.707  22.948  0.00  0.00    +0.295 HD
ENDBRANCH  26  28
ENDBRANCH  25  26
ENDBRANCH  10  25
TORSDOF 8
ENDMDL
MODEL 4
REMARK VINA RESULT:      -6.4      2.789      5.402
REMARK  Name = 
REMARK  8 active torsions:
REMARK  status: ('A' for Active; 'I' for Inactive)
REMARK    1  A    between atoms: O_1  and  C_2
REMARK    2  A    between atoms: C_2  and  C_4
REMARK    3  A    between atoms: C_4  and  O_5
REMARK    4  A    between atoms: O_5  and  C_6
REMARK    5  A    between atoms: C_6  and  C_8
REMARK    6  A    between atoms: N_13  and  C_14
REMARK    7  A    between atoms: C_14  and  C_15
REMARK    8  A    between atoms: C_15  and  O_16
REMARK                            x       y       z     vdW  Elec       q    Type
REMARK                         _______ _______ _______ _____ _____    ______ ____
ROOT
ATOM      1  C   UNL     1       6.332  -2.373  26.373  0.00  0.00    +0.087 A 
ATOM      2  C   UNL     1       6.579  -1.006  26.571  0.00  0.00    +0.025 A 
ATOM      3  C   UNL     1       7.261  -0.221  25.618  0.00  0.00    -0.016 A 
ATOM      4  C   UNL     1       7.697  -0.801  24.401  0.00  0.00    -0.004 A 
ATOM      5  C   UNL     1       8.332   0.032  23.453  0.00  0.00    +0.009 A 
ATOM      6  C   UNL     1       8.544   1.387  23.705  0.00  0.00    +0.001 A 
ATOM      7  C   UNL     1       8.132   1.939  24.911  0.00  0.00    +0.001 A 
ATOM      8  C   UNL     1       7.454  -2.175  24.222  0.00  0.00    +0.073 A 
ATOM      9  C   UNL     1       7.755  -2.973  23.006  0.00  0.00    +0.269 C 
ATOM     10  N   UNL     1       7.310  -4.300  23.183  0.00  0.00    -0.157 N 
ATOM     11  S   UNL     1       6.659  -4.584  24.686  0.00  0.00    +0.079 S 
ATOM     12  O   UNL     1       5.260  -4.922  24.596  0.00  0.00    -0.150 OA
ATOM     13  O   UNL     1       7.621  -5.407  25.380  0.00  0.00    -0.150 OA
ATOM     14  O   UNL     1       8.274  -2.567  21.986  0.00  0.00    -0.268 OA
ATOM     15  C   UNL     1       7.495   1.141  25.860  0.00  0.00    +0.008 A 
ATOM     16  C   UNL     1       6.819  -2.938  25.206  0.00  0.00    +0.135 A 
ENDROOT
BRANCH   1  17
ATOM     17  C   UNL     1       5.500  -3.056  27.392  0.00  0.00    +0.342 C 
ATOM     18  O   UNL     1       4.328  -2.772  27.565  0.00  0.00    -0.245 OA
BRANCH  17  19
ATOM     19  O   UNL     1       6.208  -3.966  28.097  0.00  0.00    -0.450 OA
BRANCH  19  20
ATOM     20  C   UNL     1       5.419  -5.064  28.577  0.00  0.00    +0.352 C 
BRANCH  20  21
ATOM     21  C   UNL     1       6.117  -6.409  28.441  0.00  0.00    +0.343 C 
ATOM     22  O   UNL     1       5.577  -7.480  28.682  0.00  0.00    -0.247 OA
BRANCH  21  23
ATOM     23  O   UNL     1       7.424  -6.325  28.102  0.00  0.00    -0.478 OA
ATOM     24  H   UNL     1       7.749  -5.425  27.874  0.00  0.00    +0.295 HD
ENDBRANCH  21  23
ENDBRANCH  20  21
ENDBRANCH  19  20
ENDBRANCH  17  19
ENDBRANCH   1  17
BRANCH  10  25
ATOM     25  C   UNL     1       7.333  -5.319  22.128  0.00  0.00    +0.255 C 
BRANCH  25  26
ATOM     26  C   UNL     1       6.098  -5.699  21.350  0.00  0.00    +0.324 C 
ATOM     27  O   UNL     1       6.004  -5.457  20.150  0.00  0.00    -0.249 OA
BRANCH  26  28
ATOM     28  O   UNL     1       5.089  -6.300  22.001  0.00  0.00    -0.479 OA
ATOM     29  H   UNL     1       4.539  -6.961  21.528  0.00  0.00    +0.295 HD
ENDBRANCH  26  28
ENDBRANCH  25  26
ENDBRANCH  10  25
TORSDOF 8
ENDMDL
MODEL 5
REMARK VINA RESULT:      -6.3      1.566      2.137
REMARK  Name = 
REMARK  8 active torsions:
REMARK  status: ('A' for Active; 'I' for Inactive)
REMARK    1  A    between atoms: O_1  and  C_2
REMARK    2  A    between atoms: C_2  and  C_4
REMARK    3  A    between atoms: C_4  and  O_5
REMARK    4  A    between atoms: O_5  and  C_6
REMARK    5  A    between atoms: C_6  and  C_8
REMARK    6  A    between atoms: N_13  and  C_14
REMARK    7  A    between atoms: C_14  and  C_15
REMARK    8  A    between atoms: C_15  and  O_16
REMARK                            x       y       z     vdW  Elec       q    Type
REMARK                         _______ _______ _______ _____ _____    ______ ____
ROOT
ATOM      1  C   UNL     1       6.513  -2.570  23.456  0.00  0.00    +0.087 A 
ATOM      2  C   UNL     1       5.366  -2.664  24.259  0.00  0.00    +0.025 A 
ATOM      3  C   UNL     1       5.151  -1.813  25.362  0.00  0.00    -0.016 A 
ATOM      4  C   UNL     1       6.095  -0.804  25.676  0.00  0.00    -0.004 A 
ATOM      5  C   UNL     1       5.816   0.058  26.760  0.00  0.00    +0.009 A 
ATOM      6  C   UNL     1       4.654  -0.080  27.517  0.00  0.00    +0.001 A 
ATOM      7  C   UNL     1       3.747  -1.088  27.214  0.00  0.00    +0.001 A 
ATOM      8  C   UNL     1       7.246  -0.730  24.870  0.00  0.00    +0.073 A 
ATOM      9  C   UNL     1       8.326   0.285  24.967  0.00  0.00    +0.269 C 
ATOM     10  N   UNL     1       9.279   0.066  23.950  0.00  0.00    -0.157 N 
ATOM     11  S   UNL     1       8.952  -1.266  23.012  0.00  0.00    +0.079 S 
ATOM     12  O   UNL     1       8.684  -0.893  21.645  0.00  0.00    -0.150 OA
ATOM     13  O   UNL     1       9.941  -2.253  23.376  0.00  0.00    -0.150 OA
ATOM     14  O   UNL     1       8.392   1.196  25.768  0.00  0.00    -0.268 OA
ATOM     15  C   UNL     1       3.994  -1.947  26.144  0.00  0.00    +0.008 A 
ATOM     16  C   UNL     1       7.455  -1.620  23.813  0.00  0.00    +0.135 A 
ENDROOT
BRANCH   1  17
ATOM     17  C   UNL     1       6.562  -3.439  22.256  0.00  0.00    +0.342 C 
ATOM     18  O   UNL     1       5.693  -3.412  21.403  0.00  0.00    -0.245 OA
BRANCH  17  19
ATOM     19  O   UNL     1       7.638  -4.257  22.266  0.00  0.00    -0.450 OA
BRANCH  19  20
ATOM     20  C   UNL     1       7.488  -5.396  23.125  0.00  0.00    +0.352 C 
BRANCH  20  21
ATOM     21  C   UNL     1       8.160  -5.218  24.479  0.00  0.00    +0.343 C 
ATOM     22  O   UNL     1       7.567  -5.301  25.546  0.00  0.00    -0.247 OA
BRANCH  21  23
ATOM     23  O   UNL     1       9.469  -4.882  24.409  0.00  0.00    -0.478 OA
ATOM     24  H   UNL     1      10.022  -5.439  23.818  0.00  0.00    +0.295 HD
ENDBRANCH  21  23
ENDBRANCH  20  21
ENDBRANCH  19  20
ENDBRANCH  17  19
ENDBRANCH   1  17
BRANCH  10  25
ATOM     25  C   UNL     1      10.406   0.965  23.677  0.00  0.00    +0.255 C 
BRANCH  25  26
ATOM     26  C   UNL     1      10.265   2.192  22.811  0.00  0.00    +0.324 C 
ATOM     27  O   UNL     1      10.477   3.314  23.260  0.00  0.00    -0.249 OA
BRANCH  26  28
ATOM     28  O   UNL     1       9.888   2.034  21.531  0.00  0.00    -0.479 OA
ATOM     29  H   UNL     1       9.136   2.561  21.185  0.00  0.00    +0.295 HD
ENDBRANCH  26  28
ENDBRANCH  25  26
ENDBRANCH  10  25
TORSDOF 8
ENDMDL
MODEL 6
REMARK VINA RESULT:      -6.2      2.463      5.209
REMARK  Name = 
REMARK  8 active torsions:
REMARK  status: ('A' for Active; 'I' for Inactive)
REMARK    1  A    between atoms: O_1  and  C_2
REMARK    2  A    between atoms: C_2  and  C_4
REMARK    3  A    between atoms: C_4  and  O_5
REMARK    4  A    between atoms: O_5  and  C_6
REMARK    5  A    between atoms: C_6  and  C_8
REMARK    6  A    between atoms: N_13  and  C_14
REMARK    7  A    between atoms: C_14  and  C_15
REMARK    8  A    between atoms: C_15  and  O_16
REMARK                            x       y       z     vdW  Elec       q    Type
REMARK                         _______ _______ _______ _____ _____    ______ ____
ROOT
ATOM      1  C   UNL     1       5.778  -1.666  24.960  0.00  0.00    +0.087 A 
ATOM      2  C   UNL     1       5.226  -2.940  24.757  0.00  0.00    +0.025 A 
ATOM      3  C   UNL     1       5.750  -3.841  23.807  0.00  0.00    -0.016 A 
ATOM      4  C   UNL     1       6.886  -3.484  23.039  0.00  0.00    -0.004 A 
ATOM      5  C   UNL     1       7.407  -4.436  22.134  0.00  0.00    +0.009 A 
ATOM      6  C   UNL     1       6.818  -5.690  21.981  0.00  0.00    +0.001 A 
ATOM      7  C   UNL     1       5.691  -6.020  22.723  0.00  0.00    +0.001 A 
ATOM      8  C   UNL     1       7.420  -2.199  23.244  0.00  0.00    +0.073 A 
ATOM      9  C   UNL     1       8.641  -1.640  22.610  0.00  0.00    +0.269 C 
ATOM     10  N   UNL     1       8.891  -0.346  23.113  0.00  0.00    -0.157 N 
ATOM     11  S   UNL     1       7.738   0.180  24.187  0.00  0.00    +0.079 S 
ATOM     12  O   UNL     1       8.296   0.376  25.502  0.00  0.00    -0.150 OA
ATOM     13  O   UNL     1       6.992   1.202  23.492  0.00  0.00    -0.150 OA
ATOM     14  O   UNL     1       9.356  -2.199  21.802  0.00  0.00    -0.268 OA
ATOM     15  C   UNL     1       5.162  -5.103  23.629  0.00  0.00    +0.008 A 
ATOM     16  C   UNL     1       6.850  -1.309  24.158  0.00  0.00    +0.135 A 
ENDROOT
BRANCH   1  17
ATOM     17  C   UNL     1       5.214  -0.863  26.071  0.00  0.00    +0.342 C 
ATOM     18  O   UNL     1       5.445  -1.123  27.238  0.00  0.00    -0.245 OA
BRANCH  17  19
ATOM     19  O   UNL     1       4.410   0.127  25.623  0.00  0.00    -0.450 OA
BRANCH  19  20
ATOM     20  C   UNL     1       4.674   1.401  26.228  0.00  0.00    +0.352 C 
BRANCH  20  21
ATOM     21  C   UNL     1       4.416   2.574  25.294  0.00  0.00    +0.343 C 
ATOM     22  O   UNL     1       4.298   3.730  25.675  0.00  0.00    -0.247 OA
BRANCH  21  23
ATOM     23  O   UNL     1       4.248   2.225  23.998  0.00  0.00    -0.478 OA
ATOM     24  H   UNL     1       3.498   2.658  23.533  0.00  0.00    +0.295 HD
ENDBRANCH  21  23
ENDBRANCH  20  21
ENDBRANCH  19  20
ENDBRANCH  17  19
ENDBRANCH   1  17
BRANCH  10  25
ATOM     25  C   UNL     1      10.090   0.439  22.796  0.00  0.00    +0.255 C 
BRANCH  25  26
ATOM     26  C   UNL     1      10.017   1.885  22.377  0.00  0.00    +0.324 C 
ATOM     27  O   UNL     1      10.727   2.736  22.906  0.00  0.00    -0.249 OA
BRANCH  26  28
ATOM     28  O   UNL     1       9.145   2.232  21.415  0.00  0.00    -0.479 OA
ATOM     29  H   UNL     1       9.295   3.059  20.908  0.00  0.00    +0.295 HD
ENDBRANCH  26  28
ENDBRANCH  25  26
ENDBRANCH  10  25
TORSDOF 8
ENDMDL
MODEL 7
REMARK VINA RESULT:      -6.2      2.722      4.773
REMARK  Name = 
REMARK  8 active torsions:
REMARK  status: ('A' for Active; 'I' for Inactive)
REMARK    1  A    between atoms: O_1  and  C_2
REMARK    2  A    between atoms: C_2  and  C_4
REMARK    3  A    between atoms: C_4  and  O_5
REMARK    4  A    between atoms: O_5  and  C_6
REMARK    5  A    between atoms: C_6  and  C_8
REMARK    6  A    between atoms: N_13  and  C_14
REMARK    7  A    between atoms: C_14  and  C_15
REMARK    8  A    between atoms: C_15  and  O_16
REMARK                            x       y       z     vdW  Elec       q    Type
REMARK                         _______ _______ _______ _____ _____    ______ ____
ROOT
ATOM      1  C   UNL     1       6.146  -3.688  25.922  0.00  0.00    +0.087 A 
ATOM      2  C   UNL     1       5.595  -4.769  25.217  0.00  0.00    +0.025 A 
ATOM      3  C   UNL     1       5.928  -5.036  23.873  0.00  0.00    -0.016 A 
ATOM      4  C   UNL     1       6.868  -4.219  23.198  0.00  0.00    -0.004 A 
ATOM      5  C   UNL     1       7.209  -4.552  21.868  0.00  0.00    +0.009 A 
ATOM      6  C   UNL     1       6.631  -5.645  21.222  0.00  0.00    +0.001 A 
ATOM      7  C   UNL     1       5.694  -6.424  21.888  0.00  0.00    +0.001 A 
ATOM      8  C   UNL     1       7.402  -3.131  23.913  0.00  0.00    +0.073 A 
ATOM      9  C   UNL     1       8.448  -2.191  23.435  0.00  0.00    +0.269 C 
ATOM     10  N   UNL     1       8.766  -1.273  24.457  0.00  0.00    -0.157 N 
ATOM     11  S   UNL     1       7.854  -1.470  25.832  0.00  0.00    +0.079 S 
ATOM     12  O   UNL     1       8.672  -1.855  26.955  0.00  0.00    -0.150 OA
ATOM     13  O   UNL     1       6.954  -0.341  25.869  0.00  0.00    -0.150 OA
ATOM     14  O   UNL     1       8.989  -2.204  22.348  0.00  0.00    -0.268 OA
ATOM     15  C   UNL     1       5.346  -6.123  23.204  0.00  0.00    +0.008 A 
ATOM     16  C   UNL     1       7.016  -2.862  25.228  0.00  0.00    +0.135 A 
ENDROOT
BRANCH   1  17
ATOM     17  C   UNL     1       5.810  -3.587  27.362  0.00  0.00    +0.342 C 
ATOM     18  O   UNL     1       5.138  -2.673  27.805  0.00  0.00    -0.245 OA
BRANCH  17  19
ATOM     19  O   UNL     1       6.366  -4.585  28.084  0.00  0.00    -0.450 OA
BRANCH  19  20
ATOM     20  C   UNL     1       5.442  -5.248  28.958  0.00  0.00    +0.352 C 
BRANCH  20  21
ATOM     21  C   UNL     1       5.630  -6.757  28.996  0.00  0.00    +0.343 C 
ATOM     22  O   UNL     1       6.719  -7.302  29.119  0.00  0.00    -0.247 OA
BRANCH  21  23
ATOM     23  O   UNL     1       4.493  -7.464  28.802  0.00  0.00    -0.478 OA
ATOM     24  H   UNL     1       4.006  -7.721  29.617  0.00  0.00    +0.295 HD
ENDBRANCH  21  23
ENDBRANCH  20  21
ENDBRANCH  19  20
ENDBRANCH  17  19
ENDBRANCH   1  17
BRANCH  10  25
ATOM     25  C   UNL     1       9.853  -0.290  24.366  0.00  0.00    +0.255 C 
BRANCH  25  26
ATOM     26  C   UNL     1       9.592   1.179  24.148  0.00  0.00    +0.324 C 
ATOM     27  O   UNL     1      10.508   1.996  24.164  0.00  0.00    -0.249 OA
BRANCH  26  28
ATOM     28  O   UNL     1       8.327   1.584  23.947  0.00  0.00    -0.479 OA
ATOM     29  H   UNL     1       7.588   1.024  24.268  0.00  0.00    +0.295 HD
ENDBRANCH  26  28
ENDBRANCH  25  26
ENDBRANCH  10  25
TORSDOF 8
ENDMDL
MODEL 8
REMARK VINA RESULT:      -6.2      1.611      5.653
REMARK  Name = 
REMARK  8 active torsions:
REMARK  status: ('A' for Active; 'I' for Inactive)
REMARK    1  A    between atoms: O_1  and  C_2
REMARK    2  A    between atoms: C_2  and  C_4
REMARK    3  A    between atoms: C_4  and  O_5
REMARK    4  A    between atoms: O_5  and  C_6
REMARK    5  A    between atoms: C_6  and  C_8
REMARK    6  A    between atoms: N_13  and  C_14
REMARK    7  A    between atoms: C_14  and  C_15
REMARK    8  A    between atoms: C_15  and  O_16
REMARK                            x       y       z     vdW  Elec       q    Type
REMARK                         _______ _______ _______ _____ _____    ______ ____
ROOT
ATOM      1  C   UNL     1       9.040  -0.111  24.634  0.00  0.00    +0.087 A 
ATOM      2  C   UNL     1       8.515   0.718  25.637  0.00  0.00    +0.025 A 
ATOM      3  C   UNL     1       7.372   0.363  26.383  0.00  0.00    -0.016 A 
ATOM      4  C   UNL     1       6.730  -0.879  26.151  0.00  0.00    -0.004 A 
ATOM      5  C   UNL     1       5.618  -1.216  26.954  0.00  0.00    +0.009 A 
ATOM      6  C   UNL     1       5.147  -0.351  27.941  0.00  0.00    +0.001 A 
ATOM      7  C   UNL     1       5.771   0.873  28.143  0.00  0.00    +0.001 A 
ATOM      8  C   UNL     1       7.260  -1.694  25.133  0.00  0.00    +0.073 A 
ATOM      9  C   UNL     1       6.798  -3.057  24.767  0.00  0.00    +0.269 C 
ATOM     10  N   UNL     1       7.615  -3.578  23.741  0.00  0.00    -0.157 N 
ATOM     11  S   UNL     1       8.778  -2.513  23.217  0.00  0.00    +0.079 S 
ATOM     12  O   UNL     1      10.104  -3.005  23.495  0.00  0.00    -0.150 OA
ATOM     13  O   UNL     1       8.358  -2.092  21.901  0.00  0.00    -0.150 OA
ATOM     14  O   UNL     1       5.882  -3.671  25.275  0.00  0.00    -0.268 OA
ATOM     15  C   UNL     1       6.876   1.227  27.370  0.00  0.00    +0.008 A 
ATOM     16  C   UNL     1       8.365  -1.293  24.377  0.00  0.00    +0.135 A 
ENDROOT
BRANCH   1  17
ATOM     17  C   UNL     1      10.313   0.319  24.009  0.00  0.00    +0.342 C 
ATOM     18  O   UNL     1      11.321   0.514  24.665  0.00  0.00    -0.245 OA
BRANCH  17  19
ATOM     19  O   UNL     1      10.188   0.497  22.675  0.00  0.00    -0.450 OA
BRANCH  19  20
ATOM     20  C   UNL     1      10.019   1.868  22.289  0.00  0.00    +0.352 C 
BRANCH  20  21
ATOM     21  C   UNL     1       8.565   2.253  22.064  0.00  0.00    +0.343 C 
ATOM     22  O   UNL     1       7.702   1.462  21.706  0.00  0.00    -0.247 OA
BRANCH  21  23
ATOM     23  O   UNL     1       8.308   3.572  22.219  0.00  0.00    -0.478 OA
ATOM     24  H   UNL     1       9.095   4.148  22.342  0.00  0.00    +0.295 HD
ENDBRANCH  21  23
ENDBRANCH  20  21
ENDBRANCH  19  20
ENDBRANCH  17  19
ENDBRANCH   1  17
BRANCH  10  25
ATOM     25  C   UNL     1       7.518  -4.952  23.235  0.00  0.00    +0.255 C 
BRANCH  25  26
ATOM     26  C   UNL     1       6.491  -5.361  22.209  0.00  0.00    +0.324 C 
ATOM     27  O   UNL     1       5.742  -4.535  21.695  0.00  0.00    -0.249 OA
BRANCH  26  28
ATOM     28  O   UNL     1       6.400  -6.659  21.874  0.00  0.00    -0.479 OA
ATOM     29  H   UNL     1       5.513  -7.072  21.793  0.00  0.00    +0.295 HD
ENDBRANCH  26  28
ENDBRANCH  25  26
ENDBRANCH  10  25
TORSDOF 8
ENDMDL
MODEL 9
REMARK VINA RESULT:      -6.1      2.458      4.991
REMARK  Name = 
REMARK  8 active torsions:
REMARK  status: ('A' for Active; 'I' for Inactive)
REMARK    1  A    between atoms: O_1  and  C_2
REMARK    2  A    between atoms: C_2  and  C_4
REMARK    3  A    between atoms: C_4  and  O_5
REMARK    4  A    between atoms: O_5  and  C_6
REMARK    5  A    between atoms: C_6  and  C_8
REMARK    6  A    between atoms: N_13  and  C_14
REMARK    7  A    between atoms: C_14  and  C_15
REMARK    8  A    between atoms: C_15  and  O_16
REMARK                            x       y       z     vdW  Elec       q    Type
REMARK                         _______ _______ _______ _____ _____    ______ ____
ROOT
ATOM      1  C   UNL     1       7.643  -2.757  23.059  0.00  0.00    +0.087 A 
ATOM      2  C   UNL     1       8.505  -2.005  22.246  0.00  0.00    +0.025 A 
ATOM      3  C   UNL     1       8.758  -0.638  22.482  0.00  0.00    -0.016 A 
ATOM      4  C   UNL     1       8.155   0.015  23.585  0.00  0.00    -0.004 A 
ATOM      5  C   UNL     1       8.473   1.373  23.813  0.00  0.00    +0.009 A 
ATOM      6  C   UNL     1       9.345   2.065  22.973  0.00  0.00    +0.001 A 
ATOM      7  C   UNL     1       9.911   1.419  21.881  0.00  0.00    +0.001 A 
ATOM      8  C   UNL     1       7.282  -0.747  24.383  0.00  0.00    +0.073 A 
ATOM      9  C   UNL     1       6.600  -0.295  25.623  0.00  0.00    +0.269 C 
ATOM     10  N   UNL     1       5.858  -1.360  26.175  0.00  0.00    -0.157 N 
ATOM     11  S   UNL     1       5.914  -2.748  25.262  0.00  0.00    +0.079 S 
ATOM     12  O   UNL     1       6.563  -3.820  25.975  0.00  0.00    -0.150 OA
ATOM     13  O   UNL     1       4.603  -2.880  24.671  0.00  0.00    -0.150 OA
ATOM     14  O   UNL     1       6.675   0.807  26.128  0.00  0.00    -0.268 OA
ATOM     15  C   UNL     1       9.621   0.077  21.638  0.00  0.00    +0.008 A 
ATOM     16  C   UNL     1       7.013  -2.088  24.096  0.00  0.00    +0.135 A 
ENDROOT
BRANCH   1  17
ATOM     17  C   UNL     1       7.557  -4.210  22.779  0.00  0.00    +0.342 C 
ATOM     18  O   UNL     1       8.245  -5.022  23.370  0.00  0.00    -0.245 OA
BRANCH  17  19
ATOM     19  O   UNL     1       6.677  -4.485  21.791  0.00  0.00    -0.450 OA
BRANCH  19  20
ATOM     20  C   UNL     1       6.036  -5.761  21.930  0.00  0.00    +0.352 C 
BRANCH  20  21
ATOM     21  C   UNL     1       4.904  -5.756  22.947  0.00  0.00    +0.343 C 
ATOM     22  O   UNL     1       3.745  -5.479  22.669  0.00  0.00    -0.247 OA
BRANCH  21  23
ATOM     23  O   UNL     1       5.297  -6.009  24.216  0.00  0.00    -0.478 OA
ATOM     24  H   UNL     1       6.103  -5.534  24.517  0.00  0.00    +0.295 HD
ENDBRANCH  21  23
ENDBRANCH  20  21
ENDBRANCH  19  20
ENDBRANCH  17  19
ENDBRANCH   1  17
BRANCH  10  25
ATOM     25  C   UNL     1       5.170  -1.295  27.469  0.00  0.00    +0.255 C 
BRANCH  25  26
ATOM     26  C   UNL     1       3.681  -1.084  27.580  0.00  0.00    +0.324 C 
ATOM     27  O   UNL     1       3.140  -0.936  28.671  0.00  0.00    -0.249 OA
BRANCH  26  28
ATOM     28  O   UNL     1       2.949  -1.076  26.453  0.00  0.00    -0.479 OA
ATOM     29  H   UNL     1       2.906  -1.887  25.903  0.00  0.00    +0.295 HD
ENDBRANCH  26  28
ENDBRANCH  25  26
ENDBRANCH  10  25
TORSDOF 8
ENDMDL
