MODEL 1
REMARK VINA RESULT:      -7.0      0.000      0.000
REMARK  Name = 
REMARK  12 active torsions:
REMARK  status: ('A' for Active; 'I' for Inactive)
REMARK    1  A    between atoms: C_1  and  C_2
REMARK    2  A    between atoms: C_2  and  N_4
REMARK    3  A    between atoms: C_2  and  C_23
REMARK    4  A    between atoms: C_5  and  C_7
REMARK    5  A    between atoms: C_7  and  N_8
REMARK    6  A    between atoms: C_9  and  C_11
REMARK    7  A    between atoms: C_11  and  N_13
REMARK    8  A    between atoms: C_11  and  C_17
REMARK    9  A    between atoms: N_25  and  C_26
REMARK   10  A    between atoms: C_26  and  C_27
REMARK   11  A    between atoms: C_27  and  C_28
REMARK   12  A    between atoms: C_28  and  S_29
REMARK                            x       y       z     vdW  Elec       q    Type
REMARK                         _______ _______ _______ _____ _____    ______ ____
ROOT
ATOM      1  N   UNL     1       8.531  -1.716  24.852  0.00  0.00    -0.304 N 
ATOM      2  H   UNL     1       7.560  -1.447  24.776  0.00  0.00    +0.149 HD
ATOM      3  C   UNL     1       8.999  -2.789  24.123  0.00  0.00    +0.251 C 
ATOM      4  O   UNL     1      10.199  -2.904  23.871  0.00  0.00    -0.272 OA
ENDROOT
BRANCH   1   5
ATOM      5  C   UNL     1       9.451  -0.679  25.288  0.00  0.00    +0.200 C 
BRANCH   5   8
ATOM      6  N   UNL     1       8.575   1.288  24.134  0.00  0.00    -0.303 N 
ATOM      7  H   UNL     1       7.885   1.316  24.890  0.00  0.00    +0.149 HD
ATOM      8  C   UNL     1       9.606   0.384  24.205  0.00  0.00    +0.231 C 
ATOM      9  O   UNL     1      10.616   0.462  23.508  0.00  0.00    -0.274 OA
BRANCH   6  11
ATOM     10  C   UNL     1       7.219   2.458  22.464  0.00  0.00    +0.038 C 
ATOM     11  C   UNL     1       8.569   2.379  23.172  0.00  0.00    +0.156 C 
BRANCH  11  12
ATOM     12  C   UNL     1       8.890   3.702  23.893  0.00  0.00    +0.233 C 
ATOM     13  N   UNL     1       9.513   4.650  23.103  0.00  0.00    -0.314 N 
ATOM     14  H   UNL     1       9.928   4.344  22.231  0.00  0.00    +0.149 HD
ATOM     15  O   UNL     1       8.607   3.896  25.073  0.00  0.00    -0.274 OA
BRANCH  13  16
ATOM     16  C   UNL     1       9.938   5.922  23.652  0.00  0.00    +0.105 C 
BRANCH  16  17
ATOM     17  C   UNL     1      11.405   5.905  24.074  0.00  0.00    +0.029 C 
BRANCH  17  18
ATOM     18  C   UNL     1      12.204   4.862  23.296  0.00  0.00    +0.067 C 
BRANCH  18  19
ATOM     19  S   UNL     1      13.318   5.668  22.110  0.00  0.00    -0.178 S 
ATOM     20  H   UNL     1      12.659   5.299  21.001  0.00  0.00    +0.102 HD
ENDBRANCH  18  19
ENDBRANCH  17  18
ENDBRANCH  16  17
ENDBRANCH  13  16
ENDBRANCH  11  12
ENDBRANCH   6  11
ENDBRANCH   5   8
ENDBRANCH   1   5
BRANCH   3  21
ATOM     21  C   UNL     1       7.979  -3.909  23.771  0.00  0.00    +0.233 C 
BRANCH  21  22
ATOM     22  N   UNL     1       7.789  -4.719  24.973  0.00  0.00    -0.265 N 
ATOM     23  H   UNL     1       6.984  -4.477  25.531  0.00  0.00    +0.259 HD
ATOM     24  C   UNL     1       8.757  -5.396  25.623  0.00  0.00    +0.377 C 
ATOM     25  N   UNL     1       9.878  -5.828  25.181  0.00  0.00    -0.130 NA
ATOM     26  H   UNL     1       9.988  -5.585  24.198  0.00  0.00    +0.306 HD
ATOM     27  N   UNL     1       8.424  -5.665  26.899  0.00  0.00    -0.289 N 
ATOM     28  H   UNL     1       9.216  -6.127  27.338  0.00  0.00    +0.255 HD
ATOM     29  H   UNL     1       8.197  -4.835  27.431  0.00  0.00    +0.255 HD
ENDBRANCH  21  22
BRANCH  21  30
ATOM     30  C   UNL     1       6.596  -3.426  23.248  0.00  0.00    +0.035 C 
ATOM     31  C   UNL     1       5.413  -4.117  23.958  0.00  0.00    +0.007 C 
ATOM     32  C   UNL     1       5.342  -5.611  23.662  0.00  0.00    +0.000 C 
ATOM     33  C   UNL     1       5.342  -5.921  22.167  0.00  0.00    +0.000 C 
ATOM     34  C   UNL     1       6.354  -5.121  21.349  0.00  0.00    +0.000 C 
ATOM     35  C   UNL     1       6.422  -3.643  21.734  0.00  0.00    +0.007 C 
ENDBRANCH  21  30
ENDBRANCH   3  21
TORSDOF 11
ENDMDL
MODEL 2
REMARK VINA RESULT:      -6.9      1.453      1.592
REMARK  Name = 
REMARK  12 active torsions:
REMARK  status: ('A' for Active; 'I' for Inactive)
REMARK    1  A    between atoms: C_1  and  C_2
REMARK    2  A    between atoms: C_2  and  N_4
REMARK    3  A    between atoms: C_2  and  C_23
REMARK    4  A    between atoms: C_5  and  C_7
REMARK    5  A    between atoms: C_7  and  N_8
REMARK    6  A    between atoms: C_9  and  C_11
REMARK    7  A    between atoms: C_11  and  N_13
REMARK    8  A    between atoms: C_11  and  C_17
REMARK    9  A    between atoms: N_25  and  C_26
REMARK   10  A    between atoms: C_26  and  C_27
REMARK   11  A    between atoms: C_27  and  C_28
REMARK   12  A    between atoms: C_28  and  S_29
REMARK                            x       y       z     vdW  Elec       q    Type
REMARK                         _______ _______ _______ _____ _____    ______ ____
ROOT
ATOM      1  N   UNL     1       8.571  -2.087  25.351  0.00  0.00    -0.304 N 
ATOM      2  H   UNL     1       9.317  -2.757  25.230  0.00  0.00    +0.149 HD
ATOM      3  C   UNL     1       7.267  -2.527  25.433  0.00  0.00    +0.251 C 
ATOM      4  O   UNL     1       6.400  -1.832  25.964  0.00  0.00    -0.272 OA
ENDROOT
BRANCH   1   5
ATOM      5  C   UNL     1       8.945  -0.812  25.942  0.00  0.00    +0.200 C 
BRANCH   5   8
ATOM      6  N   UNL     1       9.005   0.509  23.888  0.00  0.00    -0.303 N 
ATOM      7  H   UNL     1       7.984   0.447  23.921  0.00  0.00    +0.149 HD
ATOM      8  C   UNL     1       9.738   0.024  24.943  0.00  0.00    +0.231 C 
ATOM      9  O   UNL     1      10.923   0.300  25.120  0.00  0.00    -0.274 OA
BRANCH   6  11
ATOM     10  C   UNL     1       9.255   0.796  21.468  0.00  0.00    +0.038 C 
ATOM     11  C   UNL     1       9.599   1.341  22.853  0.00  0.00    +0.156 C 
BRANCH  11  12
ATOM     12  C   UNL     1       9.105   2.791  23.012  0.00  0.00    +0.233 C 
ATOM     13  N   UNL     1      10.060   3.675  23.478  0.00  0.00    -0.314 N 
ATOM     14  H   UNL     1      10.894   3.292  23.906  0.00  0.00    +0.149 HD
ATOM     15  O   UNL     1       7.956   3.130  22.737  0.00  0.00    -0.274 OA
BRANCH  13  16
ATOM     16  C   UNL     1       9.733   5.061  23.742  0.00  0.00    +0.105 C 
BRANCH  16  17
ATOM     17  C   UNL     1      10.968   5.959  23.720  0.00  0.00    +0.029 C 
BRANCH  17  18
ATOM     18  C   UNL     1      12.256   5.143  23.642  0.00  0.00    +0.067 C 
BRANCH  18  19
ATOM     19  S   UNL     1      13.185   5.561  22.138  0.00  0.00    -0.178 S 
ATOM     20  H   UNL     1      12.347   4.975  21.270  0.00  0.00    +0.102 HD
ENDBRANCH  18  19
ENDBRANCH  17  18
ENDBRANCH  16  17
ENDBRANCH  13  16
ENDBRANCH  11  12
ENDBRANCH   6  11
ENDBRANCH   5   8
ENDBRANCH   1   5
BRANCH   3  21
ATOM     21  C   UNL     1       6.917  -3.852  24.697  0.00  0.00    +0.233 C 
BRANCH  21  22
ATOM     22  N   UNL     1       6.941  -4.923  25.692  0.00  0.00    -0.265 N 
ATOM     23  H   UNL     1       6.064  -5.095  26.159  0.00  0.00    +0.259 HD
ATOM     24  C   UNL     1       8.036  -5.361  26.346  0.00  0.00    +0.377 C 
ATOM     25  N   UNL     1       9.268  -5.282  26.004  0.00  0.00    -0.130 NA
ATOM     26  H   UNL     1       9.357  -4.806  25.108  0.00  0.00    +0.306 HD
ATOM     27  N   UNL     1       7.729  -6.000  27.490  0.00  0.00    -0.289 N 
ATOM     28  H   UNL     1       8.598  -6.253  27.950  0.00  0.00    +0.255 HD
ATOM     29  H   UNL     1       7.179  -5.434  28.122  0.00  0.00    +0.255 HD
ENDBRANCH  21  22
BRANCH  21  30
ATOM     30  C   UNL     1       5.554  -3.872  23.949  0.00  0.00    +0.035 C 
ATOM     31  C   UNL     1       5.069  -5.301  23.626  0.00  0.00    +0.007 C 
ATOM     32  C   UNL     1       5.972  -6.016  22.627  0.00  0.00    +0.000 C 
ATOM     33  C   UNL     1       6.198  -5.212  21.349  0.00  0.00    +0.000 C 
ATOM     34  C   UNL     1       6.484  -3.728  21.572  0.00  0.00    +0.000 C 
ATOM     35  C   UNL     1       5.587  -3.083  22.628  0.00  0.00    +0.007 C 
ENDBRANCH  21  30
ENDBRANCH   3  21
TORSDOF 11
ENDMDL
MODEL 3
REMARK VINA RESULT:      -6.8      3.602      9.270
REMARK  Name = 
REMARK  12 active torsions:
REMARK  status: ('A' for Active; 'I' for Inactive)
REMARK    1  A    between atoms: C_1  and  C_2
REMARK    2  A    between atoms: C_2  and  N_4
REMARK    3  A    between atoms: C_2  and  C_23
REMARK    4  A    between atoms: C_5  and  C_7
REMARK    5  A    between atoms: C_7  and  N_8
REMARK    6  A    between atoms: C_9  and  C_11
REMARK    7  A    between atoms: C_11  and  N_13
REMARK    8  A    between atoms: C_11  and  C_17
REMARK    9  A    between atoms: N_25  and  C_26
REMARK   10  A    between atoms: C_26  and  C_27
REMARK   11  A    between atoms: C_27  and  C_28
REMARK   12  A    between atoms: C_28  and  S_29
REMARK                            x       y       z     vdW  Elec       q    Type
REMARK                         _______ _______ _______ _____ _____    ______ ____
ROOT
ATOM      1  N   UNL     1       9.793   2.487  22.141  0.00  0.00    -0.304 N 
ATOM      2  H   UNL     1       9.074   3.072  21.740  0.00  0.00    +0.149 HD
ATOM      3  C   UNL     1      10.373   2.848  23.340  0.00  0.00    +0.251 C 
ATOM      4  O   UNL     1      10.933   2.008  24.046  0.00  0.00    -0.272 OA
ENDROOT
BRANCH   1   5
ATOM      5  C   UNL     1       9.794   1.095  21.725  0.00  0.00    +0.200 C 
BRANCH   5   8
ATOM      6  N   UNL     1       8.817  -0.965  22.603  0.00  0.00    -0.303 N 
ATOM      7  H   UNL     1       9.774  -1.327  22.576  0.00  0.00    +0.149 HD
ATOM      8  C   UNL     1       8.597   0.361  22.322  0.00  0.00    +0.231 C 
ATOM      9  O   UNL     1       7.548   0.941  22.596  0.00  0.00    -0.274 OA
BRANCH   6  11
ATOM     10  C   UNL     1       7.469  -2.983  22.270  0.00  0.00    +0.038 C 
ATOM     11  C   UNL     1       7.790  -1.809  23.193  0.00  0.00    +0.156 C 
BRANCH  11  12
ATOM     12  C   UNL     1       8.264  -2.308  24.571  0.00  0.00    +0.233 C 
ATOM     13  N   UNL     1       8.613  -3.646  24.609  0.00  0.00    -0.314 N 
ATOM     14  H   UNL     1       8.309  -4.238  23.847  0.00  0.00    +0.149 HD
ATOM     15  O   UNL     1       8.332  -1.571  25.552  0.00  0.00    -0.274 OA
BRANCH  13  16
ATOM     16  C   UNL     1       9.017  -4.280  25.847  0.00  0.00    +0.105 C 
BRANCH  16  17
ATOM     17  C   UNL     1       7.971  -5.269  26.355  0.00  0.00    +0.029 C 
BRANCH  17  18
ATOM     18  C   UNL     1       6.889  -4.573  27.176  0.00  0.00    +0.067 C 
BRANCH  18  19
ATOM     19  S   UNL     1       6.055  -5.760  28.270  0.00  0.00    -0.178 S 
ATOM     20  H   UNL     1       5.571  -4.859  29.137  0.00  0.00    +0.102 HD
ENDBRANCH  18  19
ENDBRANCH  17  18
ENDBRANCH  16  17
ENDBRANCH  13  16
ENDBRANCH  11  12
ENDBRANCH   6  11
ENDBRANCH   5   8
ENDBRANCH   1   5
BRANCH   3  21
ATOM     21  C   UNL     1      10.422   4.365  23.678  0.00  0.00    +0.233 C 
BRANCH  21  22
ATOM     22  N   UNL     1      11.472   4.962  22.854  0.00  0.00    -0.265 N 
ATOM     23  H   UNL     1      11.539   4.601  21.915  0.00  0.00    +0.259 HD
ATOM     24  C   UNL     1      12.586   5.564  23.319  0.00  0.00    +0.377 C 
ATOM     25  N   UNL     1      12.796   6.107  24.460  0.00  0.00    -0.130 NA
ATOM     26  H   UNL     1      11.966   6.031  25.046  0.00  0.00    +0.306 HD
ATOM     27  N   UNL     1      13.566   5.610  22.398  0.00  0.00    -0.289 N 
ATOM     28  H   UNL     1      14.384   6.026  22.832  0.00  0.00    +0.255 HD
ATOM     29  H   UNL     1      13.816   4.697  22.043  0.00  0.00    +0.255 HD
ENDBRANCH  21  22
BRANCH  21  30
ATOM     30  C   UNL     1       9.095   5.148  23.473  0.00  0.00    +0.035 C 
ATOM     31  C   UNL     1       9.216   6.640  23.851  0.00  0.00    +0.007 C 
ATOM     32  C   UNL     1       9.463   6.851  25.341  0.00  0.00    +0.000 C 
ATOM     33  C   UNL     1       8.434   6.143  26.219  0.00  0.00    +0.000 C 
ATOM     34  C   UNL     1       8.099   4.716  25.788  0.00  0.00    +0.000 C 
ATOM     35  C   UNL     1       7.923   4.558  24.278  0.00  0.00    +0.007 C 
ENDBRANCH  21  30
ENDBRANCH   3  21
TORSDOF 11
ENDMDL
MODEL 4
REMARK VINA RESULT:      -6.8      3.391      9.068
REMARK  Name = 
REMARK  12 active torsions:
REMARK  status: ('A' for Active; 'I' for Inactive)
REMARK    1  A    between atoms: C_1  and  C_2
REMARK    2  A    between atoms: C_2  and  N_4
REMARK    3  A    between atoms: C_2  and  C_23
REMARK    4  A    between atoms: C_5  and  C_7
REMARK    5  A    between atoms: C_7  and  N_8
REMARK    6  A    between atoms: C_9  and  C_11
REMARK    7  A    between atoms: C_11  and  N_13
REMARK    8  A    between atoms: C_11  and  C_17
REMARK    9  A    between atoms: N_25  and  C_26
REMARK   10  A    between atoms: C_26  and  C_27
REMARK   11  A    between atoms: C_27  and  C_28
REMARK   12  A    between atoms: C_28  and  S_29
REMARK                            x       y       z     vdW  Elec       q    Type
REMARK                         _______ _______ _______ _____ _____    ______ ____
ROOT
ATOM      1  N   UNL     1       9.410   1.529  21.680  0.00  0.00    -0.304 N 
ATOM      2  H   UNL     1      10.240   2.018  21.377  0.00  0.00    +0.149 HD
ATOM      3  C   UNL     1       8.310   2.249  22.097  0.00  0.00    +0.251 C 
ATOM      4  O   UNL     1       7.187   1.743  22.088  0.00  0.00    -0.272 OA
ENDROOT
BRANCH   1   5
ATOM      5  C   UNL     1       9.243   0.176  21.177  0.00  0.00    +0.200 C 
BRANCH   5   8
ATOM      6  N   UNL     1       8.830  -0.698  23.421  0.00  0.00    -0.303 N 
ATOM      7  H   UNL     1       8.020  -0.072  23.421  0.00  0.00    +0.149 HD
ATOM      8  C   UNL     1       9.564  -0.840  22.268  0.00  0.00    +0.231 C 
ATOM      9  O   UNL     1      10.362  -1.758  22.091  0.00  0.00    -0.274 OA
BRANCH   6  11
ATOM     10  C   UNL     1       8.794  -0.835  25.866  0.00  0.00    +0.038 C 
ATOM     11  C   UNL     1       8.993  -1.593  24.556  0.00  0.00    +0.156 C 
BRANCH  11  12
ATOM     12  C   UNL     1       7.994  -2.759  24.439  0.00  0.00    +0.233 C 
ATOM     13  N   UNL     1       8.498  -3.887  23.817  0.00  0.00    -0.314 N 
ATOM     14  H   UNL     1       9.351  -3.793  23.280  0.00  0.00    +0.149 HD
ATOM     15  O   UNL     1       6.846  -2.690  24.871  0.00  0.00    -0.274 OA
BRANCH  13  16
ATOM     16  C   UNL     1       7.663  -5.045  23.573  0.00  0.00    +0.105 C 
BRANCH  16  17
ATOM     17  C   UNL     1       7.257  -5.164  22.106  0.00  0.00    +0.029 C 
BRANCH  17  18
ATOM     18  C   UNL     1       5.899  -5.843  21.950  0.00  0.00    +0.067 C 
BRANCH  18  19
ATOM     19  S   UNL     1       4.724  -5.209  23.181  0.00  0.00    -0.178 S 
ATOM     20  H   UNL     1       4.070  -6.363  23.381  0.00  0.00    +0.102 HD
ENDBRANCH  18  19
ENDBRANCH  17  18
ENDBRANCH  16  17
ENDBRANCH  13  16
ENDBRANCH  11  12
ENDBRANCH   6  11
ENDBRANCH   5   8
ENDBRANCH   1   5
BRANCH   3  21
ATOM     21  C   UNL     1       8.570   3.653  22.713  0.00  0.00    +0.233 C 
BRANCH  21  22
ATOM     22  N   UNL     1       7.273   4.310  22.867  0.00  0.00    -0.265 N 
ATOM     23  H   UNL     1       6.558   3.749  23.305  0.00  0.00    +0.259 HD
ATOM     24  C   UNL     1       6.821   5.338  22.121  0.00  0.00    +0.377 C 
ATOM     25  N   UNL     1       7.485   6.206  21.453  0.00  0.00    -0.130 NA
ATOM     26  H   UNL     1       8.484   6.029  21.539  0.00  0.00    +0.306 HD
ATOM     27  N   UNL     1       5.480   5.444  22.155  0.00  0.00    -0.289 N 
ATOM     28  H   UNL     1       5.210   6.201  21.534  0.00  0.00    +0.255 HD
ATOM     29  H   UNL     1       5.010   4.599  21.860  0.00  0.00    +0.255 HD
ENDBRANCH  21  22
BRANCH  21  30
ATOM     30  C   UNL     1       9.323   3.667  24.073  0.00  0.00    +0.035 C 
ATOM     31  C   UNL     1       9.341   5.063  24.733  0.00  0.00    +0.007 C 
ATOM     32  C   UNL     1      10.147   6.080  23.932  0.00  0.00    +0.000 C 
ATOM     33  C   UNL     1      11.563   5.603  23.618  0.00  0.00    +0.000 C 
ATOM     34  C   UNL     1      11.658   4.151  23.151  0.00  0.00    +0.000 C 
ATOM     35  C   UNL     1      10.782   3.190  23.953  0.00  0.00    +0.007 C 
ENDBRANCH  21  30
ENDBRANCH   3  21
TORSDOF 11
ENDMDL
MODEL 5
REMARK VINA RESULT:      -6.8      1.894      2.130
REMARK  Name = 
REMARK  12 active torsions:
REMARK  status: ('A' for Active; 'I' for Inactive)
REMARK    1  A    between atoms: C_1  and  C_2
REMARK    2  A    between atoms: C_2  and  N_4
REMARK    3  A    between atoms: C_2  and  C_23
REMARK    4  A    between atoms: C_5  and  C_7
REMARK    5  A    between atoms: C_7  and  N_8
REMARK    6  A    between atoms: C_9  and  C_11
REMARK    7  A    between atoms: C_11  and  N_13
REMARK    8  A    between atoms: C_11  and  C_17
REMARK    9  A    between atoms: N_25  and  C_26
REMARK   10  A    between atoms: C_26  and  C_27
REMARK   11  A    between atoms: C_27  and  C_28
REMARK   12  A    between atoms: C_28  and  S_29
REMARK                            x       y       z     vdW  Elec       q    Type
REMARK                         _______ _______ _______ _____ _____    ______ ____
ROOT
ATOM      1  N   UNL     1       8.529  -1.738  24.843  0.00  0.00    -0.304 N 
ATOM      2  H   UNL     1       7.555  -1.472  24.814  0.00  0.00    +0.149 HD
ATOM      3  C   UNL     1       8.961  -2.814  24.096  0.00  0.00    +0.251 C 
ATOM      4  O   UNL     1      10.148  -2.929  23.785  0.00  0.00    -0.272 OA
ENDROOT
BRANCH   1   5
ATOM      5  C   UNL     1       9.468  -0.698  25.227  0.00  0.00    +0.200 C 
BRANCH   5   8
ATOM      6  N   UNL     1      10.032   0.631  23.257  0.00  0.00    -0.303 N 
ATOM      7  H   UNL     1      10.557  -0.195  22.957  0.00  0.00    +0.149 HD
ATOM      8  C   UNL     1       9.250   0.553  24.383  0.00  0.00    +0.231 C 
ATOM      9  O   UNL     1       8.384   1.382  24.657  0.00  0.00    -0.274 OA
BRANCH   6  11
ATOM     10  C   UNL     1       8.562   1.786  21.674  0.00  0.00    +0.038 C 
ATOM     11  C   UNL     1       9.941   1.747  22.329  0.00  0.00    +0.156 C 
BRANCH  11  12
ATOM     12  C   UNL     1      10.232   3.062  23.076  0.00  0.00    +0.233 C 
ATOM     13  N   UNL     1       9.173   3.952  23.105  0.00  0.00    -0.314 N 
ATOM     14  H   UNL     1       8.411   3.806  22.455  0.00  0.00    +0.149 HD
ATOM     15  O   UNL     1      11.315   3.294  23.608  0.00  0.00    -0.274 OA
BRANCH  13  16
ATOM     16  C   UNL     1       9.310   5.259  23.714  0.00  0.00    +0.105 C 
BRANCH  16  17
ATOM     17  C   UNL     1       8.511   6.327  22.970  0.00  0.00    +0.029 C 
BRANCH  17  18
ATOM     18  C   UNL     1       7.393   5.712  22.132  0.00  0.00    +0.067 C 
BRANCH  18  19
ATOM     19  S   UNL     1       5.848   5.643  23.085  0.00  0.00    -0.178 S 
ATOM     20  H   UNL     1       6.411   5.401  24.278  0.00  0.00    +0.102 HD
ENDBRANCH  18  19
ENDBRANCH  17  18
ENDBRANCH  16  17
ENDBRANCH  13  16
ENDBRANCH  11  12
ENDBRANCH   6  11
ENDBRANCH   5   8
ENDBRANCH   1   5
BRANCH   3  21
ATOM     21  C   UNL     1       7.927  -3.937  23.801  0.00  0.00    +0.233 C 
BRANCH  21  22
ATOM     22  N   UNL     1       7.772  -4.721  25.026  0.00  0.00    -0.265 N 
ATOM     23  H   UNL     1       6.979  -4.474  25.596  0.00  0.00    +0.259 HD
ATOM     24  C   UNL     1       8.762  -5.374  25.669  0.00  0.00    +0.377 C 
ATOM     25  N   UNL     1       9.877  -5.805  25.211  0.00  0.00    -0.130 NA
ATOM     26  H   UNL     1       9.962  -5.584  24.220  0.00  0.00    +0.306 HD
ATOM     27  N   UNL     1       8.462  -5.616  26.958  0.00  0.00    -0.289 N 
ATOM     28  H   UNL     1       9.268  -6.059  27.389  0.00  0.00    +0.255 HD
ATOM     29  H   UNL     1       8.239  -4.776  27.475  0.00  0.00    +0.255 HD
ENDBRANCH  21  22
BRANCH  21  30
ATOM     30  C   UNL     1       6.530  -3.461  23.312  0.00  0.00    +0.035 C 
ATOM     31  C   UNL     1       5.367  -4.215  23.993  0.00  0.00    +0.007 C 
ATOM     32  C   UNL     1       5.329  -5.693  23.620  0.00  0.00    +0.000 C 
ATOM     33  C   UNL     1       5.325  -5.925  22.111  0.00  0.00    +0.000 C 
ATOM     34  C   UNL     1       6.313  -5.060  21.330  0.00  0.00    +0.000 C 
ATOM     35  C   UNL     1       6.349  -3.603  21.791  0.00  0.00    +0.007 C 
ENDBRANCH  21  30
ENDBRANCH   3  21
TORSDOF 11
ENDMDL
MODEL 6
REMARK VINA RESULT:      -6.6      3.916      8.250
REMARK  Name = 
REMARK  12 active torsions:
REMARK  status: ('A' for Active; 'I' for Inactive)
REMARK    1  A    between atoms: C_1  and  C_2
REMARK    2  A    between atoms: C_2  and  N_4
REMARK    3  A    between atoms: C_2  and  C_23
REMARK    4  A    between atoms: C_5  and  C_7
REMARK    5  A    between atoms: C_7  and  N_8
REMARK    6  A    between atoms: C_9  and  C_11
REMARK    7  A    between atoms: C_11  and  N_13
REMARK    8  A    between atoms: C_11  and  C_17
REMARK    9  A    between atoms: N_25  and  C_26
REMARK   10  A    between atoms: C_26  and  C_27
REMARK   11  A    between atoms: C_27  and  C_28
REMARK   12  A    between atoms: C_28  and  S_29
REMARK                            x       y       z     vdW  Elec       q    Type
REMARK                         _______ _______ _______ _____ _____    ______ ____
ROOT
ATOM      1  N   UNL     1       6.996  -1.823  23.257  0.00  0.00    -0.304 N 
ATOM      2  H   UNL     1       7.741  -1.843  22.575  0.00  0.00    +0.149 HD
ATOM      3  C   UNL     1       6.779  -0.679  23.996  0.00  0.00    +0.251 C 
ATOM      4  O   UNL     1       5.685  -0.466  24.521  0.00  0.00    -0.272 OA
ENDROOT
BRANCH   1   5
ATOM      5  C   UNL     1       5.912  -2.769  23.050  0.00  0.00    +0.200 C 
BRANCH   5   8
ATOM      6  N   UNL     1       7.375  -4.121  24.464  0.00  0.00    -0.303 N 
ATOM      7  H   UNL     1       7.776  -3.225  24.756  0.00  0.00    +0.149 HD
ATOM      8  C   UNL     1       6.265  -4.124  23.654  0.00  0.00    +0.231 C 
ATOM      9  O   UNL     1       5.561  -5.117  23.485  0.00  0.00    -0.274 OA
BRANCH   6  11
ATOM     10  C   UNL     1       9.359  -5.280  25.310  0.00  0.00    +0.038 C 
ATOM     11  C   UNL     1       7.843  -5.322  25.137  0.00  0.00    +0.156 C 
BRANCH  11  12
ATOM     12  C   UNL     1       7.137  -5.456  26.499  0.00  0.00    +0.233 C 
ATOM     13  N   UNL     1       6.004  -6.250  26.484  0.00  0.00    -0.314 N 
ATOM     14  H   UNL     1       5.588  -6.467  25.587  0.00  0.00    +0.149 HD
ATOM     15  O   UNL     1       7.556  -4.907  27.516  0.00  0.00    -0.274 OA
BRANCH  13  16
ATOM     16  C   UNL     1       5.194  -6.422  27.672  0.00  0.00    +0.105 C 
BRANCH  16  17
ATOM     17  C   UNL     1       4.100  -5.362  27.782  0.00  0.00    +0.029 C 
BRANCH  17  18
ATOM     18  C   UNL     1       3.431  -5.102  26.434  0.00  0.00    +0.067 C 
BRANCH  18  19
ATOM     19  S   UNL     1       3.436  -3.326  26.051  0.00  0.00    -0.178 S 
ATOM     20  H   UNL     1       4.617  -3.308  25.415  0.00  0.00    +0.102 HD
ENDBRANCH  18  19
ENDBRANCH  17  18
ENDBRANCH  16  17
ENDBRANCH  13  16
ENDBRANCH  11  12
ENDBRANCH   6  11
ENDBRANCH   5   8
ENDBRANCH   1   5
BRANCH   3  21
ATOM     21  C   UNL     1       8.005   0.240  24.259  0.00  0.00    +0.233 C 
BRANCH  21  22
ATOM     22  N   UNL     1       8.179   0.333  25.708  0.00  0.00    -0.265 N 
ATOM     23  H   UNL     1       8.501   1.227  26.045  0.00  0.00    +0.259 HD
ATOM     24  C   UNL     1       8.392  -0.707  26.539  0.00  0.00    +0.377 C 
ATOM     25  N   UNL     1       8.098  -1.943  26.381  0.00  0.00    -0.130 NA
ATOM     26  H   UNL     1       7.649  -2.087  25.478  0.00  0.00    +0.306 HD
ATOM     27  N   UNL     1       8.957  -0.326  27.700  0.00  0.00    -0.289 N 
ATOM     28  H   UNL     1       9.135  -1.161  28.251  0.00  0.00    +0.255 HD
ATOM     29  H   UNL     1       9.829   0.169  27.571  0.00  0.00    +0.255 HD
ENDBRANCH  21  22
BRANCH  21  30
ATOM     30  C   UNL     1       9.342  -0.209  23.606  0.00  0.00    +0.035 C 
ATOM     31  C   UNL     1      10.565   0.557  24.154  0.00  0.00    +0.007 C 
ATOM     32  C   UNL     1      10.538   2.039  23.794  0.00  0.00    +0.000 C 
ATOM     33  C   UNL     1      10.361   2.284  22.298  0.00  0.00    +0.000 C 
ATOM     34  C   UNL     1       9.302   1.410  21.628  0.00  0.00    +0.000 C 
ATOM     35  C   UNL     1       9.342  -0.051  22.075  0.00  0.00    +0.007 C 
ENDBRANCH  21  30
ENDBRANCH   3  21
TORSDOF 11
ENDMDL
MODEL 7
REMARK VINA RESULT:      -6.6      3.632      9.055
REMARK  Name = 
REMARK  12 active torsions:
REMARK  status: ('A' for Active; 'I' for Inactive)
REMARK    1  A    between atoms: C_1  and  C_2
REMARK    2  A    between atoms: C_2  and  N_4
REMARK    3  A    between atoms: C_2  and  C_23
REMARK    4  A    between atoms: C_5  and  C_7
REMARK    5  A    between atoms: C_7  and  N_8
REMARK    6  A    between atoms: C_9  and  C_11
REMARK    7  A    between atoms: C_11  and  N_13
REMARK    8  A    between atoms: C_11  and  C_17
REMARK    9  A    between atoms: N_25  and  C_26
REMARK   10  A    between atoms: C_26  and  C_27
REMARK   11  A    between atoms: C_27  and  C_28
REMARK   12  A    between atoms: C_28  and  S_29
REMARK                            x       y       z     vdW  Elec       q    Type
REMARK                         _______ _______ _______ _____ _____    ______ ____
ROOT
ATOM      1  N   UNL     1      10.918   1.893  24.441  0.00  0.00    -0.304 N 
ATOM      2  H   UNL     1      11.475   2.250  25.205  0.00  0.00    +0.149 HD
ATOM      3  C   UNL     1      10.611   2.718  23.380  0.00  0.00    +0.251 C 
ATOM      4  O   UNL     1      10.300   2.246  22.285  0.00  0.00    -0.272 OA
ENDROOT
BRANCH   1   5
ATOM      5  C   UNL     1      10.928   0.451  24.260  0.00  0.00    +0.200 C 
BRANCH   5   8
ATOM      6  N   UNL     1       8.594  -0.091  23.784  0.00  0.00    -0.303 N 
ATOM      7  H   UNL     1       8.821   0.169  22.820  0.00  0.00    +0.149 HD
ATOM      8  C   UNL     1       9.603  -0.151  24.715  0.00  0.00    +0.231 C 
ATOM      9  O   UNL     1       9.480  -0.712  25.802  0.00  0.00    -0.274 OA
BRANCH   6  11
ATOM     10  C   UNL     1       6.208   0.451  23.890  0.00  0.00    +0.038 C 
ATOM     11  C   UNL     1       7.270  -0.634  24.044  0.00  0.00    +0.156 C 
BRANCH  11  12
ATOM     12  C   UNL     1       6.999  -1.809  23.085  0.00  0.00    +0.233 C 
ATOM     13  N   UNL     1       5.706  -2.297  23.126  0.00  0.00    -0.314 N 
ATOM     14  H   UNL     1       5.126  -2.042  23.916  0.00  0.00    +0.149 HD
ATOM     15  O   UNL     1       7.864  -2.266  22.341  0.00  0.00    -0.274 OA
BRANCH  13  16
ATOM     16  C   UNL     1       5.311  -3.441  22.331  0.00  0.00    +0.105 C 
BRANCH  16  17
ATOM     17  C   UNL     1       4.962  -4.650  23.195  0.00  0.00    +0.029 C 
BRANCH  17  18
ATOM     18  C   UNL     1       6.212  -5.305  23.778  0.00  0.00    +0.067 C 
BRANCH  18  19
ATOM     19  S   UNL     1       6.085  -5.422  25.587  0.00  0.00    -0.178 S 
ATOM     20  H   UNL     1       4.912  -6.070  25.619  0.00  0.00    +0.102 HD
ENDBRANCH  18  19
ENDBRANCH  17  18
ENDBRANCH  16  17
ENDBRANCH  13  16
ENDBRANCH  11  12
ENDBRANCH   6  11
ENDBRANCH   5   8
ENDBRANCH   1   5
BRANCH   3  21
ATOM     21  C   UNL     1      10.525   4.244  23.666  0.00  0.00    +0.233 C 
BRANCH  21  22
ATOM     22  N   UNL     1      11.538   4.901  22.843  0.00  0.00    -0.265 N 
ATOM     23  H   UNL     1      11.631   4.538  21.906  0.00  0.00    +0.259 HD
ATOM     24  C   UNL     1      12.610   5.575  23.307  0.00  0.00    +0.377 C 
ATOM     25  N   UNL     1      12.780   6.138  24.445  0.00  0.00    -0.130 NA
ATOM     26  H   UNL     1      11.955   6.013  25.028  0.00  0.00    +0.306 HD
ATOM     27  N   UNL     1      13.589   5.676  22.389  0.00  0.00    -0.289 N 
ATOM     28  H   UNL     1      14.378   6.146  22.823  0.00  0.00    +0.255 HD
ATOM     29  H   UNL     1      13.897   4.778  22.042  0.00  0.00    +0.255 HD
ENDBRANCH  21  22
BRANCH  21  30
ATOM     30  C   UNL     1       9.141   4.905  23.410  0.00  0.00    +0.035 C 
ATOM     31  C   UNL     1       9.110   6.399  23.797  0.00  0.00    +0.007 C 
ATOM     32  C   UNL     1       9.275   6.620  25.296  0.00  0.00    +0.000 C 
ATOM     33  C   UNL     1       8.280   5.816  26.129  0.00  0.00    +0.000 C 
ATOM     34  C   UNL     1       8.094   4.367  25.679  0.00  0.00    +0.000 C 
ATOM     35  C   UNL     1       7.996   4.205  24.163  0.00  0.00    +0.007 C 
ENDBRANCH  21  30
ENDBRANCH   3  21
TORSDOF 11
ENDMDL
MODEL 8
REMARK VINA RESULT:      -6.5      2.402      3.485
REMARK  Name = 
REMARK  12 active torsions:
REMARK  status: ('A' for Active; 'I' for Inactive)
REMARK    1  A    between atoms: C_1  and  C_2
REMARK    2  A    between atoms: C_2  and  N_4
REMARK    3  A    between atoms: C_2  and  C_23
REMARK    4  A    between atoms: C_5  and  C_7
REMARK    5  A    between atoms: C_7  and  N_8
REMARK    6  A    between atoms: C_9  and  C_11
REMARK    7  A    between atoms: C_11  and  N_13
REMARK    8  A    between atoms: C_11  and  C_17
REMARK    9  A    between atoms: N_25  and  C_26
REMARK   10  A    between atoms: C_26  and  C_27
REMARK   11  A    between atoms: C_27  and  C_28
REMARK   12  A    between atoms: C_28  and  S_29
REMARK                            x       y       z     vdW  Elec       q    Type
REMARK                         _______ _______ _______ _____ _____    ______ ____
ROOT
ATOM      1  N   UNL     1       8.476  -2.888  24.116  0.00  0.00    -0.304 N 
ATOM      2  H   UNL     1       7.802  -2.263  23.694  0.00  0.00    +0.149 HD
ATOM      3  C   UNL     1       8.194  -4.236  24.198  0.00  0.00    +0.251 C 
ATOM      4  O   UNL     1       9.100  -5.061  24.321  0.00  0.00    -0.272 OA
ENDROOT
BRANCH   1   5
ATOM      5  C   UNL     1       9.856  -2.433  24.123  0.00  0.00    +0.200 C 
BRANCH   5   8
ATOM      6  N   UNL     1       9.783  -0.102  23.396  0.00  0.00    -0.303 N 
ATOM      7  H   UNL     1       9.619   0.110  24.384  0.00  0.00    +0.149 HD
ATOM      8  C   UNL     1      10.078  -1.392  23.030  0.00  0.00    +0.231 C 
ATOM      9  O   UNL     1      10.556  -1.687  21.936  0.00  0.00    -0.274 OA
BRANCH   6  11
ATOM     10  C   UNL     1       8.792   1.086  21.497  0.00  0.00    +0.038 C 
ATOM     11  C   UNL     1       9.955   1.018  22.484  0.00  0.00    +0.156 C 
BRANCH  11  12
ATOM     12  C   UNL     1      10.069   2.325  23.290  0.00  0.00    +0.233 C 
ATOM     13  N   UNL     1       8.859   2.854  23.701  0.00  0.00    -0.314 N 
ATOM     14  H   UNL     1       8.016   2.514  23.255  0.00  0.00    +0.149 HD
ATOM     15  O   UNL     1      11.150   2.848  23.550  0.00  0.00    -0.274 OA
BRANCH  13  16
ATOM     16  C   UNL     1       8.794   4.114  24.413  0.00  0.00    +0.105 C 
BRANCH  16  17
ATOM     17  C   UNL     1       8.549   5.293  23.475  0.00  0.00    +0.029 C 
BRANCH  17  18
ATOM     18  C   UNL     1       9.648   6.346  23.594  0.00  0.00    +0.067 C 
BRANCH  18  19
ATOM     19  S   UNL     1       9.882   6.830  25.329  0.00  0.00    -0.178 S 
ATOM     20  H   UNL     1       8.924   7.768  25.360  0.00  0.00    +0.102 HD
ENDBRANCH  18  19
ENDBRANCH  17  18
ENDBRANCH  16  17
ENDBRANCH  13  16
ENDBRANCH  11  12
ENDBRANCH   6  11
ENDBRANCH   5   8
ENDBRANCH   1   5
BRANCH   3  21
ATOM     21  C   UNL     1       6.697  -4.646  24.282  0.00  0.00    +0.233 C 
BRANCH  21  22
ATOM     22  N   UNL     1       6.380  -5.393  23.065  0.00  0.00    -0.265 N 
ATOM     23  H   UNL     1       6.786  -6.314  23.010  0.00  0.00    +0.259 HD
ATOM     24  C   UNL     1       6.019  -4.851  21.885  0.00  0.00    +0.377 C 
ATOM     25  N   UNL     1       5.489  -3.710  21.647  0.00  0.00    -0.130 NA
ATOM     26  H   UNL     1       5.356  -3.193  22.515  0.00  0.00    +0.306 HD
ATOM     27  N   UNL     1       6.228  -5.688  20.852  0.00  0.00    -0.289 N 
ATOM     28  H   UNL     1       5.984  -5.197  19.996  0.00  0.00    +0.255 HD
ATOM     29  H   UNL     1       7.188  -5.999  20.785  0.00  0.00    +0.255 HD
ENDBRANCH  21  22
BRANCH  21  30
ATOM     30  C   UNL     1       6.294  -5.488  25.525  0.00  0.00    +0.035 C 
ATOM     31  C   UNL     1       4.784  -5.806  25.569  0.00  0.00    +0.007 C 
ATOM     32  C   UNL     1       3.926  -4.560  25.758  0.00  0.00    +0.000 C 
ATOM     33  C   UNL     1       4.347  -3.727  26.966  0.00  0.00    +0.000 C 
ATOM     34  C   UNL     1       5.855  -3.534  27.115  0.00  0.00    +0.000 C 
ATOM     35  C   UNL     1       6.664  -4.805  26.854  0.00  0.00    +0.007 C 
ENDBRANCH  21  30
ENDBRANCH   3  21
TORSDOF 11
ENDMDL
MODEL 9
REMARK VINA RESULT:      -6.5      3.731      8.456
REMARK  Name = 
REMARK  12 active torsions:
REMARK  status: ('A' for Active; 'I' for Inactive)
REMARK    1  A    between atoms: C_1  and  C_2
REMARK    2  A    between atoms: C_2  and  N_4
REMARK    3  A    between atoms: C_2  and  C_23
REMARK    4  A    between atoms: C_5  and  C_7
REMARK    5  A    between atoms: C_7  and  N_8
REMARK    6  A    between atoms: C_9  and  C_11
REMARK    7  A    between atoms: C_11  and  N_13
REMARK    8  A    between atoms: C_11  and  C_17
REMARK    9  A    between atoms: N_25  and  C_26
REMARK   10  A    between atoms: C_26  and  C_27
REMARK   11  A    between atoms: C_27  and  C_28
REMARK   12  A    between atoms: C_28  and  S_29
REMARK                            x       y       z     vdW  Elec       q    Type
REMARK                         _______ _______ _______ _____ _____    ______ ____
ROOT
ATOM      1  N   UNL     1       9.807   2.500  22.214  0.00  0.00    -0.304 N 
ATOM      2  H   UNL     1       9.073   3.068  21.816  0.00  0.00    +0.149 HD
ATOM      3  C   UNL     1      10.395   2.881  23.402  0.00  0.00    +0.251 C 
ATOM      4  O   UNL     1      10.978   2.058  24.109  0.00  0.00    -0.272 OA
ENDROOT
BRANCH   1   5
ATOM      5  C   UNL     1       9.828   1.104  21.810  0.00  0.00    +0.200 C 
BRANCH   5   8
ATOM      6  N   UNL     1       9.345  -0.557  23.535  0.00  0.00    -0.303 N 
ATOM      7  H   UNL     1      10.341  -0.486  23.759  0.00  0.00    +0.149 HD
ATOM      8  C   UNL     1       8.805   0.304  22.611  0.00  0.00    +0.231 C 
ATOM      9  O   UNL     1       7.595   0.481  22.484  0.00  0.00    -0.274 OA
BRANCH   6  11
ATOM     10  C   UNL     1       9.151  -2.756  24.595  0.00  0.00    +0.038 C 
ATOM     11  C   UNL     1       8.514  -1.383  24.397  0.00  0.00    +0.156 C 
BRANCH  11  12
ATOM     12  C   UNL     1       8.311  -0.672  25.749  0.00  0.00    +0.233 C 
ATOM     13  N   UNL     1       7.442   0.404  25.707  0.00  0.00    -0.314 N 
ATOM     14  H   UNL     1       7.212   0.794  24.801  0.00  0.00    +0.149 HD
ATOM     15  O   UNL     1       8.871  -1.040  26.779  0.00  0.00    -0.274 OA
BRANCH  13  16
ATOM     16  C   UNL     1       7.197   1.215  26.881  0.00  0.00    +0.105 C 
BRANCH  16  17
ATOM     17  C   UNL     1       5.707   1.351  27.185  0.00  0.00    +0.029 C 
BRANCH  17  18
ATOM     18  C   UNL     1       4.857   1.167  25.930  0.00  0.00    +0.067 C 
BRANCH  18  19
ATOM     19  S   UNL     1       4.570   2.765  25.114  0.00  0.00    -0.178 S 
ATOM     20  H   UNL     1       5.768   3.299  25.394  0.00  0.00    +0.102 HD
ENDBRANCH  18  19
ENDBRANCH  17  18
ENDBRANCH  16  17
ENDBRANCH  13  16
ENDBRANCH  11  12
ENDBRANCH   6  11
ENDBRANCH   5   8
ENDBRANCH   1   5
BRANCH   3  21
ATOM     21  C   UNL     1      10.421   4.402  23.726  0.00  0.00    +0.233 C 
BRANCH  21  22
ATOM     22  N   UNL     1      11.459   5.008  22.894  0.00  0.00    -0.265 N 
ATOM     23  H   UNL     1      11.520   4.648  21.954  0.00  0.00    +0.259 HD
ATOM     24  C   UNL     1      12.572   5.618  23.350  0.00  0.00    +0.377 C 
ATOM     25  N   UNL     1      12.788   6.162  24.490  0.00  0.00    -0.130 NA
ATOM     26  H   UNL     1      11.964   6.079  25.083  0.00  0.00    +0.306 HD
ATOM     27  N   UNL     1      13.544   5.672  22.421  0.00  0.00    -0.289 N 
ATOM     28  H   UNL     1      14.363   6.095  22.848  0.00  0.00    +0.255 HD
ATOM     29  H   UNL     1      13.798   4.761  22.063  0.00  0.00    +0.255 HD
ENDBRANCH  21  22
BRANCH  21  30
ATOM     30  C   UNL     1       9.081   5.162  23.518  0.00  0.00    +0.035 C 
ATOM     31  C   UNL     1       9.175   6.656  23.895  0.00  0.00    +0.007 C 
ATOM     32  C   UNL     1       9.415   6.871  25.385  0.00  0.00    +0.000 C 
ATOM     33  C   UNL     1       8.395   6.147  26.262  0.00  0.00    +0.000 C 
ATOM     34  C   UNL     1       8.086   4.714  25.830  0.00  0.00    +0.000 C 
ATOM     35  C   UNL     1       7.917   4.553  24.319  0.00  0.00    +0.007 C 
ENDBRANCH  21  30
ENDBRANCH   3  21
TORSDOF 11
ENDMDL
