MODEL 1
REMARK VINA RESULT:      -3.3      0.000      0.000
REMARK  Name = 
REMARK  5 active torsions:
REMARK  status: ('A' for Active; 'I' for Inactive)
REMARK    1  A    between atoms: O_1  and  C_2
REMARK    2  A    between atoms: C_2  and  C_3
REMARK    3  A    between atoms: C_3  and  O_5
REMARK    4  A    between atoms: C_3  and  C_6
REMARK    5  A    between atoms: C_6  and  S_7
REMARK                            x       y       z     vdW  Elec       q    Type
REMARK                         _______ _______ _______ _____ _____    ______ ____
ROOT
ATOM      1  C   UNL     1      12.166   5.547  23.928  0.00  0.00    +0.149 C 
ENDROOT
BRANCH   1   2
ATOM      2  O   UNL     1      12.791   6.469  24.835  0.00  0.00    -0.389 OA
ATOM      3  H   UNL     1      12.573   6.126  25.726  0.00  0.00    +0.210 HD
ENDBRANCH   1   2
BRANCH   1   4
ATOM      4  C   UNL     1      13.034   5.419  22.671  0.00  0.00    +0.187 C 
BRANCH   4   5
ATOM      5  O   UNL     1      14.365   5.090  23.084  0.00  0.00    -0.392 OA
ATOM      6  H   UNL     1      14.538   4.184  22.770  0.00  0.00    +0.210 HD
ENDBRANCH   4   5
ENDBRANCH   1   4
BRANCH   1   7
ATOM      7  C   UNL     1      10.722   5.977  23.656  0.00  0.00    +0.099 C 
BRANCH   7   8
ATOM      8  S   UNL     1       9.494   4.667  23.970  0.00  0.00    -0.176 S 
ATOM      9  H   UNL     1      10.399   3.723  24.283  0.00  0.00    +0.102 HD
ENDBRANCH   7   8
ENDBRANCH   1   7
TORSDOF 5
ENDMDL
MODEL 2
REMARK VINA RESULT:      -3.1      6.039      6.171
REMARK  Name = 
REMARK  5 active torsions:
REMARK  status: ('A' for Active; 'I' for Inactive)
REMARK    1  A    between atoms: O_1  and  C_2
REMARK    2  A    between atoms: C_2  and  C_3
REMARK    3  A    between atoms: C_3  and  O_5
REMARK    4  A    between atoms: C_3  and  C_6
REMARK    5  A    between atoms: C_6  and  S_7
REMARK                            x       y       z     vdW  Elec       q    Type
REMARK                         _______ _______ _______ _____ _____    ______ ____
ROOT
ATOM      1  C   UNL     1       9.948   0.851  22.113  0.00  0.00    +0.149 C 
ENDROOT
BRANCH   1   2
ATOM      2  O   UNL     1       9.724   2.054  21.363  0.00  0.00    -0.389 OA
ATOM      3  H   UNL     1       9.409   2.704  22.024  0.00  0.00    +0.210 HD
ENDBRANCH   1   2
BRANCH   1   4
ATOM      4  C   UNL     1       9.345  -0.332  21.349  0.00  0.00    +0.187 C 
BRANCH   4   5
ATOM      5  O   UNL     1      10.200  -1.465  21.541  0.00  0.00    -0.392 OA
ATOM      6  H   UNL     1       9.626  -2.253  21.528  0.00  0.00    +0.210 HD
ENDBRANCH   4   5
ENDBRANCH   1   4
BRANCH   1   7
ATOM      7  C   UNL     1       9.418   1.017  23.540  0.00  0.00    +0.099 C 
BRANCH   7   8
ATOM      8  S   UNL     1      10.571   0.431  24.825  0.00  0.00    -0.176 S 
ATOM      9  H   UNL     1      11.549   0.092  23.967  0.00  0.00    +0.102 HD
ENDBRANCH   7   8
ENDBRANCH   1   7
TORSDOF 5
ENDMDL
MODEL 3
REMARK VINA RESULT:      -3.0     11.177     11.394
REMARK  Name = 
REMARK  5 active torsions:
REMARK  status: ('A' for Active; 'I' for Inactive)
REMARK    1  A    between atoms: O_1  and  C_2
REMARK    2  A    between atoms: C_2  and  C_3
REMARK    3  A    between atoms: C_3  and  O_5
REMARK    4  A    between atoms: C_3  and  C_6
REMARK    5  A    between atoms: C_6  and  S_7
REMARK                            x       y       z     vdW  Elec       q    Type
REMARK                         _______ _______ _______ _____ _____    ______ ____
ROOT
ATOM      1  C   UNL     1       9.226  -4.693  25.257  0.00  0.00    +0.149 C 
ENDROOT
BRANCH   1   2
ATOM      2  O   UNL     1      10.271  -5.675  25.326  0.00  0.00    -0.389 OA
ATOM      3  H   UNL     1       9.987  -6.384  24.713  0.00  0.00    +0.210 HD
ENDBRANCH   1   2
BRANCH   1   4
ATOM      4  C   UNL     1       8.562  -4.575  26.633  0.00  0.00    +0.187 C 
BRANCH   4   5
ATOM      5  O   UNL     1       8.143  -5.884  27.036  0.00  0.00    -0.392 OA
ATOM      6  H   UNL     1       8.613  -6.516  26.463  0.00  0.00    +0.210 HD
ENDBRANCH   4   5
ENDBRANCH   1   4
BRANCH   1   7
ATOM      7  C   UNL     1       8.262  -5.033  24.118  0.00  0.00    +0.099 C 
BRANCH   7   8
ATOM      8  S   UNL     1       7.719  -3.581  23.158  0.00  0.00    -0.176 S 
ATOM      9  H   UNL     1       6.527  -3.469  23.770  0.00  0.00    +0.102 HD
ENDBRANCH   7   8
ENDBRANCH   1   7
TORSDOF 5
ENDMDL
MODEL 4
REMARK VINA RESULT:      -2.9      6.928      7.183
REMARK  Name = 
REMARK  5 active torsions:
REMARK  status: ('A' for Active; 'I' for Inactive)
REMARK    1  A    between atoms: O_1  and  C_2
REMARK    2  A    between atoms: C_2  and  C_3
REMARK    3  A    between atoms: C_3  and  O_5
REMARK    4  A    between atoms: C_3  and  C_6
REMARK    5  A    between atoms: C_6  and  S_7
REMARK                            x       y       z     vdW  Elec       q    Type
REMARK                         _______ _______ _______ _____ _____    ______ ____
ROOT
ATOM      1  C   UNL     1       9.256  -0.403  21.667  0.00  0.00    +0.149 C 
ENDROOT
BRANCH   1   2
ATOM      2  O   UNL     1      10.193  -1.462  21.417  0.00  0.00    -0.389 OA
ATOM      3  H   UNL     1      10.163  -2.016  22.223  0.00  0.00    +0.210 HD
ENDBRANCH   1   2
BRANCH   1   4
ATOM      4  C   UNL     1      10.020   0.838  22.140  0.00  0.00    +0.187 C 
BRANCH   4   5
ATOM      5  O   UNL     1       9.624   1.941  21.317  0.00  0.00    -0.392 OA
ATOM      6  H   UNL     1       9.794   2.750  21.835  0.00  0.00    +0.210 HD
ENDBRANCH   4   5
ENDBRANCH   1   4
BRANCH   1   7
ATOM      7  C   UNL     1       8.171  -0.882  22.635  0.00  0.00    +0.099 C 
BRANCH   7   8
ATOM      8  S   UNL     1       7.767  -2.652  22.470  0.00  0.00    -0.176 S 
ATOM      9  H   UNL     1       6.448  -2.496  22.674  0.00  0.00    +0.102 HD
ENDBRANCH   7   8
ENDBRANCH   1   7
TORSDOF 5
ENDMDL
MODEL 5
REMARK VINA RESULT:      -2.9      6.502      6.777
REMARK  Name = 
REMARK  5 active torsions:
REMARK  status: ('A' for Active; 'I' for Inactive)
REMARK    1  A    between atoms: O_1  and  C_2
REMARK    2  A    between atoms: C_2  and  C_3
REMARK    3  A    between atoms: C_3  and  O_5
REMARK    4  A    between atoms: C_3  and  C_6
REMARK    5  A    between atoms: C_6  and  S_7
REMARK                            x       y       z     vdW  Elec       q    Type
REMARK                         _______ _______ _______ _____ _____    ______ ____
ROOT
ATOM      1  C   UNL     1       9.535  -0.539  22.272  0.00  0.00    +0.149 C 
ENDROOT
BRANCH   1   2
ATOM      2  O   UNL     1      10.157  -1.463  21.367  0.00  0.00    -0.389 OA
ATOM      3  H   UNL     1      10.236  -2.295  21.877  0.00  0.00    +0.210 HD
ENDBRANCH   1   2
BRANCH   1   4
ATOM      4  C   UNL     1       9.846   0.891  21.817  0.00  0.00    +0.187 C 
BRANCH   4   5
ATOM      5  O   UNL     1       8.790   1.318  20.949  0.00  0.00    -0.392 OA
ATOM      6  H   UNL     1       9.018   2.219  20.655  0.00  0.00    +0.210 HD
ENDBRANCH   4   5
ENDBRANCH   1   4
BRANCH   1   7
ATOM      7  C   UNL     1       9.959  -0.849  23.710  0.00  0.00    +0.099 C 
BRANCH   7   8
ATOM      8  S   UNL     1      10.689   0.574  24.585  0.00  0.00    -0.176 S 
ATOM      9  H   UNL     1      10.909   1.300  23.475  0.00  0.00    +0.102 HD
ENDBRANCH   7   8
ENDBRANCH   1   7
TORSDOF 5
ENDMDL
MODEL 6
REMARK VINA RESULT:      -2.9      7.468      7.733
REMARK  Name = 
REMARK  5 active torsions:
REMARK  status: ('A' for Active; 'I' for Inactive)
REMARK    1  A    between atoms: O_1  and  C_2
REMARK    2  A    between atoms: C_2  and  C_3
REMARK    3  A    between atoms: C_3  and  O_5
REMARK    4  A    between atoms: C_3  and  C_6
REMARK    5  A    between atoms: C_6  and  S_7
REMARK                            x       y       z     vdW  Elec       q    Type
REMARK                         _______ _______ _______ _____ _____    ______ ____
ROOT
ATOM      1  C   UNL     1      10.366  -1.504  22.820  0.00  0.00    +0.149 C 
ENDROOT
BRANCH   1   2
ATOM      2  O   UNL     1      10.151  -1.560  21.402  0.00  0.00    -0.389 OA
ATOM      3  H   UNL     1       9.547  -2.319  21.272  0.00  0.00    +0.210 HD
ENDBRANCH   1   2
BRANCH   1   4
ATOM      4  C   UNL     1       9.345  -2.411  23.515  0.00  0.00    +0.187 C 
BRANCH   4   5
ATOM      5  O   UNL     1      10.062  -3.460  24.175  0.00  0.00    -0.392 OA
ATOM      6  H   UNL     1      10.817  -3.686  23.603  0.00  0.00    +0.210 HD
ENDBRANCH   4   5
ENDBRANCH   1   4
BRANCH   1   7
ATOM      7  C   UNL     1      10.345  -0.050  23.297  0.00  0.00    +0.099 C 
BRANCH   7   8
ATOM      8  S   UNL     1       9.744   1.127  22.041  0.00  0.00    -0.176 S 
ATOM      9  H   UNL     1       8.466   0.715  22.089  0.00  0.00    +0.102 HD
ENDBRANCH   7   8
ENDBRANCH   1   7
TORSDOF 5
ENDMDL
MODEL 7
REMARK VINA RESULT:      -2.8      5.539      5.778
REMARK  Name = 
REMARK  5 active torsions:
REMARK  status: ('A' for Active; 'I' for Inactive)
REMARK    1  A    between atoms: O_1  and  C_2
REMARK    2  A    between atoms: C_2  and  C_3
REMARK    3  A    between atoms: C_3  and  O_5
REMARK    4  A    between atoms: C_3  and  C_6
REMARK    5  A    between atoms: C_6  and  S_7
REMARK                            x       y       z     vdW  Elec       q    Type
REMARK                         _______ _______ _______ _____ _____    ______ ____
ROOT
ATOM      1  C   UNL     1       9.763   1.336  22.505  0.00  0.00    +0.149 C 
ENDROOT
BRANCH   1   2
ATOM      2  O   UNL     1      10.323   2.370  21.681  0.00  0.00    -0.389 OA
ATOM      3  H   UNL     1      10.208   2.046  20.764  0.00  0.00    +0.210 HD
ENDBRANCH   1   2
BRANCH   1   4
ATOM      4  C   UNL     1      10.586   1.223  23.793  0.00  0.00    +0.187 C 
BRANCH   4   5
ATOM      5  O   UNL     1       9.732   1.550  24.894  0.00  0.00    -0.392 OA
ATOM      6  H   UNL     1       8.992   0.916  24.872  0.00  0.00    +0.210 HD
ENDBRANCH   4   5
ENDBRANCH   1   4
BRANCH   1   7
ATOM      7  C   UNL     1       9.656   0.032  21.710  0.00  0.00    +0.099 C 
BRANCH   7   8
ATOM      8  S   UNL     1      10.164  -1.446  22.648  0.00  0.00    -0.176 S 
ATOM      9  H   UNL     1      11.186  -1.762  21.835  0.00  0.00    +0.102 HD
ENDBRANCH   7   8
ENDBRANCH   1   7
TORSDOF 5
ENDMDL
MODEL 8
REMARK VINA RESULT:      -2.8     12.550     12.845
REMARK  Name = 
REMARK  5 active torsions:
REMARK  status: ('A' for Active; 'I' for Inactive)
REMARK    1  A    between atoms: O_1  and  C_2
REMARK    2  A    between atoms: C_2  and  C_3
REMARK    3  A    between atoms: C_3  and  O_5
REMARK    4  A    between atoms: C_3  and  C_6
REMARK    5  A    between atoms: C_6  and  S_7
REMARK                            x       y       z     vdW  Elec       q    Type
REMARK                         _______ _______ _______ _____ _____    ______ ____
ROOT
ATOM      1  C   UNL     1       2.278   5.230  14.544  0.00  0.00    +0.149 C 
ENDROOT
BRANCH   1   2
ATOM      2  O   UNL     1       3.171   4.232  15.060  0.00  0.00    -0.389 OA
ATOM      3  H   UNL     1       3.726   4.708  15.712  0.00  0.00    +0.210 HD
ENDBRANCH   1   2
BRANCH   1   4
ATOM      4  C   UNL     1       3.076   6.501  14.232  0.00  0.00    +0.187 C 
BRANCH   4   5
ATOM      5  O   UNL     1       4.078   6.653  15.243  0.00  0.00    -0.392 OA
ATOM      6  H   UNL     1       3.722   6.245  16.053  0.00  0.00    +0.210 HD
ENDBRANCH   4   5
ENDBRANCH   1   4
BRANCH   1   7
ATOM      7  C   UNL     1       1.111   5.441  15.513  0.00  0.00    +0.099 C 
BRANCH   7   8
ATOM      8  S   UNL     1       1.443   4.845  17.204  0.00  0.00    -0.176 S 
ATOM      9  H   UNL     1       0.226   5.153  17.683  0.00  0.00    +0.102 HD
ENDBRANCH   7   8
ENDBRANCH   1   7
TORSDOF 5
ENDMDL
MODEL 9
REMARK VINA RESULT:      -2.8      5.576      5.744
REMARK  Name = 
REMARK  5 active torsions:
REMARK  status: ('A' for Active; 'I' for Inactive)
REMARK    1  A    between atoms: O_1  and  C_2
REMARK    2  A    between atoms: C_2  and  C_3
REMARK    3  A    between atoms: C_3  and  O_5
REMARK    4  A    between atoms: C_3  and  C_6
REMARK    5  A    between atoms: C_6  and  S_7
REMARK                            x       y       z     vdW  Elec       q    Type
REMARK                         _______ _______ _______ _____ _____    ______ ____
ROOT
ATOM      1  C   UNL     1       9.431   1.530  22.225  0.00  0.00    +0.149 C 
ENDROOT
BRANCH   1   2
ATOM      2  O   UNL     1      10.390   2.382  21.580  0.00  0.00    -0.389 OA
ATOM      3  H   UNL     1      11.245   1.917  21.686  0.00  0.00    +0.210 HD
ENDBRANCH   1   2
BRANCH   1   4
ATOM      4  C   UNL     1       9.950   0.088  22.202  0.00  0.00    +0.187 C 
BRANCH   4   5
ATOM      5  O   UNL     1       9.486  -0.530  20.997  0.00  0.00    -0.392 OA
ATOM      6  H   UNL     1       8.625  -0.936  21.205  0.00  0.00    +0.210 HD
ENDBRANCH   4   5
ENDBRANCH   1   4
BRANCH   1   7
ATOM      7  C   UNL     1       8.052   1.714  21.586  0.00  0.00    +0.099 C 
BRANCH   7   8
ATOM      8  S   UNL     1       7.132   3.151  22.226  0.00  0.00    -0.176 S 
ATOM      9  H   UNL     1       8.116   4.038  21.997  0.00  0.00    +0.102 HD
ENDBRANCH   7   8
ENDBRANCH   1   7
TORSDOF 5
ENDMDL
