MODEL 1
REMARK VINA RESULT:      -5.2      0.000      0.000
REMARK  Name = 
REMARK  6 active torsions:
REMARK  status: ('A' for Active; 'I' for Inactive)
REMARK    1  A    between atoms: O_1  and  C_2
REMARK    2  A    between atoms: C_2  and  C_3
REMARK    3  A    between atoms: N_7  and  O_8
REMARK    4  A    between atoms: C_9  and  O_11
REMARK    5  A    between atoms: C_12  and  O_14
REMARK    6  A    between atoms: C_15  and  O_17
REMARK                            x       y       z     vdW  Elec       q    Type
REMARK                         _______ _______ _______ _____ _____    ______ ____
ROOT
ATOM      1  C   UNK     1       8.866   1.258  21.354  0.00  0.00    +0.221 C 
ATOM      2  C   UNK     1       8.892  -0.173  21.943  0.00  0.00    +0.191 C 
ATOM      3  C   UNK     1       9.230  -0.181  23.440  0.00  0.00    +0.187 C 
ATOM      4  C   UNK     1      10.513   0.602  23.756  0.00  0.00    +0.265 C 
ATOM      5  C   UNK     1      10.472   1.971  23.063  0.00  0.00    +0.365 C 
ATOM      6  N   UNK     1      10.819   3.012  23.762  0.00  0.00    +0.149 NA
ATOM      7  N   UNK     1      10.065   2.014  21.748  0.00  0.00    -0.224 N 
ATOM      8  H   UNK     1       9.995   2.984  21.435  0.00  0.00    +0.292 HD
ENDROOT
BRANCH   2   9
ATOM      9  O   UNK     1       9.850  -0.970  21.229  0.00  0.00    -0.385 OA
ATOM     10  H   UNK     1       9.596  -1.904  21.331  0.00  0.00    +0.210 HD
ENDBRANCH   2   9
BRANCH   3  11
ATOM     11  O   UNK     1       8.131   0.340  24.204  0.00  0.00    -0.386 OA
ATOM     12  H   UNK     1       8.184   1.313  24.078  0.00  0.00    +0.210 HD
ENDBRANCH   3  11
BRANCH   4  13
ATOM     13  O   UNK     1      10.590   0.748  25.178  0.00  0.00    -0.378 OA
ATOM     14  H   UNK     1       9.691   0.518  25.497  0.00  0.00    +0.211 HD
ENDBRANCH   4  13
BRANCH   6  15
ATOM     15  O   UNK     1      10.662   4.181  22.999  0.00  0.00    -0.311 OA
ATOM     16  H   UNK     1       9.818   4.540  23.331  0.00  0.00    +0.361 HD
ENDBRANCH   6  15
BRANCH   1  17
ATOM     17  C   UNK     1       7.623   2.064  21.782  0.00  0.00    +0.205 C 
BRANCH  17  18
ATOM     18  O   UNK     1       7.991   3.433  21.988  0.00  0.00    -0.391 OA
ATOM     19  H   UNK     1       8.515   3.699  21.213  0.00  0.00    +0.210 HD
ENDBRANCH  17  18
ENDBRANCH   1  17
TORSDOF 6
ENDMDL
MODEL 2
REMARK VINA RESULT:      -4.8      2.155      3.593
REMARK  Name = 
REMARK  6 active torsions:
REMARK  status: ('A' for Active; 'I' for Inactive)
REMARK    1  A    between atoms: O_1  and  C_2
REMARK    2  A    between atoms: C_2  and  C_3
REMARK    3  A    between atoms: N_7  and  O_8
REMARK    4  A    between atoms: C_9  and  O_11
REMARK    5  A    between atoms: C_12  and  O_14
REMARK    6  A    between atoms: C_15  and  O_17
REMARK                            x       y       z     vdW  Elec       q    Type
REMARK                         _______ _______ _______ _____ _____    ______ ____
ROOT
ATOM      1  C   UNK     1       8.937   0.122  21.742  0.00  0.00    +0.221 C 
ATOM      2  C   UNK     1      10.109   1.006  22.234  0.00  0.00    +0.191 C 
ATOM      3  C   UNK     1      10.110   1.174  23.759  0.00  0.00    +0.187 C 
ATOM      4  C   UNK     1       8.755   1.652  24.299  0.00  0.00    +0.265 C 
ATOM      5  C   UNK     1       7.625   0.802  23.698  0.00  0.00    +0.365 C 
ATOM      6  N   UNK     1       6.702   0.368  24.505  0.00  0.00    +0.149 NA
ATOM      7  N   UNK     1       7.664   0.546  22.346  0.00  0.00    -0.224 N 
ATOM      8  H   UNK     1       6.915  -0.099  22.090  0.00  0.00    +0.292 HD
ENDROOT
BRANCH   2   9
ATOM      9  O   UNK     1      10.034   2.296  21.608  0.00  0.00    -0.385 OA
ATOM     10  H   UNK     1      10.683   2.876  22.042  0.00  0.00    +0.210 HD
ENDBRANCH   2   9
BRANCH   3  11
ATOM     11  O   UNK     1      10.493  -0.054  24.398  0.00  0.00    -0.386 OA
ATOM     12  H   UNK     1      10.045  -0.753  23.873  0.00  0.00    +0.210 HD
ENDBRANCH   3  11
BRANCH   4  13
ATOM     13  O   UNK     1       8.789   1.526  25.725  0.00  0.00    -0.378 OA
ATOM     14  H   UNK     1       7.970   1.973  26.029  0.00  0.00    +0.211 HD
ENDBRANCH   4  13
BRANCH   6  15
ATOM     15  O   UNK     1       5.791  -0.440  23.807  0.00  0.00    -0.311 OA
ATOM     16  H   UNK     1       5.231  -0.796  24.521  0.00  0.00    +0.361 HD
ENDBRANCH   6  15
BRANCH   1  17
ATOM     17  C   UNK     1       9.142  -1.376  22.047  0.00  0.00    +0.205 C 
BRANCH  17  18
ATOM     18  O   UNK     1      10.522  -1.715  21.861  0.00  0.00    -0.391 OA
ATOM     19  H   UNK     1      10.567  -2.686  21.825  0.00  0.00    +0.210 HD
ENDBRANCH  17  18
ENDBRANCH   1  17
TORSDOF 6
ENDMDL
MODEL 3
REMARK VINA RESULT:      -4.8      2.096      3.572
REMARK  Name = 
REMARK  6 active torsions:
REMARK  status: ('A' for Active; 'I' for Inactive)
REMARK    1  A    between atoms: O_1  and  C_2
REMARK    2  A    between atoms: C_2  and  C_3
REMARK    3  A    between atoms: N_7  and  O_8
REMARK    4  A    between atoms: C_9  and  O_11
REMARK    5  A    between atoms: C_12  and  O_14
REMARK    6  A    between atoms: C_15  and  O_17
REMARK                            x       y       z     vdW  Elec       q    Type
REMARK                         _______ _______ _______ _____ _____    ______ ____
ROOT
ATOM      1  C   UNK     1       8.522  -0.847  24.166  0.00  0.00    +0.221 C 
ATOM      2  C   UNK     1      10.032  -0.875  23.827  0.00  0.00    +0.191 C 
ATOM      3  C   UNK     1      10.506   0.430  23.172  0.00  0.00    +0.187 C 
ATOM      4  C   UNK     1       9.645   0.828  21.965  0.00  0.00    +0.265 C 
ATOM      5  C   UNK     1       8.157   0.740  22.334  0.00  0.00    +0.365 C 
ATOM      6  N   UNK     1       7.389   1.729  21.982  0.00  0.00    +0.149 NA
ATOM      7  N   UNK     1       7.731  -0.375  23.020  0.00  0.00    -0.224 N 
ATOM      8  H   UNK     1       6.749  -0.270  23.282  0.00  0.00    +0.292 HD
ENDROOT
BRANCH   2   9
ATOM      9  O   UNK     1      10.307  -1.979  22.951  0.00  0.00    -0.385 OA
ATOM     10  H   UNK     1       9.634  -2.664  23.114  0.00  0.00    +0.210 HD
ENDBRANCH   2   9
BRANCH   3  11
ATOM     11  O   UNK     1      10.529   1.494  24.137  0.00  0.00    -0.386 OA
ATOM     12  H   UNK     1       9.838   1.247  24.791  0.00  0.00    +0.210 HD
ENDBRANCH   3  11
BRANCH   4  13
ATOM     13  O   UNK     1      10.005   2.165  21.600  0.00  0.00    -0.378 OA
ATOM     14  H   UNK     1      10.551   2.059  20.792  0.00  0.00    +0.211 HD
ENDBRANCH   4  13
BRANCH   6  15
ATOM     15  O   UNK     1       6.082   1.517  22.452  0.00  0.00    -0.311 OA
ATOM     16  H   UNK     1       5.598   2.279  22.084  0.00  0.00    +0.361 HD
ENDBRANCH   6  15
BRANCH   1  17
ATOM     17  C   UNK     1       8.194   0.045  25.381  0.00  0.00    +0.205 C 
BRANCH  17  18
ATOM     18  O   UNK     1       9.227  -0.092  26.365  0.00  0.00    -0.391 OA
ATOM     19  H   UNK     1       9.862  -0.739  26.013  0.00  0.00    +0.210 HD
ENDBRANCH  17  18
ENDBRANCH   1  17
TORSDOF 6
ENDMDL
MODEL 4
REMARK VINA RESULT:      -4.8      6.415      7.903
REMARK  Name = 
REMARK  6 active torsions:
REMARK  status: ('A' for Active; 'I' for Inactive)
REMARK    1  A    between atoms: O_1  and  C_2
REMARK    2  A    between atoms: C_2  and  C_3
REMARK    3  A    between atoms: N_7  and  O_8
REMARK    4  A    between atoms: C_9  and  O_11
REMARK    5  A    between atoms: C_12  and  O_14
REMARK    6  A    between atoms: C_15  and  O_17
REMARK                            x       y       z     vdW  Elec       q    Type
REMARK                         _______ _______ _______ _____ _____    ______ ____
ROOT
ATOM      1  C   UNK     1       7.035  -4.487  23.202  0.00  0.00    +0.221 C 
ATOM      2  C   UNK     1       8.326  -3.849  23.769  0.00  0.00    +0.191 C 
ATOM      3  C   UNK     1       8.869  -4.613  24.983  0.00  0.00    +0.187 C 
ATOM      4  C   UNK     1       7.804  -4.829  26.067  0.00  0.00    +0.265 C 
ATOM      5  C   UNK     1       6.515  -5.368  25.430  0.00  0.00    +0.365 C 
ATOM      6  N   UNK     1       5.925  -6.369  26.017  0.00  0.00    +0.149 NA
ATOM      7  N   UNK     1       6.068  -4.766  24.276  0.00  0.00    -0.224 N 
ATOM      8  H   UNK     1       5.260  -5.272  23.907  0.00  0.00    +0.292 HD
ENDROOT
BRANCH   2   9
ATOM      9  O   UNK     1       8.066  -2.484  24.136  0.00  0.00    -0.385 OA
ATOM     10  H   UNK     1       7.256  -2.470  24.675  0.00  0.00    +0.210 HD
ENDBRANCH   2   9
BRANCH   3  11
ATOM     11  O   UNK     1       9.422  -5.874  24.574  0.00  0.00    -0.386 OA
ATOM     12  H   UNK     1       9.667  -5.740  23.631  0.00  0.00    +0.210 HD
ENDBRANCH   3  11
BRANCH   4  13
ATOM     13  O   UNK     1       8.336  -5.760  27.016  0.00  0.00    -0.378 OA
ATOM     14  H   UNK     1       7.605  -5.902  27.655  0.00  0.00    +0.211 HD
ENDBRANCH   4  13
BRANCH   6  15
ATOM     15  O   UNK     1       4.806  -6.775  25.271  0.00  0.00    -0.311 OA
ATOM     16  H   UNK     1       4.154  -6.078  25.469  0.00  0.00    +0.361 HD
ENDBRANCH   6  15
BRANCH   1  17
ATOM     17  C   UNK     1       7.297  -5.799  22.434  0.00  0.00    +0.205 C 
BRANCH  17  18
ATOM     18  O   UNK     1       6.075  -6.539  22.326  0.00  0.00    -0.391 OA
ATOM     19  H   UNK     1       5.353  -5.910  22.497  0.00  0.00    +0.210 HD
ENDBRANCH  17  18
ENDBRANCH   1  17
TORSDOF 6
ENDMDL
MODEL 5
REMARK VINA RESULT:      -4.7      6.283      7.710
REMARK  Name = 
REMARK  6 active torsions:
REMARK  status: ('A' for Active; 'I' for Inactive)
REMARK    1  A    between atoms: O_1  and  C_2
REMARK    2  A    between atoms: C_2  and  C_3
REMARK    3  A    between atoms: N_7  and  O_8
REMARK    4  A    between atoms: C_9  and  O_11
REMARK    5  A    between atoms: C_12  and  O_14
REMARK    6  A    between atoms: C_15  and  O_17
REMARK                            x       y       z     vdW  Elec       q    Type
REMARK                         _______ _______ _______ _____ _____    ______ ____
ROOT
ATOM      1  C   UNK     1       6.951  -3.877  26.623  0.00  0.00    +0.221 C 
ATOM      2  C   UNK     1       5.873  -3.577  25.554  0.00  0.00    +0.191 C 
ATOM      3  C   UNK     1       6.026  -4.460  24.308  0.00  0.00    +0.187 C 
ATOM      4  C   UNK     1       7.447  -4.418  23.729  0.00  0.00    +0.265 C 
ATOM      5  C   UNK     1       8.474  -4.622  24.852  0.00  0.00    +0.365 C 
ATOM      6  N   UNK     1       9.451  -5.453  24.633  0.00  0.00    +0.149 NA
ATOM      7  N   UNK     1       8.294  -3.920  26.023  0.00  0.00    -0.224 N 
ATOM      8  H   UNK     1       8.986  -4.211  26.716  0.00  0.00    +0.292 HD
ENDROOT
BRANCH   2   9
ATOM      9  O   UNK     1       5.945  -2.193  25.174  0.00  0.00    -0.385 OA
ATOM     10  H   UNK     1       6.766  -1.825  25.544  0.00  0.00    +0.210 HD
ENDBRANCH   2   9
BRANCH   3  11
ATOM     11  O   UNK     1       5.653  -5.814  24.607  0.00  0.00    -0.386 OA
ATOM     12  H   UNK     1       6.507  -6.278  24.753  0.00  0.00    +0.210 HD
ENDBRANCH   3  11
BRANCH   4  13
ATOM     13  O   UNK     1       7.545  -5.457  22.749  0.00  0.00    -0.378 OA
ATOM     14  H   UNK     1       6.733  -5.992  22.878  0.00  0.00    +0.211 HD
ENDBRANCH   4  13
BRANCH   6  15
ATOM     15  O   UNK     1      10.254  -5.568  25.780  0.00  0.00    -0.311 OA
ATOM     16  H   UNK     1       9.596  -5.701  26.487  0.00  0.00    +0.361 HD
ENDBRANCH   6  15
BRANCH   1  17
ATOM     17  C   UNK     1       6.710  -5.207  27.365  0.00  0.00    +0.205 C 
BRANCH  17  18
ATOM     18  O   UNK     1       7.957  -5.892  27.531  0.00  0.00    -0.391 OA
ATOM     19  H   UNK     1       8.586  -5.242  27.888  0.00  0.00    +0.210 HD
ENDBRANCH  17  18
ENDBRANCH   1  17
TORSDOF 6
ENDMDL
MODEL 6
REMARK VINA RESULT:      -4.6      2.452      3.980
REMARK  Name = 
REMARK  6 active torsions:
REMARK  status: ('A' for Active; 'I' for Inactive)
REMARK    1  A    between atoms: O_1  and  C_2
REMARK    2  A    between atoms: C_2  and  C_3
REMARK    3  A    between atoms: N_7  and  O_8
REMARK    4  A    between atoms: C_9  and  O_11
REMARK    5  A    between atoms: C_12  and  O_14
REMARK    6  A    between atoms: C_15  and  O_17
REMARK                            x       y       z     vdW  Elec       q    Type
REMARK                         _______ _______ _______ _____ _____    ______ ____
ROOT
ATOM      1  C   UNK     1       8.156   1.053  24.195  0.00  0.00    +0.221 C 
ATOM      2  C   UNK     1       9.679   1.221  23.977  0.00  0.00    +0.191 C 
ATOM      3  C   UNK     1      10.178   0.460  22.741  0.00  0.00    +0.187 C 
ATOM      4  C   UNK     1       9.750  -1.014  22.746  0.00  0.00    +0.265 C 
ATOM      5  C   UNK     1       8.252  -1.121  23.067  0.00  0.00    +0.365 C 
ATOM      6  N   UNK     1       7.534  -1.920  22.333  0.00  0.00    +0.149 NA
ATOM      7  N   UNK     1       7.762  -0.362  24.105  0.00  0.00    -0.224 N 
ATOM      8  H   UNK     1       6.745  -0.453  24.156  0.00  0.00    +0.292 HD
ENDROOT
BRANCH   2   9
ATOM      9  O   UNK     1      10.385   0.763  25.141  0.00  0.00    -0.385 OA
ATOM     10  H   UNK     1       9.734   0.368  25.748  0.00  0.00    +0.210 HD
ENDBRANCH   2   9
BRANCH   3  11
ATOM     11  O   UNK     1       9.723   1.103  21.540  0.00  0.00    -0.386 OA
ATOM     12  H   UNK     1      10.036   0.519  20.815  0.00  0.00    +0.210 HD
ENDBRANCH   3  11
BRANCH   4  13
ATOM     13  O   UNK     1      10.038  -1.553  21.451  0.00  0.00    -0.378 OA
ATOM     14  H   UNK     1      10.565  -2.359  21.633  0.00  0.00    +0.211 HD
ENDBRANCH   4  13
BRANCH   6  15
ATOM     15  O   UNK     1       6.185  -1.847  22.718  0.00  0.00    -0.311 OA
ATOM     16  H   UNK     1       6.213  -1.234  23.475  0.00  0.00    +0.361 HD
ENDBRANCH   6  15
BRANCH   1  17
ATOM     17  C   UNK     1       7.310   1.857  23.186  0.00  0.00    +0.205 C 
BRANCH  17  18
ATOM     18  O   UNK     1       6.156   1.092  22.818  0.00  0.00    -0.391 OA
ATOM     19  H   UNK     1       6.474   0.356  22.268  0.00  0.00    +0.210 HD
ENDBRANCH  17  18
ENDBRANCH   1  17
TORSDOF 6
ENDMDL
MODEL 7
REMARK VINA RESULT:      -4.6      2.030      3.307
REMARK  Name = 
REMARK  6 active torsions:
REMARK  status: ('A' for Active; 'I' for Inactive)
REMARK    1  A    between atoms: O_1  and  C_2
REMARK    2  A    between atoms: C_2  and  C_3
REMARK    3  A    between atoms: N_7  and  O_8
REMARK    4  A    between atoms: C_9  and  O_11
REMARK    5  A    between atoms: C_12  and  O_14
REMARK    6  A    between atoms: C_15  and  O_17
REMARK                            x       y       z     vdW  Elec       q    Type
REMARK                         _______ _______ _______ _____ _____    ______ ____
ROOT
ATOM      1  C   UNK     1       7.447   0.593  24.104  0.00  0.00    +0.221 C 
ATOM      2  C   UNK     1       7.290  -0.947  24.147  0.00  0.00    +0.191 C 
ATOM      3  C   UNK     1       8.498  -1.672  23.540  0.00  0.00    +0.187 C 
ATOM      4  C   UNK     1       8.846  -1.162  22.134  0.00  0.00    +0.265 C 
ATOM      5  C   UNK     1       8.888   0.373  22.133  0.00  0.00    +0.365 C 
ATOM      6  N   UNK     1       9.891   0.948  21.536  0.00  0.00    +0.149 NA
ATOM      7  N   UNK     1       7.868   1.045  22.769  0.00  0.00    -0.224 N 
ATOM      8  H   UNK     1       8.060   2.048  22.775  0.00  0.00    +0.292 HD
ENDROOT
BRANCH   2   9
ATOM      9  O   UNK     1       6.097  -1.328  23.443  0.00  0.00    -0.385 OA
ATOM     10  H   UNK     1       5.966  -2.284  23.574  0.00  0.00    +0.210 HD
ENDBRANCH   2   9
BRANCH   3  11
ATOM     11  O   UNK     1       9.639  -1.555  24.405  0.00  0.00    -0.386 OA
ATOM     12  H   UNK     1       9.448  -0.764  24.956  0.00  0.00    +0.210 HD
ENDBRANCH   3  11
BRANCH   4  13
ATOM     13  O   UNK     1      10.119  -1.711  21.777  0.00  0.00    -0.378 OA
ATOM     14  H   UNK     1      10.010  -1.992  20.844  0.00  0.00    +0.211 HD
ENDBRANCH   4  13
BRANCH   6  15
ATOM     15  O   UNK     1       9.808   2.342  21.687  0.00  0.00    -0.311 OA
ATOM     16  H   UNK     1       9.162   2.592  21.000  0.00  0.00    +0.361 HD
ENDBRANCH   6  15
BRANCH   1  17
ATOM     17  C   UNK     1       8.462   1.124  25.137  0.00  0.00    +0.205 C 
BRANCH  17  18
ATOM     18  O   UNK     1       8.336   0.379  26.354  0.00  0.00    -0.391 OA
ATOM     19  H   UNK     1       8.953   0.779  26.990  0.00  0.00    +0.210 HD
ENDBRANCH  17  18
ENDBRANCH   1  17
TORSDOF 6
ENDMDL
MODEL 8
REMARK VINA RESULT:      -4.6      2.122      2.945
REMARK  Name = 
REMARK  6 active torsions:
REMARK  status: ('A' for Active; 'I' for Inactive)
REMARK    1  A    between atoms: O_1  and  C_2
REMARK    2  A    between atoms: C_2  and  C_3
REMARK    3  A    between atoms: N_7  and  O_8
REMARK    4  A    between atoms: C_9  and  O_11
REMARK    5  A    between atoms: C_12  and  O_14
REMARK    6  A    between atoms: C_15  and  O_17
REMARK                            x       y       z     vdW  Elec       q    Type
REMARK                         _______ _______ _______ _____ _____    ______ ____
ROOT
ATOM      1  C   UNK     1       8.447   1.848  23.260  0.00  0.00    +0.221 C 
ATOM      2  C   UNK     1       9.006   1.384  21.894  0.00  0.00    +0.191 C 
ATOM      3  C   UNK     1       9.402  -0.099  21.901  0.00  0.00    +0.187 C 
ATOM      4  C   UNK     1      10.340  -0.452  23.063  0.00  0.00    +0.265 C 
ATOM      5  C   UNK     1       9.784   0.122  24.375  0.00  0.00    +0.365 C 
ATOM      6  N   UNK     1       9.776  -0.656  25.418  0.00  0.00    +0.149 NA
ATOM      7  N   UNK     1       9.321   1.418  24.363  0.00  0.00    -0.224 N 
ATOM      8  H   UNK     1       8.897   1.647  25.264  0.00  0.00    +0.292 HD
ENDROOT
BRANCH   2   9
ATOM      9  O   UNK     1      10.146   2.184  21.543  0.00  0.00    -0.385 OA
ATOM     10  H   UNK     1       9.832   3.089  21.367  0.00  0.00    +0.210 HD
ENDBRANCH   2   9
BRANCH   3  11
ATOM     11  O   UNK     1       8.231  -0.929  21.940  0.00  0.00    -0.386 OA
ATOM     12  H   UNK     1       7.653  -0.506  22.613  0.00  0.00    +0.210 HD
ENDBRANCH   3  11
BRANCH   4  13
ATOM     13  O   UNK     1      10.434  -1.879  23.126  0.00  0.00    -0.378 OA
ATOM     14  H   UNK     1      10.744  -2.064  24.038  0.00  0.00    +0.211 HD
ENDBRANCH   4  13
BRANCH   6  15
ATOM     15  O   UNK     1       9.178   0.001  26.506  0.00  0.00    -0.311 OA
ATOM     16  H   UNK     1       9.875  -0.035  27.186  0.00  0.00    +0.361 HD
ENDBRANCH   6  15
BRANCH   1  17
ATOM     17  C   UNK     1       7.023   1.326  23.538  0.00  0.00    +0.205 C 
BRANCH  17  18
ATOM     18  O   UNK     1       6.265   1.341  22.323  0.00  0.00    -0.391 OA
ATOM     19  H   UNK     1       6.868   1.055  21.615  0.00  0.00    +0.210 HD
ENDBRANCH  17  18
ENDBRANCH   1  17
TORSDOF 6
ENDMDL
MODEL 9
REMARK VINA RESULT:      -4.5      1.956      3.390
REMARK  Name = 
REMARK  6 active torsions:
REMARK  status: ('A' for Active; 'I' for Inactive)
REMARK    1  A    between atoms: O_1  and  C_2
REMARK    2  A    between atoms: C_2  and  C_3
REMARK    3  A    between atoms: N_7  and  O_8
REMARK    4  A    between atoms: C_9  and  O_11
REMARK    5  A    between atoms: C_12  and  O_14
REMARK    6  A    between atoms: C_15  and  O_17
REMARK                            x       y       z     vdW  Elec       q    Type
REMARK                         _______ _______ _______ _____ _____    ______ ____
ROOT
ATOM      1  C   UNK     1      10.250   1.102  23.209  0.00  0.00    +0.221 C 
ATOM      2  C   UNK     1       9.693   1.024  21.767  0.00  0.00    +0.191 C 
ATOM      3  C   UNK     1       8.241   1.512  21.676  0.00  0.00    +0.187 C 
ATOM      4  C   UNK     1       7.323   0.818  22.692  0.00  0.00    +0.265 C 
ATOM      5  C   UNK     1       7.975   0.839  24.083  0.00  0.00    +0.365 C 
ATOM      6  N   UNK     1       7.228   1.174  25.094  0.00  0.00    +0.149 NA
ATOM      7  N   UNK     1       9.309   0.510  24.172  0.00  0.00    -0.224 N 
ATOM      8  H   UNK     1       9.641   0.650  25.128  0.00  0.00    +0.292 HD
ENDROOT
BRANCH   2   9
ATOM      9  O   UNK     1       9.776  -0.329  21.291  0.00  0.00    -0.385 OA
ATOM     10  H   UNK     1      10.560  -0.739  21.697  0.00  0.00    +0.210 HD
ENDBRANCH   2   9
BRANCH   3  11
ATOM     11  O   UNK     1       8.180   2.937  21.847  0.00  0.00    -0.386 OA
ATOM     12  H   UNK     1       9.070   3.254  21.576  0.00  0.00    +0.210 HD
ENDBRANCH   3  11
BRANCH   4  13
ATOM     13  O   UNK     1       6.076   1.520  22.699  0.00  0.00    -0.378 OA
ATOM     14  H   UNK     1       6.216   2.261  23.326  0.00  0.00    +0.211 HD
ENDBRANCH   4  13
BRANCH   6  15
ATOM     15  O   UNK     1       7.994   1.205  26.271  0.00  0.00    -0.311 OA
ATOM     16  H   UNK     1       7.788   2.085  26.636  0.00  0.00    +0.361 HD
ENDBRANCH   6  15
BRANCH   1  17
ATOM     17  C   UNK     1      10.560   2.545  23.658  0.00  0.00    +0.205 C 
BRANCH  17  18
ATOM     18  O   UNK     1      11.005   3.309  22.531  0.00  0.00    -0.391 OA
ATOM     19  H   UNK     1      11.804   3.784  22.816  0.00  0.00    +0.210 HD
ENDBRANCH  17  18
ENDBRANCH   1  17
TORSDOF 6
ENDMDL
