MODEL 1
REMARK VINA RESULT:      -5.9      0.000      0.000
REMARK  Name = 
REMARK  14 active torsions:
REMARK  status: ('A' for Active; 'I' for Inactive)
REMARK    1  A    between atoms: C_1  and  N_2
REMARK    2  A    between atoms: N_2  and  C_3
REMARK    3  A    between atoms: N_2  and  C_17
REMARK    4  A    between atoms: C_3  and  C_4
REMARK    5  A    between atoms: C_4  and  O_5
REMARK    6  A    between atoms: O_5  and  C_6
REMARK    7  A    between atoms: C_9  and  N_10
REMARK    8  A    between atoms: N_10  and  S_11
REMARK    9  A    between atoms: S_11  and  C_12
REMARK   10  A    between atoms: C_17  and  C_18
REMARK   11  A    between atoms: C_18  and  C_19
REMARK   12  A    between atoms: C_22  and  N_23
REMARK   13  A    between atoms: N_23  and  S_24
REMARK   14  A    between atoms: S_24  and  C_25
REMARK                            x       y       z     vdW  Elec       q    Type
REMARK                         _______ _______ _______ _____ _____    ______ ____
ROOT
ATOM      1  C   UNL     1       8.963  -4.289  25.500  0.00  0.00    +0.105 C 
ATOM      2  N   UNL     1       9.196  -3.890  24.106  0.00  0.00    -0.302 NA
ENDROOT
BRANCH   2   3
ATOM      3  C   UNL     1       9.911  -2.597  24.030  0.00  0.00    +0.089 C 
BRANCH   3   4
ATOM      4  C   UNL     1       9.816  -1.894  22.663  0.00  0.00    +0.050 C 
BRANCH   4   5
ATOM      5  C   UNL     1       9.998  -0.401  22.811  0.00  0.00    -0.046 A 
ATOM      6  C   UNL     1       9.727   0.469  21.746  0.00  0.00    +0.005 A 
ATOM      7  C   UNL     1       9.861   1.850  21.909  0.00  0.00    +0.025 A 
ATOM      8  C   UNL     1      10.256   2.366  23.142  0.00  0.00    +0.048 A 
ATOM      9  C   UNL     1      10.545   1.513  24.204  0.00  0.00    +0.025 A 
ATOM     10  C   UNL     1      10.408   0.134  24.040  0.00  0.00    +0.005 A 
BRANCH   8  11
ATOM     11  N   UNL     1      10.403   3.771  23.329  0.00  0.00    -0.221 N 
ATOM     12  H   UNL     1      11.184   4.052  23.923  0.00  0.00    +0.173 HD
BRANCH  11  13
ATOM     13  S   UNL     1       9.026   4.650  23.768  0.00  0.00    +0.040 S 
ATOM     14  O   UNL     1       8.904   4.476  25.200  0.00  0.00    -0.155 OA
ATOM     15  O   UNL     1       7.928   4.335  22.882  0.00  0.00    -0.155 OA
ATOM     16  C   UNL     1       9.561   6.322  23.475  0.00  0.00    +0.218 C 
ENDBRANCH  11  13
ENDBRANCH   8  11
ENDBRANCH   4   5
ENDBRANCH   3   4
ENDBRANCH   2   3
BRANCH   2  17
ATOM     17  C   UNL     1       7.888  -3.831  23.409  0.00  0.00    +0.125 C 
BRANCH  17  18
ATOM     18  C   UNL     1       6.735  -3.259  24.248  0.00  0.00    +0.244 C 
BRANCH  18  19
ATOM     19  O   UNL     1       6.277  -2.038  23.653  0.00  0.00    -0.491 OA
BRANCH  19  20
ATOM     20  C   UNL     1       6.576  -0.889  24.338  0.00  0.00    +0.121 A 
ATOM     21  C   UNL     1       7.082  -1.077  25.628  0.00  0.00    +0.047 A 
ATOM     22  C   UNL     1       7.441   0.020  26.418  0.00  0.00    +0.028 A 
ATOM     23  C   UNL     1       7.300   1.310  25.911  0.00  0.00    +0.048 A 
ATOM     24  C   UNL     1       6.772   1.507  24.638  0.00  0.00    +0.028 A 
ATOM     25  C   UNL     1       6.411   0.410  23.853  0.00  0.00    +0.047 A 
BRANCH  23  26
ATOM     26  N   UNL     1       7.662   2.446  26.688  0.00  0.00    -0.221 N 
ATOM     27  H   UNL     1       8.573   2.388  27.147  0.00  0.00    +0.173 HD
BRANCH  26  28
ATOM     28  S   UNL     1       6.523   3.045  27.785  0.00  0.00    +0.040 S 
ATOM     29  O   UNL     1       7.294   3.490  28.927  0.00  0.00    -0.155 OA
ATOM     30  O   UNL     1       5.437   2.106  27.936  0.00  0.00    -0.155 OA
ATOM     31  C   UNL     1       5.935   4.497  26.938  0.00  0.00    +0.218 C 
ENDBRANCH  26  28
ENDBRANCH  23  26
ENDBRANCH  19  20
ENDBRANCH  18  19
ENDBRANCH  17  18
ENDBRANCH   2  17
TORSDOF 11
ENDMDL
MODEL 2
REMARK VINA RESULT:      -5.7      4.725      8.215
REMARK  Name = 
REMARK  14 active torsions:
REMARK  status: ('A' for Active; 'I' for Inactive)
REMARK    1  A    between atoms: C_1  and  N_2
REMARK    2  A    between atoms: N_2  and  C_3
REMARK    3  A    between atoms: N_2  and  C_17
REMARK    4  A    between atoms: C_3  and  C_4
REMARK    5  A    between atoms: C_4  and  O_5
REMARK    6  A    between atoms: O_5  and  C_6
REMARK    7  A    between atoms: C_9  and  N_10
REMARK    8  A    between atoms: N_10  and  S_11
REMARK    9  A    between atoms: S_11  and  C_12
REMARK   10  A    between atoms: C_17  and  C_18
REMARK   11  A    between atoms: C_18  and  C_19
REMARK   12  A    between atoms: C_22  and  N_23
REMARK   13  A    between atoms: N_23  and  S_24
REMARK   14  A    between atoms: S_24  and  C_25
REMARK                            x       y       z     vdW  Elec       q    Type
REMARK                         _______ _______ _______ _____ _____    ______ ____
ROOT
ATOM      1  C   UNL     1       8.598   0.290  21.788  0.00  0.00    +0.105 C 
ATOM      2  N   UNL     1       8.965  -0.894  22.576  0.00  0.00    -0.302 NA
ENDROOT
BRANCH   2   3
ATOM      3  C   UNL     1       7.806  -1.793  22.765  0.00  0.00    +0.089 C 
BRANCH   3   4
ATOM      4  C   UNL     1       8.143  -3.294  22.682  0.00  0.00    +0.050 C 
BRANCH   4   5
ATOM      5  C   UNL     1       6.891  -4.134  22.801  0.00  0.00    -0.046 A 
ATOM      6  C   UNL     1       5.663  -3.555  23.147  0.00  0.00    +0.005 A 
ATOM      7  C   UNL     1       4.507  -4.336  23.213  0.00  0.00    +0.025 A 
ATOM      8  C   UNL     1       4.573  -5.698  22.922  0.00  0.00    +0.048 A 
ATOM      9  C   UNL     1       5.791  -6.289  22.594  0.00  0.00    +0.025 A 
ATOM     10  C   UNL     1       6.944  -5.507  22.525  0.00  0.00    +0.005 A 
BRANCH   8  11
ATOM     11  N   UNL     1       3.408  -6.513  22.988  0.00  0.00    -0.221 N 
ATOM     12  H   UNL     1       2.543  -6.063  22.687  0.00  0.00    +0.173 HD
BRANCH  11  13
ATOM     13  S   UNL     1       3.124  -7.357  24.426  0.00  0.00    +0.040 S 
ATOM     14  O   UNL     1       4.410  -7.425  25.088  0.00  0.00    -0.155 OA
ATOM     15  O   UNL     1       2.357  -8.554  24.162  0.00  0.00    -0.155 OA
ATOM     16  C   UNL     1       2.117  -6.198  25.328  0.00  0.00    +0.218 C 
ENDBRANCH  11  13
ENDBRANCH   8  11
ENDBRANCH   4   5
ENDBRANCH   3   4
ENDBRANCH   2   3
BRANCH   2  17
ATOM     17  C   UNL     1       9.519  -0.440  23.875  0.00  0.00    +0.125 C 
BRANCH  17  18
ATOM     18  C   UNL     1       8.531  -0.490  25.052  0.00  0.00    +0.244 C 
BRANCH  18  19
ATOM     19  O   UNL     1       9.020  -1.404  26.041  0.00  0.00    -0.491 OA
BRANCH  19  20
ATOM     20  C   UNL     1       8.235  -2.500  26.284  0.00  0.00    +0.121 A 
ATOM     21  C   UNL     1       6.876  -2.232  26.476  0.00  0.00    +0.047 A 
ATOM     22  C   UNL     1       5.971  -3.272  26.713  0.00  0.00    +0.028 A 
ATOM     23  C   UNL     1       6.429  -4.587  26.750  0.00  0.00    +0.048 A 
ATOM     24  C   UNL     1       7.783  -4.862  26.587  0.00  0.00    +0.028 A 
ATOM     25  C   UNL     1       8.685  -3.821  26.353  0.00  0.00    +0.047 A 
BRANCH  23  26
ATOM     26  N   UNL     1       5.532  -5.668  26.983  0.00  0.00    -0.221 N 
ATOM     27  H   UNL     1       4.592  -5.544  26.603  0.00  0.00    +0.173 HD
BRANCH  26  28
ATOM     28  S   UNL     1       5.422  -6.274  28.558  0.00  0.00    +0.040 S 
ATOM     29  O   UNL     1       5.967  -5.231  29.404  0.00  0.00    -0.155 OA
ATOM     30  O   UNL     1       5.935  -7.622  28.610  0.00  0.00    -0.155 OA
ATOM     31  C   UNL     1       3.660  -6.301  28.813  0.00  0.00    +0.218 C 
ENDBRANCH  26  28
ENDBRANCH  23  26
ENDBRANCH  19  20
ENDBRANCH  18  19
ENDBRANCH  17  18
ENDBRANCH   2  17
TORSDOF 11
ENDMDL
MODEL 3
REMARK VINA RESULT:      -5.6      3.707      7.639
REMARK  Name = 
REMARK  14 active torsions:
REMARK  status: ('A' for Active; 'I' for Inactive)
REMARK    1  A    between atoms: C_1  and  N_2
REMARK    2  A    between atoms: N_2  and  C_3
REMARK    3  A    between atoms: N_2  and  C_17
REMARK    4  A    between atoms: C_3  and  C_4
REMARK    5  A    between atoms: C_4  and  O_5
REMARK    6  A    between atoms: O_5  and  C_6
REMARK    7  A    between atoms: C_9  and  N_10
REMARK    8  A    between atoms: N_10  and  S_11
REMARK    9  A    between atoms: S_11  and  C_12
REMARK   10  A    between atoms: C_17  and  C_18
REMARK   11  A    between atoms: C_18  and  C_19
REMARK   12  A    between atoms: C_22  and  N_23
REMARK   13  A    between atoms: N_23  and  S_24
REMARK   14  A    between atoms: S_24  and  C_25
REMARK                            x       y       z     vdW  Elec       q    Type
REMARK                         _______ _______ _______ _____ _____    ______ ____
ROOT
ATOM      1  C   UNL     1       6.450  -1.551  23.944  0.00  0.00    +0.105 C 
ATOM      2  N   UNL     1       6.384  -2.247  22.652  0.00  0.00    -0.302 NA
ENDROOT
BRANCH   2   3
ATOM      3  C   UNL     1       5.315  -3.269  22.646  0.00  0.00    +0.089 C 
BRANCH   3   4
ATOM      4  C   UNL     1       5.822  -4.724  22.646  0.00  0.00    +0.050 C 
BRANCH   4   5
ATOM      5  C   UNL     1       5.600  -5.373  23.993  0.00  0.00    -0.046 A 
ATOM      6  C   UNL     1       4.577  -6.313  24.180  0.00  0.00    +0.005 A 
ATOM      7  C   UNL     1       4.409  -6.936  25.420  0.00  0.00    +0.025 A 
ATOM      8  C   UNL     1       5.270  -6.628  26.472  0.00  0.00    +0.048 A 
ATOM      9  C   UNL     1       6.279  -5.684  26.303  0.00  0.00    +0.025 A 
ATOM     10  C   UNL     1       6.448  -5.065  25.064  0.00  0.00    +0.005 A 
BRANCH   8  11
ATOM     11  N   UNL     1       5.114  -7.248  27.745  0.00  0.00    -0.221 N 
ATOM     12  H   UNL     1       4.805  -8.221  27.721  0.00  0.00    +0.173 HD
BRANCH  11  13
ATOM     13  S   UNL     1       4.227  -6.412  28.918  0.00  0.00    +0.040 S 
ATOM     14  O   UNL     1       3.592  -7.439  29.718  0.00  0.00    -0.155 OA
ATOM     15  O   UNL     1       3.450  -5.360  28.304  0.00  0.00    -0.155 OA
ATOM     16  C   UNL     1       5.524  -5.693  29.902  0.00  0.00    +0.218 C 
ENDBRANCH  11  13
ENDBRANCH   8  11
ENDBRANCH   4   5
ENDBRANCH   3   4
ENDBRANCH   2   3
BRANCH   2  17
ATOM     17  C   UNL     1       7.712  -2.847  22.373  0.00  0.00    +0.125 C 
BRANCH  17  18
ATOM     18  C   UNL     1       8.797  -2.526  23.414  0.00  0.00    +0.244 C 
BRANCH  18  19
ATOM     19  O   UNL     1       9.913  -1.911  22.759  0.00  0.00    -0.491 OA
BRANCH  19  20
ATOM     20  C   UNL     1      10.050  -0.561  22.949  0.00  0.00    +0.121 A 
ATOM     21  C   UNL     1       9.760   0.232  21.835  0.00  0.00    +0.047 A 
ATOM     22  C   UNL     1       9.846   1.626  21.911  0.00  0.00    +0.028 A 
ATOM     23  C   UNL     1      10.216   2.228  23.112  0.00  0.00    +0.048 A 
ATOM     24  C   UNL     1      10.532   1.446  24.218  0.00  0.00    +0.028 A 
ATOM     25  C   UNL     1      10.449   0.054  24.138  0.00  0.00    +0.047 A 
BRANCH  23  26
ATOM     26  N   UNL     1      10.306   3.645  23.223  0.00  0.00    -0.221 N 
ATOM     27  H   UNL     1      11.124   3.992  23.728  0.00  0.00    +0.173 HD
BRANCH  26  28
ATOM     28  S   UNL     1       8.933   4.482  23.744  0.00  0.00    +0.040 S 
ATOM     29  O   UNL     1       8.693   4.014  25.093  0.00  0.00    -0.155 OA
ATOM     30  O   UNL     1       7.900   4.420  22.736  0.00  0.00    -0.155 OA
ATOM     31  C   UNL     1       9.548   6.149  23.858  0.00  0.00    +0.218 C 
ENDBRANCH  26  28
ENDBRANCH  23  26
ENDBRANCH  19  20
ENDBRANCH  18  19
ENDBRANCH  17  18
ENDBRANCH   2  17
TORSDOF 11
ENDMDL
MODEL 4
REMARK VINA RESULT:      -5.5      1.591      1.953
REMARK  Name = 
REMARK  14 active torsions:
REMARK  status: ('A' for Active; 'I' for Inactive)
REMARK    1  A    between atoms: C_1  and  N_2
REMARK    2  A    between atoms: N_2  and  C_3
REMARK    3  A    between atoms: N_2  and  C_17
REMARK    4  A    between atoms: C_3  and  C_4
REMARK    5  A    between atoms: C_4  and  O_5
REMARK    6  A    between atoms: O_5  and  C_6
REMARK    7  A    between atoms: C_9  and  N_10
REMARK    8  A    between atoms: N_10  and  S_11
REMARK    9  A    between atoms: S_11  and  C_12
REMARK   10  A    between atoms: C_17  and  C_18
REMARK   11  A    between atoms: C_18  and  C_19
REMARK   12  A    between atoms: C_22  and  N_23
REMARK   13  A    between atoms: N_23  and  S_24
REMARK   14  A    between atoms: S_24  and  C_25
REMARK                            x       y       z     vdW  Elec       q    Type
REMARK                         _______ _______ _______ _____ _____    ______ ____
ROOT
ATOM      1  C   UNL     1       9.325  -4.666  25.642  0.00  0.00    +0.105 C 
ATOM      2  N   UNL     1       9.245  -4.092  24.292  0.00  0.00    -0.302 NA
ENDROOT
BRANCH   2   3
ATOM      3  C   UNL     1       9.438  -2.626  24.320  0.00  0.00    +0.089 C 
BRANCH   3   4
ATOM      4  C   UNL     1      10.266  -2.069  23.147  0.00  0.00    +0.050 C 
BRANCH   4   5
ATOM      5  C   UNL     1      10.253  -0.557  23.148  0.00  0.00    -0.046 A 
ATOM      6  C   UNL     1      10.010   0.163  21.971  0.00  0.00    +0.005 A 
ATOM      7  C   UNL     1       9.960   1.559  21.994  0.00  0.00    +0.025 A 
ATOM      8  C   UNL     1      10.142   2.239  23.197  0.00  0.00    +0.048 A 
ATOM      9  C   UNL     1      10.401   1.536  24.371  0.00  0.00    +0.025 A 
ATOM     10  C   UNL     1      10.448   0.142  24.347  0.00  0.00    +0.005 A 
BRANCH   8  11
ATOM     11  N   UNL     1      10.099   3.662  23.243  0.00  0.00    -0.221 N 
ATOM     12  H   UNL     1      10.860   4.105  23.759  0.00  0.00    +0.173 HD
BRANCH  11  13
ATOM     13  S   UNL     1       8.635   4.387  23.682  0.00  0.00    +0.040 S 
ATOM     14  O   UNL     1       8.550   4.231  25.119  0.00  0.00    -0.155 OA
ATOM     15  O   UNL     1       7.571   3.929  22.817  0.00  0.00    -0.155 OA
ATOM     16  C   UNL     1       8.971   6.102  23.347  0.00  0.00    +0.218 C 
ENDBRANCH  11  13
ENDBRANCH   8  11
ENDBRANCH   4   5
ENDBRANCH   3   4
ENDBRANCH   2   3
BRANCH   2  17
ATOM     17  C   UNL     1       7.934  -4.458  23.703  0.00  0.00    +0.125 C 
BRANCH  17  18
ATOM     18  C   UNL     1       7.265  -3.348  22.877  0.00  0.00    +0.244 C 
BRANCH  18  19
ATOM     19  O   UNL     1       6.052  -2.944  23.521  0.00  0.00    -0.491 OA
BRANCH  19  20
ATOM     20  C   UNL     1       6.036  -1.669  24.024  0.00  0.00    +0.121 A 
ATOM     21  C   UNL     1       6.613  -0.696  23.203  0.00  0.00    +0.047 A 
ATOM     22  C   UNL     1       6.641   0.645  23.600  0.00  0.00    +0.028 A 
ATOM     23  C   UNL     1       6.080   1.013  24.821  0.00  0.00    +0.048 A 
ATOM     24  C   UNL     1       5.528   0.047  25.657  0.00  0.00    +0.028 A 
ATOM     25  C   UNL     1       5.505  -1.292  25.259  0.00  0.00    +0.047 A 
BRANCH  23  26
ATOM     26  N   UNL     1       6.087   2.371  25.251  0.00  0.00    -0.221 N 
ATOM     27  H   UNL     1       6.437   2.527  26.198  0.00  0.00    +0.173 HD
BRANCH  26  28
ATOM     28  S   UNL     1       4.678   3.276  25.020  0.00  0.00    +0.040 S 
ATOM     29  O   UNL     1       3.883   2.507  24.085  0.00  0.00    -0.155 OA
ATOM     30  O   UNL     1       5.010   4.657  24.760  0.00  0.00    -0.155 OA
ATOM     31  C   UNL     1       3.900   3.145  26.616  0.00  0.00    +0.218 C 
ENDBRANCH  26  28
ENDBRANCH  23  26
ENDBRANCH  19  20
ENDBRANCH  18  19
ENDBRANCH  17  18
ENDBRANCH   2  17
TORSDOF 11
ENDMDL
MODEL 5
REMARK VINA RESULT:      -5.4      3.196      6.450
REMARK  Name = 
REMARK  14 active torsions:
REMARK  status: ('A' for Active; 'I' for Inactive)
REMARK    1  A    between atoms: C_1  and  N_2
REMARK    2  A    between atoms: N_2  and  C_3
REMARK    3  A    between atoms: N_2  and  C_17
REMARK    4  A    between atoms: C_3  and  C_4
REMARK    5  A    between atoms: C_4  and  O_5
REMARK    6  A    between atoms: O_5  and  C_6
REMARK    7  A    between atoms: C_9  and  N_10
REMARK    8  A    between atoms: N_10  and  S_11
REMARK    9  A    between atoms: S_11  and  C_12
REMARK   10  A    between atoms: C_17  and  C_18
REMARK   11  A    between atoms: C_18  and  C_19
REMARK   12  A    between atoms: C_22  and  N_23
REMARK   13  A    between atoms: N_23  and  S_24
REMARK   14  A    between atoms: S_24  and  C_25
REMARK                            x       y       z     vdW  Elec       q    Type
REMARK                         _______ _______ _______ _____ _____    ______ ____
ROOT
ATOM      1  C   UNL     1       8.160   2.245  21.849  0.00  0.00    +0.105 C 
ATOM      2  N   UNL     1       9.502   1.660  21.972  0.00  0.00    -0.302 NA
ENDROOT
BRANCH   2   3
ATOM      3  C   UNL     1       9.505   0.235  21.577  0.00  0.00    +0.089 C 
BRANCH   3   4
ATOM      4  C   UNL     1      10.165  -0.709  22.599  0.00  0.00    +0.050 C 
BRANCH   4   5
ATOM      5  C   UNL     1       9.273  -1.894  22.892  0.00  0.00    -0.046 A 
ATOM      6  C   UNL     1       8.149  -2.165  22.100  0.00  0.00    +0.005 A 
ATOM      7  C   UNL     1       7.356  -3.286  22.358  0.00  0.00    +0.025 A 
ATOM      8  C   UNL     1       7.692  -4.146  23.402  0.00  0.00    +0.048 A 
ATOM      9  C   UNL     1       8.796  -3.879  24.207  0.00  0.00    +0.025 A 
ATOM     10  C   UNL     1       9.589  -2.761  23.947  0.00  0.00    +0.005 A 
BRANCH   8  11
ATOM     11  N   UNL     1       6.896  -5.293  23.685  0.00  0.00    -0.221 N 
ATOM     12  H   UNL     1       7.329  -6.190  23.463  0.00  0.00    +0.173 HD
BRANCH  11  13
ATOM     13  S   UNL     1       5.299  -5.293  23.125  0.00  0.00    +0.040 S 
ATOM     14  O   UNL     1       5.382  -5.709  21.740  0.00  0.00    -0.155 OA
ATOM     15  O   UNL     1       4.638  -4.063  23.496  0.00  0.00    -0.155 OA
ATOM     16  C   UNL     1       4.597  -6.643  24.048  0.00  0.00    +0.218 C 
ENDBRANCH  11  13
ENDBRANCH   8  11
ENDBRANCH   4   5
ENDBRANCH   3   4
ENDBRANCH   2   3
BRANCH   2  17
ATOM     17  C   UNL     1       9.966   1.839  23.370  0.00  0.00    +0.125 C 
BRANCH  17  18
ATOM     18  C   UNL     1       8.853   2.143  24.386  0.00  0.00    +0.244 C 
BRANCH  18  19
ATOM     19  O   UNL     1       8.956   1.233  25.487  0.00  0.00    -0.491 OA
BRANCH  19  20
ATOM     20  C   UNL     1       7.997   0.256  25.548  0.00  0.00    +0.121 A 
ATOM     21  C   UNL     1       8.183  -0.701  26.551  0.00  0.00    +0.047 A 
ATOM     22  C   UNL     1       7.261  -1.739  26.724  0.00  0.00    +0.028 A 
ATOM     23  C   UNL     1       6.144  -1.813  25.894  0.00  0.00    +0.048 A 
ATOM     24  C   UNL     1       5.966  -0.881  24.877  0.00  0.00    +0.028 A 
ATOM     25  C   UNL     1       6.890   0.152  24.704  0.00  0.00    +0.047 A 
BRANCH  23  26
ATOM     26  N   UNL     1       5.185  -2.853  26.050  0.00  0.00    -0.221 N 
ATOM     27  H   UNL     1       5.008  -3.412  25.213  0.00  0.00    +0.173 HD
BRANCH  26  28
ATOM     28  S   UNL     1       3.711  -2.462  26.781  0.00  0.00    +0.040 S 
ATOM     29  O   UNL     1       2.770  -2.327  25.688  0.00  0.00    -0.155 OA
ATOM     30  O   UNL     1       3.899  -1.400  27.741  0.00  0.00    -0.155 OA
ATOM     31  C   UNL     1       3.321  -3.972  27.638  0.00  0.00    +0.218 C 
ENDBRANCH  26  28
ENDBRANCH  23  26
ENDBRANCH  19  20
ENDBRANCH  18  19
ENDBRANCH  17  18
ENDBRANCH   2  17
TORSDOF 11
ENDMDL
MODEL 6
REMARK VINA RESULT:      -5.3      1.935      4.426
REMARK  Name = 
REMARK  14 active torsions:
REMARK  status: ('A' for Active; 'I' for Inactive)
REMARK    1  A    between atoms: C_1  and  N_2
REMARK    2  A    between atoms: N_2  and  C_3
REMARK    3  A    between atoms: N_2  and  C_17
REMARK    4  A    between atoms: C_3  and  C_4
REMARK    5  A    between atoms: C_4  and  O_5
REMARK    6  A    between atoms: O_5  and  C_6
REMARK    7  A    between atoms: C_9  and  N_10
REMARK    8  A    between atoms: N_10  and  S_11
REMARK    9  A    between atoms: S_11  and  C_12
REMARK   10  A    between atoms: C_17  and  C_18
REMARK   11  A    between atoms: C_18  and  C_19
REMARK   12  A    between atoms: C_22  and  N_23
REMARK   13  A    between atoms: N_23  and  S_24
REMARK   14  A    between atoms: S_24  and  C_25
REMARK                            x       y       z     vdW  Elec       q    Type
REMARK                         _______ _______ _______ _____ _____    ______ ____
ROOT
ATOM      1  C   UNL     1       6.582  -4.531  24.602  0.00  0.00    +0.105 C 
ATOM      2  N   UNL     1       7.922  -4.022  24.924  0.00  0.00    -0.302 NA
ENDROOT
BRANCH   2   3
ATOM      3  C   UNL     1       7.862  -2.978  25.970  0.00  0.00    +0.089 C 
BRANCH   3   4
ATOM      4  C   UNL     1       6.448  -2.437  26.253  0.00  0.00    +0.050 C 
BRANCH   4   5
ATOM      5  C   UNL     1       6.320  -1.000  25.801  0.00  0.00    -0.046 A 
ATOM      6  C   UNL     1       6.624  -0.628  24.484  0.00  0.00    +0.005 A 
ATOM      7  C   UNL     1       6.462   0.696  24.069  0.00  0.00    +0.025 A 
ATOM      8  C   UNL     1       5.985   1.650  24.966  0.00  0.00    +0.048 A 
ATOM      9  C   UNL     1       5.695   1.297  26.282  0.00  0.00    +0.025 A 
ATOM     10  C   UNL     1       5.854  -0.027  26.694  0.00  0.00    +0.005 A 
BRANCH   8  11
ATOM     11  N   UNL     1       5.816   3.006  24.565  0.00  0.00    -0.221 N 
ATOM     12  H   UNL     1       5.894   3.695  25.313  0.00  0.00    +0.173 HD
BRANCH  11  13
ATOM     13  S   UNL     1       4.472   3.376  23.606  0.00  0.00    +0.040 S 
ATOM     14  O   UNL     1       3.390   2.580  24.145  0.00  0.00    -0.155 OA
ATOM     15  O   UNL     1       4.822   3.309  22.205  0.00  0.00    -0.155 OA
ATOM     16  C   UNL     1       4.167   5.071  24.058  0.00  0.00    +0.218 C 
ENDBRANCH  11  13
ENDBRANCH   8  11
ENDBRANCH   4   5
ENDBRANCH   3   4
ENDBRANCH   2   3
BRANCH   2  17
ATOM     17  C   UNL     1       8.543  -3.510  23.679  0.00  0.00    +0.125 C 
BRANCH  17  18
ATOM     18  C   UNL     1       9.791  -2.638  23.891  0.00  0.00    +0.244 C 
BRANCH  18  19
ATOM     19  O   UNL     1      10.007  -1.831  22.727  0.00  0.00    -0.491 OA
BRANCH  19  20
ATOM     20  C   UNL     1      10.127  -0.484  22.946  0.00  0.00    +0.121 A 
ATOM     21  C   UNL     1       9.814   0.329  21.853  0.00  0.00    +0.047 A 
ATOM     22  C   UNL     1       9.881   1.723  21.960  0.00  0.00    +0.028 A 
ATOM     23  C   UNL     1      10.255   2.303  23.170  0.00  0.00    +0.048 A 
ATOM     24  C   UNL     1      10.595   1.501  24.255  0.00  0.00    +0.028 A 
ATOM     25  C   UNL     1      10.530   0.110  24.145  0.00  0.00    +0.047 A 
BRANCH  23  26
ATOM     26  N   UNL     1      10.327   3.718  23.312  0.00  0.00    -0.221 N 
ATOM     27  H   UNL     1      11.096   4.060  23.891  0.00  0.00    +0.173 HD
BRANCH  26  28
ATOM     28  S   UNL     1       8.908   4.540  23.726  0.00  0.00    +0.040 S 
ATOM     29  O   UNL     1       8.651   4.182  25.105  0.00  0.00    -0.155 OA
ATOM     30  O   UNL     1       7.906   4.347  22.704  0.00  0.00    -0.155 OA
ATOM     31  C   UNL     1       9.453   6.235  23.706  0.00  0.00    +0.218 C 
ENDBRANCH  26  28
ENDBRANCH  23  26
ENDBRANCH  19  20
ENDBRANCH  18  19
ENDBRANCH  17  18
ENDBRANCH   2  17
TORSDOF 11
ENDMDL
MODEL 7
REMARK VINA RESULT:      -5.2      3.013      6.262
REMARK  Name = 
REMARK  14 active torsions:
REMARK  status: ('A' for Active; 'I' for Inactive)
REMARK    1  A    between atoms: C_1  and  N_2
REMARK    2  A    between atoms: N_2  and  C_3
REMARK    3  A    between atoms: N_2  and  C_17
REMARK    4  A    between atoms: C_3  and  C_4
REMARK    5  A    between atoms: C_4  and  O_5
REMARK    6  A    between atoms: O_5  and  C_6
REMARK    7  A    between atoms: C_9  and  N_10
REMARK    8  A    between atoms: N_10  and  S_11
REMARK    9  A    between atoms: S_11  and  C_12
REMARK   10  A    between atoms: C_17  and  C_18
REMARK   11  A    between atoms: C_18  and  C_19
REMARK   12  A    between atoms: C_22  and  N_23
REMARK   13  A    between atoms: N_23  and  S_24
REMARK   14  A    between atoms: S_24  and  C_25
REMARK                            x       y       z     vdW  Elec       q    Type
REMARK                         _______ _______ _______ _____ _____    ______ ____
ROOT
ATOM      1  C   UNL     1       7.961   1.802  21.445  0.00  0.00    +0.105 C 
ATOM      2  N   UNL     1       9.370   1.390  21.481  0.00  0.00    -0.302 NA
ENDROOT
BRANCH   2   3
ATOM      3  C   UNL     1       9.500  -0.083  21.456  0.00  0.00    +0.089 C 
BRANCH   3   4
ATOM      4  C   UNL     1      10.075  -0.695  22.747  0.00  0.00    +0.050 C 
BRANCH   4   5
ATOM      5  C   UNL     1       9.239  -1.868  23.207  0.00  0.00    -0.046 A 
ATOM      6  C   UNL     1       7.925  -2.041  22.750  0.00  0.00    +0.005 A 
ATOM      7  C   UNL     1       7.178  -3.151  23.151  0.00  0.00    +0.025 A 
ATOM      8  C   UNL     1       7.747  -4.098  24.001  0.00  0.00    +0.048 A 
ATOM      9  C   UNL     1       9.045  -3.930  24.475  0.00  0.00    +0.025 A 
ATOM     10  C   UNL     1       9.792  -2.822  24.071  0.00  0.00    +0.005 A 
BRANCH   8  11
ATOM     11  N   UNL     1       7.001  -5.235  24.425  0.00  0.00    -0.221 N 
ATOM     12  H   UNL     1       6.204  -5.479  23.836  0.00  0.00    +0.173 HD
BRANCH  11  13
ATOM     13  S   UNL     1       6.533  -5.301  26.050  0.00  0.00    +0.040 S 
ATOM     14  O   UNL     1       5.950  -4.006  26.330  0.00  0.00    -0.155 OA
ATOM     15  O   UNL     1       7.607  -5.827  26.860  0.00  0.00    -0.155 OA
ATOM     16  C   UNL     1       5.204  -6.485  25.990  0.00  0.00    +0.218 C 
ENDBRANCH  11  13
ENDBRANCH   8  11
ENDBRANCH   4   5
ENDBRANCH   3   4
ENDBRANCH   2   3
BRANCH   2  17
ATOM     17  C   UNL     1       9.999   1.971  22.692  0.00  0.00    +0.125 C 
BRANCH  17  18
ATOM     18  C   UNL     1       9.030   2.698  23.638  0.00  0.00    +0.244 C 
BRANCH  18  19
ATOM     19  O   UNL     1       9.091   2.093  24.935  0.00  0.00    -0.491 OA
BRANCH  19  20
ATOM     20  C   UNL     1       8.104   1.185  25.220  0.00  0.00    +0.121 A 
ATOM     21  C   UNL     1       6.866   1.442  24.624  0.00  0.00    +0.047 A 
ATOM     22  C   UNL     1       5.786   0.576  24.825  0.00  0.00    +0.028 A 
ATOM     23  C   UNL     1       5.950  -0.556  25.620  0.00  0.00    +0.048 A 
ATOM     24  C   UNL     1       7.171  -0.805  26.239  0.00  0.00    +0.028 A 
ATOM     25  C   UNL     1       8.247   0.063  26.039  0.00  0.00    +0.047 A 
BRANCH  23  26
ATOM     26  N   UNL     1       4.872  -1.460  25.839  0.00  0.00    -0.221 N 
ATOM     27  H   UNL     1       4.347  -1.723  25.003  0.00  0.00    +0.173 HD
BRANCH  26  28
ATOM     28  S   UNL     1       3.789  -1.105  27.089  0.00  0.00    +0.040 S 
ATOM     29  O   UNL     1       3.190   0.161  26.723  0.00  0.00    -0.155 OA
ATOM     30  O   UNL     1       4.432  -1.286  28.369  0.00  0.00    -0.155 OA
ATOM     31  C   UNL     1       2.553  -2.366  26.864  0.00  0.00    +0.218 C 
ENDBRANCH  26  28
ENDBRANCH  23  26
ENDBRANCH  19  20
ENDBRANCH  18  19
ENDBRANCH  17  18
ENDBRANCH   2  17
TORSDOF 11
ENDMDL
MODEL 8
REMARK VINA RESULT:      -5.1      1.627      2.170
REMARK  Name = 
REMARK  14 active torsions:
REMARK  status: ('A' for Active; 'I' for Inactive)
REMARK    1  A    between atoms: C_1  and  N_2
REMARK    2  A    between atoms: N_2  and  C_3
REMARK    3  A    between atoms: N_2  and  C_17
REMARK    4  A    between atoms: C_3  and  C_4
REMARK    5  A    between atoms: C_4  and  O_5
REMARK    6  A    between atoms: O_5  and  C_6
REMARK    7  A    between atoms: C_9  and  N_10
REMARK    8  A    between atoms: N_10  and  S_11
REMARK    9  A    between atoms: S_11  and  C_12
REMARK   10  A    between atoms: C_17  and  C_18
REMARK   11  A    between atoms: C_18  and  C_19
REMARK   12  A    between atoms: C_22  and  N_23
REMARK   13  A    between atoms: N_23  and  S_24
REMARK   14  A    between atoms: S_24  and  C_25
REMARK                            x       y       z     vdW  Elec       q    Type
REMARK                         _______ _______ _______ _____ _____    ______ ____
ROOT
ATOM      1  C   UNL     1       7.126  -5.455  22.205  0.00  0.00    +0.105 C 
ATOM      2  N   UNL     1       7.221  -4.336  23.151  0.00  0.00    -0.302 NA
ENDROOT
BRANCH   2   3
ATOM      3  C   UNL     1       7.422  -3.052  22.446  0.00  0.00    +0.089 C 
BRANCH   3   4
ATOM      4  C   UNL     1       8.846  -2.477  22.560  0.00  0.00    +0.050 C 
BRANCH   4   5
ATOM      5  C   UNL     1       8.821  -0.965  22.547  0.00  0.00    -0.046 A 
ATOM      6  C   UNL     1       9.911  -0.229  22.064  0.00  0.00    +0.005 A 
ATOM      7  C   UNL     1       9.858   1.166  22.020  0.00  0.00    +0.025 A 
ATOM      8  C   UNL     1       8.709   1.829  22.448  0.00  0.00    +0.048 A 
ATOM      9  C   UNL     1       7.625   1.110  22.946  0.00  0.00    +0.025 A 
ATOM     10  C   UNL     1       7.679  -0.283  22.987  0.00  0.00    +0.005 A 
BRANCH   8  11
ATOM     11  N   UNL     1       8.635   3.251  22.415  0.00  0.00    -0.221 N 
ATOM     12  H   UNL     1       9.064   3.692  21.601  0.00  0.00    +0.173 HD
BRANCH  11  13
ATOM     13  S   UNL     1       9.098   4.091  23.809  0.00  0.00    +0.040 S 
ATOM     14  O   UNL     1      10.481   4.459  23.589  0.00  0.00    -0.155 OA
ATOM     15  O   UNL     1       8.700   3.359  24.990  0.00  0.00    -0.155 OA
ATOM     16  C   UNL     1       8.121   5.572  23.675  0.00  0.00    +0.218 C 
ENDBRANCH  11  13
ENDBRANCH   8  11
ENDBRANCH   4   5
ENDBRANCH   3   4
ENDBRANCH   2   3
BRANCH   2  17
ATOM     17  C   UNL     1       8.327  -4.616  24.100  0.00  0.00    +0.125 C 
BRANCH  17  18
ATOM     18  C   UNL     1       7.934  -4.555  25.585  0.00  0.00    +0.244 C 
BRANCH  18  19
ATOM     19  O   UNL     1       6.773  -3.729  25.734  0.00  0.00    -0.491 OA
BRANCH  19  20
ATOM     20  C   UNL     1       7.008  -2.417  26.052  0.00  0.00    +0.121 A 
ATOM     21  C   UNL     1       5.897  -1.573  25.966  0.00  0.00    +0.047 A 
ATOM     22  C   UNL     1       6.008  -0.215  26.284  0.00  0.00    +0.028 A 
ATOM     23  C   UNL     1       7.235   0.297  26.699  0.00  0.00    +0.048 A 
ATOM     24  C   UNL     1       8.353  -0.530  26.763  0.00  0.00    +0.028 A 
ATOM     25  C   UNL     1       8.240  -1.885  26.441  0.00  0.00    +0.047 A 
BRANCH  23  26
ATOM     26  N   UNL     1       7.379   1.673  27.036  0.00  0.00    -0.221 N 
ATOM     27  H   UNL     1       8.327   2.044  26.958  0.00  0.00    +0.173 HD
BRANCH  26  28
ATOM     28  S   UNL     1       6.689   2.203  28.486  0.00  0.00    +0.040 S 
ATOM     29  O   UNL     1       7.443   3.384  28.854  0.00  0.00    -0.155 OA
ATOM     30  O   UNL     1       6.540   1.096  29.400  0.00  0.00    -0.155 OA
ATOM     31  C   UNL     1       5.081   2.743  27.945  0.00  0.00    +0.218 C 
ENDBRANCH  26  28
ENDBRANCH  23  26
ENDBRANCH  19  20
ENDBRANCH  18  19
ENDBRANCH  17  18
ENDBRANCH   2  17
TORSDOF 11
ENDMDL
MODEL 9
REMARK VINA RESULT:      -5.0      2.681      4.064
REMARK  Name = 
REMARK  14 active torsions:
REMARK  status: ('A' for Active; 'I' for Inactive)
REMARK    1  A    between atoms: C_1  and  N_2
REMARK    2  A    between atoms: N_2  and  C_3
REMARK    3  A    between atoms: N_2  and  C_17
REMARK    4  A    between atoms: C_3  and  C_4
REMARK    5  A    between atoms: C_4  and  O_5
REMARK    6  A    between atoms: O_5  and  C_6
REMARK    7  A    between atoms: C_9  and  N_10
REMARK    8  A    between atoms: N_10  and  S_11
REMARK    9  A    between atoms: S_11  and  C_12
REMARK   10  A    between atoms: C_17  and  C_18
REMARK   11  A    between atoms: C_18  and  C_19
REMARK   12  A    between atoms: C_22  and  N_23
REMARK   13  A    between atoms: N_23  and  S_24
REMARK   14  A    between atoms: S_24  and  C_25
REMARK                            x       y       z     vdW  Elec       q    Type
REMARK                         _______ _______ _______ _____ _____    ______ ____
ROOT
ATOM      1  C   UNL     1       3.803  -5.106  24.649  0.00  0.00    +0.105 C 
ATOM      2  N   UNL     1       5.269  -5.171  24.705  0.00  0.00    -0.302 NA
ENDROOT
BRANCH   2   3
ATOM      3  C   UNL     1       5.822  -5.849  23.512  0.00  0.00    +0.089 C 
BRANCH   3   4
ATOM      4  C   UNL     1       5.913  -4.960  22.258  0.00  0.00    +0.050 C 
BRANCH   4   5
ATOM      5  C   UNL     1       6.642  -3.671  22.562  0.00  0.00    -0.046 A 
ATOM      6  C   UNL     1       8.038  -3.644  22.687  0.00  0.00    +0.005 A 
ATOM      7  C   UNL     1       8.703  -2.439  22.928  0.00  0.00    +0.025 A 
ATOM      8  C   UNL     1       7.974  -1.255  23.034  0.00  0.00    +0.048 A 
ATOM      9  C   UNL     1       6.585  -1.271  22.928  0.00  0.00    +0.025 A 
ATOM     10  C   UNL     1       5.923  -2.475  22.685  0.00  0.00    +0.005 A 
BRANCH   8  11
ATOM     11  N   UNL     1       8.631  -0.016  23.283  0.00  0.00    -0.221 N 
ATOM     12  H   UNL     1       8.129   0.627  23.897  0.00  0.00    +0.173 HD
BRANCH  11  13
ATOM     13  S   UNL     1       9.223   0.838  21.948  0.00  0.00    +0.040 S 
ATOM     14  O   UNL     1       9.291  -0.133  20.876  0.00  0.00    -0.155 OA
ATOM     15  O   UNL     1      10.381   1.616  22.325  0.00  0.00    -0.155 OA
ATOM     16  C   UNL     1       7.865   1.933  21.594  0.00  0.00    +0.218 C 
ENDBRANCH  11  13
ENDBRANCH   8  11
ENDBRANCH   4   5
ENDBRANCH   3   4
ENDBRANCH   2   3
BRANCH   2  17
ATOM     17  C   UNL     1       5.661  -5.866  25.956  0.00  0.00    +0.125 C 
BRANCH  17  18
ATOM     18  C   UNL     1       6.437  -4.998  26.959  0.00  0.00    +0.244 C 
BRANCH  18  19
ATOM     19  O   UNL     1       7.414  -4.221  26.257  0.00  0.00    -0.491 OA
BRANCH  19  20
ATOM     20  C   UNL     1       7.360  -2.866  26.457  0.00  0.00    +0.121 A 
ATOM     21  C   UNL     1       8.599  -2.229  26.570  0.00  0.00    +0.047 A 
ATOM     22  C   UNL     1       8.673  -0.845  26.758  0.00  0.00    +0.028 A 
ATOM     23  C   UNL     1       7.500  -0.095  26.825  0.00  0.00    +0.048 A 
ATOM     24  C   UNL     1       6.262  -0.725  26.741  0.00  0.00    +0.028 A 
ATOM     25  C   UNL     1       6.191  -2.108  26.556  0.00  0.00    +0.047 A 
BRANCH  23  26
ATOM     26  N   UNL     1       7.543   1.316  27.010  0.00  0.00    -0.221 N 
ATOM     27  H   UNL     1       6.897   1.684  27.711  0.00  0.00    +0.173 HD
BRANCH  26  28
ATOM     28  S   UNL     1       7.483   2.292  25.630  0.00  0.00    +0.040 S 
ATOM     29  O   UNL     1       6.454   1.706  24.796  0.00  0.00    -0.155 OA
ATOM     30  O   UNL     1       8.816   2.520  25.124  0.00  0.00    -0.155 OA
ATOM     31  C   UNL     1       6.833   3.812  26.291  0.00  0.00    +0.218 C 
ENDBRANCH  26  28
ENDBRANCH  23  26
ENDBRANCH  19  20
ENDBRANCH  18  19
ENDBRANCH  17  18
ENDBRANCH   2  17
TORSDOF 11
ENDMDL
