MODEL 1
REMARK VINA RESULT:      -6.0      0.000      0.000
REMARK  Name = 
REMARK  8 active torsions:
REMARK  status: ('A' for Active; 'I' for Inactive)
REMARK    1  A    between atoms: C_1  and  C_2
REMARK    2  A    between atoms: N_4  and  C_5
REMARK    3  A    between atoms: C_8  and  C_15
REMARK    4  A    between atoms: C_10  and  N_11
REMARK    5  A    between atoms: N_11  and  C_12
REMARK    6  A    between atoms: C_12  and  N_13
REMARK    7  A    between atoms: C_12  and  N_14
REMARK    8  A    between atoms: C_15  and  O_16
REMARK                            x       y       z     vdW  Elec       q    Type
REMARK                         _______ _______ _______ _____ _____    ______ ____
ROOT
ATOM      1  C   UNL     1       7.661  -2.394  23.673  0.00  0.00    +0.055 A 
ATOM      2  C   UNL     1       7.963  -3.743  23.989  0.00  0.00    +0.051 A 
ATOM      3  C   UNL     1       7.461  -4.734  23.137  0.00  0.00    +0.039 A 
ATOM      4  C   UNL     1       6.587  -4.432  22.083  0.00  0.00    +0.061 A 
ATOM      5  C   UNL     1       6.213  -3.110  21.849  0.00  0.00    +0.017 A 
ATOM      6  C   UNL     1       6.759  -2.095  22.639  0.00  0.00    +0.026 A 
ENDROOT
BRANCH   1   9
ATOM      7  C   UNL     1       9.717   0.475  24.971  0.00  0.00    +0.109 C 
ATOM      8  C   UNL     1       9.414  -0.729  24.120  0.00  0.00    +0.214 C 
ATOM      9  N   UNL     1       8.174  -1.290  24.401  0.00  0.00    -0.284 N 
ATOM     10  H   UNL     1       7.495  -0.620  24.732  0.00  0.00    +0.155 HD
ATOM     11  O   UNL     1      10.206  -1.139  23.276  0.00  0.00    -0.276 OA
ENDBRANCH   1   9
BRANCH   2  12
ATOM     12  N   UNL     1       8.641  -4.079  25.161  0.00  0.00    -0.315 N 
ATOM     13  H   UNL     1       8.505  -3.420  25.921  0.00  0.00    +0.149 HD
BRANCH  12  14
ATOM     14  C   UNL     1       8.997  -5.414  25.490  0.00  0.00    +0.206 C 
BRANCH  14  15
ATOM     15  N   UNL     1       8.450  -5.729  26.771  0.00  0.00    -0.301 NA
ATOM     16  H   UNL     1       8.882  -5.375  27.618  0.00  0.00    +0.121 HD
ATOM     17  H   UNL     1       8.036  -6.647  26.877  0.00  0.00    +0.121 HD
ENDBRANCH  14  15
BRANCH  14  18
ATOM     18  N   UNL     1      10.413  -5.513  25.536  0.00  0.00    -0.301 NA
ATOM     19  H   UNL     1      10.884  -6.183  24.938  0.00  0.00    +0.121 HD
ATOM     20  H   UNL     1      10.989  -4.999  26.192  0.00  0.00    +0.121 HD
ENDBRANCH  14  18
ENDBRANCH  12  14
ENDBRANCH   2  12
BRANCH   4  21
ATOM     21  C   UNL     1       6.002  -5.581  21.354  0.00  0.00    +0.337 C 
ATOM     22  O   UNL     1       5.977  -5.601  20.132  0.00  0.00    -0.245 OA
BRANCH  21  23
ATOM     23  O   UNL     1       5.514  -6.565  22.125  0.00  0.00    -0.477 OA
ATOM     24  H   UNL     1       4.861  -7.159  21.713  0.00  0.00    +0.295 HD
ENDBRANCH  21  23
ENDBRANCH   4  21
TORSDOF 7
ENDMDL
MODEL 2
REMARK VINA RESULT:      -6.0      1.656      5.042
REMARK  Name = 
REMARK  8 active torsions:
REMARK  status: ('A' for Active; 'I' for Inactive)
REMARK    1  A    between atoms: C_1  and  C_2
REMARK    2  A    between atoms: N_4  and  C_5
REMARK    3  A    between atoms: C_8  and  C_15
REMARK    4  A    between atoms: C_10  and  N_11
REMARK    5  A    between atoms: N_11  and  C_12
REMARK    6  A    between atoms: C_12  and  N_13
REMARK    7  A    between atoms: C_12  and  N_14
REMARK    8  A    between atoms: C_15  and  O_16
REMARK                            x       y       z     vdW  Elec       q    Type
REMARK                         _______ _______ _______ _____ _____    ______ ____
ROOT
ATOM      1  C   UNL     1       8.150  -3.219  23.074  0.00  0.00    +0.055 A 
ATOM      2  C   UNL     1       8.210  -3.143  24.490  0.00  0.00    +0.051 A 
ATOM      3  C   UNL     1       8.643  -1.938  25.055  0.00  0.00    +0.039 A 
ATOM      4  C   UNL     1       9.124  -0.881  24.269  0.00  0.00    +0.061 A 
ATOM      5  C   UNL     1       9.159  -1.009  22.882  0.00  0.00    +0.017 A 
ATOM      6  C   UNL     1       8.663  -2.173  22.289  0.00  0.00    +0.026 A 
ENDROOT
BRANCH   1   9
ATOM      7  C   UNL     1       6.092  -5.643  21.069  0.00  0.00    +0.109 C 
ATOM      8  C   UNL     1       6.376  -4.373  21.824  0.00  0.00    +0.214 C 
ATOM      9  N   UNL     1       7.651  -4.346  22.375  0.00  0.00    -0.284 N 
ATOM     10  H   UNL     1       8.328  -4.879  21.847  0.00  0.00    +0.155 HD
ATOM     11  O   UNL     1       5.541  -3.477  21.919  0.00  0.00    -0.276 OA
ENDBRANCH   1   9
BRANCH   2  12
ATOM     12  N   UNL     1       7.952  -4.259  25.286  0.00  0.00    -0.315 N 
ATOM     13  H   UNL     1       7.205  -4.852  24.938  0.00  0.00    +0.149 HD
BRANCH  12  14
ATOM     14  C   UNL     1       8.931  -4.845  26.132  0.00  0.00    +0.206 C 
BRANCH  14  15
ATOM     15  N   UNL     1       9.811  -5.636  25.332  0.00  0.00    -0.301 NA
ATOM     16  H   UNL     1      10.560  -5.201  24.803  0.00  0.00    +0.121 HD
ATOM     17  H   UNL     1       9.410  -6.448  24.880  0.00  0.00    +0.121 HD
ENDBRANCH  14  15
BRANCH  14  18
ATOM     18  N   UNL     1       8.278  -5.671  27.086  0.00  0.00    -0.301 NA
ATOM     19  H   UNL     1       7.967  -6.596  26.810  0.00  0.00    +0.121 HD
ATOM     20  H   UNL     1       8.035  -5.363  28.019  0.00  0.00    +0.121 HD
ENDBRANCH  14  18
ENDBRANCH  12  14
ENDBRANCH   2  12
BRANCH   4  21
ATOM     21  C   UNL     1       9.699   0.277  24.990  0.00  0.00    +0.337 C 
ATOM     22  O   UNL     1      10.898   0.513  24.946  0.00  0.00    -0.245 OA
BRANCH  21  23
ATOM     23  O   UNL     1       8.819   1.021  25.679  0.00  0.00    -0.477 OA
ATOM     24  H   UNL     1       8.844   1.983  25.522  0.00  0.00    +0.295 HD
ENDBRANCH  21  23
ENDBRANCH   4  21
TORSDOF 7
ENDMDL
MODEL 3
REMARK VINA RESULT:      -5.7      1.178      1.529
REMARK  Name = 
REMARK  8 active torsions:
REMARK  status: ('A' for Active; 'I' for Inactive)
REMARK    1  A    between atoms: C_1  and  C_2
REMARK    2  A    between atoms: N_4  and  C_5
REMARK    3  A    between atoms: C_8  and  C_15
REMARK    4  A    between atoms: C_10  and  N_11
REMARK    5  A    between atoms: N_11  and  C_12
REMARK    6  A    between atoms: C_12  and  N_13
REMARK    7  A    between atoms: C_12  and  N_14
REMARK    8  A    between atoms: C_15  and  O_16
REMARK                            x       y       z     vdW  Elec       q    Type
REMARK                         _______ _______ _______ _____ _____    ______ ____
ROOT
ATOM      1  C   UNL     1       8.514  -2.748  23.637  0.00  0.00    +0.055 A 
ATOM      2  C   UNL     1       8.001  -3.731  24.521  0.00  0.00    +0.051 A 
ATOM      3  C   UNL     1       7.048  -4.623  24.013  0.00  0.00    +0.039 A 
ATOM      4  C   UNL     1       6.518  -4.485  22.722  0.00  0.00    +0.061 A 
ATOM      5  C   UNL     1       6.954  -3.448  21.901  0.00  0.00    +0.017 A 
ATOM      6  C   UNL     1       7.958  -2.589  22.357  0.00  0.00    +0.026 A 
ENDROOT
BRANCH   1   9
ATOM      7  C   UNL     1      10.511   0.182  24.889  0.00  0.00    +0.109 C 
ATOM      8  C   UNL     1       9.267  -0.579  24.516  0.00  0.00    +0.214 C 
ATOM      9  N   UNL     1       9.541  -1.838  23.996  0.00  0.00    -0.284 N 
ATOM     10  H   UNL     1      10.392  -2.246  24.357  0.00  0.00    +0.155 HD
ATOM     11  O   UNL     1       8.147  -0.101  24.671  0.00  0.00    -0.276 OA
ENDBRANCH   1   9
BRANCH   2  12
ATOM     12  N   UNL     1       8.347  -3.743  25.872  0.00  0.00    -0.315 N 
ATOM     13  H   UNL     1       7.694  -3.248  26.471  0.00  0.00    +0.149 HD
BRANCH  12  14
ATOM     14  C   UNL     1       9.147  -4.763  26.454  0.00  0.00    +0.206 C 
BRANCH  14  15
ATOM     15  N   UNL     1       9.862  -5.431  25.413  0.00  0.00    -0.301 NA
ATOM     16  H   UNL     1       9.382  -6.061  24.779  0.00  0.00    +0.121 HD
ATOM     17  H   UNL     1      10.815  -5.705  25.618  0.00  0.00    +0.121 HD
ENDBRANCH  14  15
BRANCH  14  18
ATOM     18  N   UNL     1       8.298  -5.686  27.121  0.00  0.00    -0.301 NA
ATOM     19  H   UNL     1       8.657  -6.205  27.916  0.00  0.00    +0.121 HD
ATOM     20  H   UNL     1       7.365  -5.918  26.803  0.00  0.00    +0.121 HD
ENDBRANCH  14  18
ENDBRANCH  12  14
ENDBRANCH   2  12
BRANCH   4  21
ATOM     21  C   UNL     1       5.406  -5.393  22.359  0.00  0.00    +0.337 C 
ATOM     22  O   UNL     1       4.253  -5.128  22.668  0.00  0.00    -0.245 OA
BRANCH  21  23
ATOM     23  O   UNL     1       5.762  -6.499  21.687  0.00  0.00    -0.477 OA
ATOM     24  H   UNL     1       6.483  -6.402  21.038  0.00  0.00    +0.295 HD
ENDBRANCH  21  23
ENDBRANCH   4  21
TORSDOF 7
ENDMDL
MODEL 4
REMARK VINA RESULT:      -5.6      6.246      8.974
REMARK  Name = 
REMARK  8 active torsions:
REMARK  status: ('A' for Active; 'I' for Inactive)
REMARK    1  A    between atoms: C_1  and  C_2
REMARK    2  A    between atoms: N_4  and  C_5
REMARK    3  A    between atoms: C_8  and  C_15
REMARK    4  A    between atoms: C_10  and  N_11
REMARK    5  A    between atoms: N_11  and  C_12
REMARK    6  A    between atoms: C_12  and  N_13
REMARK    7  A    between atoms: C_12  and  N_14
REMARK    8  A    between atoms: C_15  and  O_16
REMARK                            x       y       z     vdW  Elec       q    Type
REMARK                         _______ _______ _______ _____ _____    ______ ____
ROOT
ATOM      1  C   UNL     1       9.338   4.044  24.186  0.00  0.00    +0.055 A 
ATOM      2  C   UNL     1      10.289   3.079  23.765  0.00  0.00    +0.051 A 
ATOM      3  C   UNL     1      11.549   3.544  23.368  0.00  0.00    +0.039 A 
ATOM      4  C   UNL     1      11.835   4.913  23.263  0.00  0.00    +0.061 A 
ATOM      5  C   UNL     1      10.856   5.852  23.579  0.00  0.00    +0.017 A 
ATOM      6  C   UNL     1       9.614   5.414  24.048  0.00  0.00    +0.026 A 
ENDROOT
BRANCH   1   9
ATOM      7  C   UNL     1       5.747   3.017  24.614  0.00  0.00    +0.109 C 
ATOM      8  C   UNL     1       6.985   3.417  23.857  0.00  0.00    +0.214 C 
ATOM      9  N   UNL     1       8.058   3.706  24.691  0.00  0.00    -0.284 N 
ATOM     10  H   UNL     1       8.043   3.190  25.559  0.00  0.00    +0.155 HD
ATOM     11  O   UNL     1       7.002   3.470  22.630  0.00  0.00    -0.276 OA
ENDBRANCH   1   9
BRANCH   2  12
ATOM     12  N   UNL     1       9.950   1.732  23.646  0.00  0.00    -0.315 N 
ATOM     13  H   UNL     1       9.576   1.323  24.496  0.00  0.00    +0.149 HD
BRANCH  12  14
ATOM     14  C   UNL     1       9.602   1.131  22.407  0.00  0.00    +0.206 C 
BRANCH  14  15
ATOM     15  N   UNL     1       9.473   2.158  21.422  0.00  0.00    -0.301 NA
ATOM     16  H   UNL     1       8.586   2.319  20.957  0.00  0.00    +0.121 HD
ATOM     17  H   UNL     1      10.280   2.330  20.834  0.00  0.00    +0.121 HD
ENDBRANCH  14  15
BRANCH  14  18
ATOM     18  N   UNL     1       8.362   0.454  22.557  0.00  0.00    -0.301 NA
ATOM     19  H   UNL     1       7.743   0.716  23.317  0.00  0.00    +0.121 HD
ATOM     20  H   UNL     1       8.084  -0.336  21.989  0.00  0.00    +0.121 HD
ENDBRANCH  14  18
ENDBRANCH  12  14
ENDBRANCH   2  12
BRANCH   4  21
ATOM     21  C   UNL     1      13.148   5.275  22.683  0.00  0.00    +0.337 C 
ATOM     22  O   UNL     1      13.222   5.859  21.612  0.00  0.00    -0.245 OA
BRANCH  21  23
ATOM     23  O   UNL     1      14.218   4.917  23.411  0.00  0.00    -0.477 OA
ATOM     24  H   UNL     1      14.884   4.363  22.964  0.00  0.00    +0.295 HD
ENDBRANCH  21  23
ENDBRANCH   4  21
TORSDOF 7
ENDMDL
MODEL 5
REMARK VINA RESULT:      -5.6      3.745      4.835
REMARK  Name = 
REMARK  8 active torsions:
REMARK  status: ('A' for Active; 'I' for Inactive)
REMARK    1  A    between atoms: C_1  and  C_2
REMARK    2  A    between atoms: N_4  and  C_5
REMARK    3  A    between atoms: C_8  and  C_15
REMARK    4  A    between atoms: C_10  and  N_11
REMARK    5  A    between atoms: N_11  and  C_12
REMARK    6  A    between atoms: C_12  and  N_13
REMARK    7  A    between atoms: C_12  and  N_14
REMARK    8  A    between atoms: C_15  and  O_16
REMARK                            x       y       z     vdW  Elec       q    Type
REMARK                         _______ _______ _______ _____ _____    ______ ____
ROOT
ATOM      1  C   UNL     1       8.978  -0.612  25.381  0.00  0.00    +0.055 A 
ATOM      2  C   UNL     1       9.522  -1.165  24.194  0.00  0.00    +0.051 A 
ATOM      3  C   UNL     1       9.513  -2.559  24.067  0.00  0.00    +0.039 A 
ATOM      4  C   UNL     1       9.105  -3.396  25.116  0.00  0.00    +0.061 A 
ATOM      5  C   UNL     1       8.673  -2.840  26.318  0.00  0.00    +0.017 A 
ATOM      6  C   UNL     1       8.602  -1.450  26.443  0.00  0.00    +0.026 A 
ENDROOT
BRANCH   1   9
ATOM      7  C   UNL     1       7.786   2.948  25.583  0.00  0.00    +0.109 C 
ATOM      8  C   UNL     1       7.738   1.500  25.175  0.00  0.00    +0.214 C 
ATOM      9  N   UNL     1       8.848   0.782  25.602  0.00  0.00    -0.284 N 
ATOM     10  H   UNL     1       9.253   1.138  26.457  0.00  0.00    +0.155 HD
ATOM     11  O   UNL     1       6.797   1.041  24.533  0.00  0.00    -0.276 OA
ENDBRANCH   1   9
BRANCH   2  12
ATOM     12  N   UNL     1      10.140  -0.361  23.236  0.00  0.00    -0.315 N 
ATOM     13  H   UNL     1      11.144  -0.495  23.169  0.00  0.00    +0.149 HD
BRANCH  12  14
ATOM     14  C   UNL     1       9.456   0.149  22.100  0.00  0.00    +0.206 C 
BRANCH  14  15
ATOM     15  N   UNL     1       9.620  -0.769  21.018  0.00  0.00    -0.301 NA
ATOM     16  H   UNL     1       9.029  -0.709  20.196  0.00  0.00    +0.121 HD
ATOM     17  H   UNL     1       9.891  -1.714  21.259  0.00  0.00    +0.121 HD
ENDBRANCH  14  15
BRANCH  14  18
ATOM     18  N   UNL     1      10.020   1.406  21.752  0.00  0.00    -0.301 NA
ATOM     19  H   UNL     1       9.864   1.779  20.821  0.00  0.00    +0.121 HD
ATOM     20  H   UNL     1      10.639   1.929  22.359  0.00  0.00    +0.121 HD
ENDBRANCH  14  18
ENDBRANCH  12  14
ENDBRANCH   2  12
BRANCH   4  21
ATOM     21  C   UNL     1       9.290  -4.851  24.916  0.00  0.00    +0.337 C 
ATOM     22  O   UNL     1       8.701  -5.442  24.023  0.00  0.00    -0.245 OA
BRANCH  21  23
ATOM     23  O   UNL     1      10.131  -5.448  25.775  0.00  0.00    -0.477 OA
ATOM     24  H   UNL     1       9.963  -5.303  26.724  0.00  0.00    +0.295 HD
ENDBRANCH  21  23
ENDBRANCH   4  21
TORSDOF 7
ENDMDL
MODEL 6
REMARK VINA RESULT:      -5.6      2.983      6.560
REMARK  Name = 
REMARK  8 active torsions:
REMARK  status: ('A' for Active; 'I' for Inactive)
REMARK    1  A    between atoms: C_1  and  C_2
REMARK    2  A    between atoms: N_4  and  C_5
REMARK    3  A    between atoms: C_8  and  C_15
REMARK    4  A    between atoms: C_10  and  N_11
REMARK    5  A    between atoms: N_11  and  C_12
REMARK    6  A    between atoms: C_12  and  N_13
REMARK    7  A    between atoms: C_12  and  N_14
REMARK    8  A    between atoms: C_15  and  O_16
REMARK                            x       y       z     vdW  Elec       q    Type
REMARK                         _______ _______ _______ _____ _____    ______ ____
ROOT
ATOM      1  C   UNL     1       9.521  -0.259  23.174  0.00  0.00    +0.055 A 
ATOM      2  C   UNL     1       9.762   0.371  24.422  0.00  0.00    +0.051 A 
ATOM      3  C   UNL     1      10.075   1.736  24.407  0.00  0.00    +0.039 A 
ATOM      4  C   UNL     1      10.272   2.438  23.209  0.00  0.00    +0.061 A 
ATOM      5  C   UNL     1      10.135   1.780  21.989  0.00  0.00    +0.017 A 
ATOM      6  C   UNL     1       9.751   0.436  21.976  0.00  0.00    +0.026 A 
ENDROOT
BRANCH   1   9
ATOM      7  C   UNL     1       7.599  -3.454  22.689  0.00  0.00    +0.109 C 
ATOM      8  C   UNL     1       7.784  -1.971  22.866  0.00  0.00    +0.214 C 
ATOM      9  N   UNL     1       9.113  -1.611  23.051  0.00  0.00    -0.284 N 
ATOM     10  H   UNL     1       9.766  -2.233  22.594  0.00  0.00    +0.155 HD
ATOM     11  O   UNL     1       6.833  -1.194  22.841  0.00  0.00    -0.276 OA
ENDBRANCH   1   9
BRANCH   2  12
ATOM     12  N   UNL     1       9.795  -0.361  25.609  0.00  0.00    -0.315 N 
ATOM     13  H   UNL     1      10.687  -0.324  26.092  0.00  0.00    +0.149 HD
BRANCH  12  14
ATOM     14  C   UNL     1       8.631  -0.642  26.373  0.00  0.00    +0.206 C 
BRANCH  14  15
ATOM     15  N   UNL     1       8.876  -0.273  27.731  0.00  0.00    -0.301 NA
ATOM     16  H   UNL     1       9.166  -0.968  28.410  0.00  0.00    +0.121 HD
ATOM     17  H   UNL     1       8.292   0.458  28.117  0.00  0.00    +0.121 HD
ENDBRANCH  14  15
BRANCH  14  18
ATOM     18  N   UNL     1       8.359  -2.035  26.297  0.00  0.00    -0.301 NA
ATOM     19  H   UNL     1       8.188  -2.458  25.391  0.00  0.00    +0.121 HD
ATOM     20  H   UNL     1       8.251  -2.628  27.110  0.00  0.00    +0.121 HD
ENDBRANCH  14  18
ENDBRANCH  12  14
ENDBRANCH   2  12
BRANCH   4  21
ATOM     21  C   UNL     1      10.752   3.834  23.328  0.00  0.00    +0.337 C 
ATOM     22  O   UNL     1      11.947   4.083  23.394  0.00  0.00    -0.245 OA
BRANCH  21  23
ATOM     23  O   UNL     1       9.793   4.773  23.358  0.00  0.00    -0.477 OA
ATOM     24  H   UNL     1       9.807   5.387  24.115  0.00  0.00    +0.295 HD
ENDBRANCH  21  23
ENDBRANCH   4  21
TORSDOF 7
ENDMDL
MODEL 7
REMARK VINA RESULT:      -5.6      5.331      7.029
REMARK  Name = 
REMARK  8 active torsions:
REMARK  status: ('A' for Active; 'I' for Inactive)
REMARK    1  A    between atoms: C_1  and  C_2
REMARK    2  A    between atoms: N_4  and  C_5
REMARK    3  A    between atoms: C_8  and  C_15
REMARK    4  A    between atoms: C_10  and  N_11
REMARK    5  A    between atoms: N_11  and  C_12
REMARK    6  A    between atoms: C_12  and  N_13
REMARK    7  A    between atoms: C_12  and  N_14
REMARK    8  A    between atoms: C_15  and  O_16
REMARK                            x       y       z     vdW  Elec       q    Type
REMARK                         _______ _______ _______ _____ _____    ______ ____
ROOT
ATOM      1  C   UNL     1       9.881   2.710  23.340  0.00  0.00    +0.055 A 
ATOM      2  C   UNL     1       9.025   2.070  22.407  0.00  0.00    +0.051 A 
ATOM      3  C   UNL     1       9.059   0.672  22.351  0.00  0.00    +0.039 A 
ATOM      4  C   UNL     1       9.989  -0.077  23.088  0.00  0.00    +0.061 A 
ATOM      5  C   UNL     1      10.897   0.573  23.921  0.00  0.00    +0.017 A 
ATOM      6  C   UNL     1      10.834   1.963  24.051  0.00  0.00    +0.026 A 
ENDROOT
BRANCH   1   9
ATOM      7  C   UNL     1       9.393   6.188  24.682  0.00  0.00    +0.109 C 
ATOM      8  C   UNL     1       9.183   4.700  24.602  0.00  0.00    +0.214 C 
ATOM      9  N   UNL     1       9.886   4.110  23.559  0.00  0.00    -0.284 N 
ATOM     10  H   UNL     1      10.742   4.595  23.327  0.00  0.00    +0.155 HD
ATOM     11  O   UNL     1       8.457   4.107  25.396  0.00  0.00    -0.276 OA
ENDBRANCH   1   9
BRANCH   2  12
ATOM     12  N   UNL     1       8.257   2.807  21.505  0.00  0.00    -0.315 N 
ATOM     13  H   UNL     1       8.415   2.563  20.533  0.00  0.00    +0.149 HD
BRANCH  12  14
ATOM     14  C   UNL     1       7.011   3.394  21.853  0.00  0.00    +0.206 C 
BRANCH  14  15
ATOM     15  N   UNL     1       7.158   4.815  21.845  0.00  0.00    -0.301 NA
ATOM     16  H   UNL     1       8.036   5.244  22.117  0.00  0.00    +0.121 HD
ATOM     17  H   UNL     1       6.342   5.359  22.094  0.00  0.00    +0.121 HD
ENDBRANCH  14  15
BRANCH  14  18
ATOM     18  N   UNL     1       6.647   2.958  23.155  0.00  0.00    -0.301 NA
ATOM     19  H   UNL     1       6.753   1.979  23.399  0.00  0.00    +0.121 HD
ATOM     20  H   UNL     1       6.211   3.559  23.844  0.00  0.00    +0.121 HD
ENDBRANCH  14  18
ENDBRANCH  12  14
ENDBRANCH   2  12
BRANCH   4  21
ATOM     21  C   UNL     1      10.029  -1.533  22.824  0.00  0.00    +0.337 C 
ATOM     22  O   UNL     1      10.090  -2.337  23.743  0.00  0.00    -0.245 OA
BRANCH  21  23
ATOM     23  O   UNL     1       9.997  -1.885  21.529  0.00  0.00    -0.477 OA
ATOM     24  H   UNL     1      10.122  -1.169  20.879  0.00  0.00    +0.295 HD
ENDBRANCH  21  23
ENDBRANCH   4  21
TORSDOF 7
ENDMDL
MODEL 8
REMARK VINA RESULT:      -5.5      2.977      4.171
REMARK  Name = 
REMARK  8 active torsions:
REMARK  status: ('A' for Active; 'I' for Inactive)
REMARK    1  A    between atoms: C_1  and  C_2
REMARK    2  A    between atoms: N_4  and  C_5
REMARK    3  A    between atoms: C_8  and  C_15
REMARK    4  A    between atoms: C_10  and  N_11
REMARK    5  A    between atoms: N_11  and  C_12
REMARK    6  A    between atoms: C_12  and  N_13
REMARK    7  A    between atoms: C_12  and  N_14
REMARK    8  A    between atoms: C_15  and  O_16
REMARK                            x       y       z     vdW  Elec       q    Type
REMARK                         _______ _______ _______ _____ _____    ______ ____
ROOT
ATOM      1  C   UNL     1       8.131  -2.260  24.097  0.00  0.00    +0.055 A 
ATOM      2  C   UNL     1       8.422  -2.254  25.485  0.00  0.00    +0.051 A 
ATOM      3  C   UNL     1       8.146  -3.420  26.209  0.00  0.00    +0.039 A 
ATOM      4  C   UNL     1       7.489  -4.515  25.628  0.00  0.00    +0.061 A 
ATOM      5  C   UNL     1       7.112  -4.465  24.288  0.00  0.00    +0.017 A 
ATOM      6  C   UNL     1       7.442  -3.342  23.525  0.00  0.00    +0.026 A 
ENDROOT
BRANCH   1   9
ATOM      7  C   UNL     1       9.694   0.076  21.600  0.00  0.00    +0.109 C 
ATOM      8  C   UNL     1       9.618  -1.127  22.502  0.00  0.00    +0.214 C 
ATOM      9  N   UNL     1       8.437  -1.179  23.233  0.00  0.00    -0.284 N 
ATOM     10  H   UNL     1       7.654  -0.748  22.763  0.00  0.00    +0.155 HD
ATOM     11  O   UNL     1      10.525  -1.952  22.555  0.00  0.00    -0.276 OA
ENDBRANCH   1   9
BRANCH   2  12
ATOM     12  N   UNL     1       8.865  -1.098  26.128  0.00  0.00    -0.315 N 
ATOM     13  H   UNL     1       9.862  -0.930  26.036  0.00  0.00    +0.149 HD
BRANCH  12  14
ATOM     14  C   UNL     1       8.021   0.016  26.381  0.00  0.00    +0.206 C 
BRANCH  14  15
ATOM     15  N   UNL     1       8.498   1.131  25.627  0.00  0.00    -0.301 NA
ATOM     16  H   UNL     1       7.849   1.759  25.166  0.00  0.00    +0.121 HD
ATOM     17  H   UNL     1       9.369   1.004  25.126  0.00  0.00    +0.121 HD
ENDBRANCH  14  15
BRANCH  14  18
ATOM     18  N   UNL     1       8.065   0.320  27.768  0.00  0.00    -0.301 NA
ATOM     19  H   UNL     1       7.976   1.285  28.067  0.00  0.00    +0.121 HD
ATOM     20  H   UNL     1       8.256  -0.368  28.485  0.00  0.00    +0.121 HD
ENDBRANCH  14  18
ENDBRANCH  12  14
ENDBRANCH   2  12
BRANCH   4  21
ATOM     21  C   UNL     1       7.114  -5.623  26.535  0.00  0.00    +0.337 C 
ATOM     22  O   UNL     1       6.068  -6.236  26.378  0.00  0.00    -0.245 OA
BRANCH  21  23
ATOM     23  O   UNL     1       7.992  -5.888  27.515  0.00  0.00    -0.477 OA
ATOM     24  H   UNL     1       8.864  -5.458  27.448  0.00  0.00    +0.295 HD
ENDBRANCH  21  23
ENDBRANCH   4  21
TORSDOF 7
ENDMDL
MODEL 9
REMARK VINA RESULT:      -5.5      3.039      5.327
REMARK  Name = 
REMARK  8 active torsions:
REMARK  status: ('A' for Active; 'I' for Inactive)
REMARK    1  A    between atoms: C_1  and  C_2
REMARK    2  A    between atoms: N_4  and  C_5
REMARK    3  A    between atoms: C_8  and  C_15
REMARK    4  A    between atoms: C_10  and  N_11
REMARK    5  A    between atoms: N_11  and  C_12
REMARK    6  A    between atoms: C_12  and  N_13
REMARK    7  A    between atoms: C_12  and  N_14
REMARK    8  A    between atoms: C_15  and  O_16
REMARK                            x       y       z     vdW  Elec       q    Type
REMARK                         _______ _______ _______ _____ _____    ______ ____
ROOT
ATOM      1  C   UNL     1       9.150  -2.062  23.935  0.00  0.00    +0.055 A 
ATOM      2  C   UNL     1       8.079  -1.741  23.062  0.00  0.00    +0.051 A 
ATOM      3  C   UNL     1       8.169  -0.544  22.341  0.00  0.00    +0.039 A 
ATOM      4  C   UNL     1       9.207   0.375  22.556  0.00  0.00    +0.061 A 
ATOM      5  C   UNL     1      10.197   0.095  23.496  0.00  0.00    +0.017 A 
ATOM      6  C   UNL     1      10.170  -1.126  24.175  0.00  0.00    +0.026 A 
ENDROOT
BRANCH   1   9
ATOM      7  C   UNL     1       8.797  -4.827  26.458  0.00  0.00    +0.109 C 
ATOM      8  C   UNL     1       8.650  -3.431  25.914  0.00  0.00    +0.214 C 
ATOM      9  N   UNL     1       9.226  -3.278  24.659  0.00  0.00    -0.284 N 
ATOM     10  H   UNL     1       9.222  -4.125  24.108  0.00  0.00    +0.155 HD
ATOM     11  O   UNL     1       8.074  -2.549  26.545  0.00  0.00    -0.276 OA
ENDBRANCH   1   9
BRANCH   2  12
ATOM     12  N   UNL     1       6.930  -2.530  23.003  0.00  0.00    -0.315 N 
ATOM     13  H   UNL     1       6.084  -2.050  23.291  0.00  0.00    +0.149 HD
BRANCH  12  14
ATOM     14  C   UNL     1       6.804  -3.643  22.129  0.00  0.00    +0.206 C 
BRANCH  14  15
ATOM     15  N   UNL     1       5.485  -3.645  21.581  0.00  0.00    -0.301 NA
ATOM     16  H   UNL     1       4.767  -3.037  21.961  0.00  0.00    +0.121 HD
ATOM     17  H   UNL     1       5.132  -4.532  21.244  0.00  0.00    +0.121 HD
ENDBRANCH  14  15
BRANCH  14  18
ATOM     18  N   UNL     1       7.016  -4.835  22.872  0.00  0.00    -0.301 NA
ATOM     19  H   UNL     1       7.964  -5.162  23.026  0.00  0.00    +0.121 HD
ATOM     20  H   UNL     1       6.265  -5.430  23.201  0.00  0.00    +0.121 HD
ENDBRANCH  14  18
ENDBRANCH  12  14
ENDBRANCH   2  12
BRANCH   4  21
ATOM     21  C   UNL     1       9.105   1.671  21.848  0.00  0.00    +0.337 C 
ATOM     22  O   UNL     1       8.017   2.128  21.529  0.00  0.00    -0.245 OA
BRANCH  21  23
ATOM     23  O   UNL     1      10.273   2.281  21.592  0.00  0.00    -0.477 OA
ATOM     24  H   UNL     1      10.848   2.463  22.358  0.00  0.00    +0.295 HD
ENDBRANCH  21  23
ENDBRANCH   4  21
TORSDOF 7
ENDMDL
