MODEL 1
REMARK VINA RESULT:      -7.0      0.000      0.000
REMARK  Name = 
REMARK  2 active torsions:
REMARK  status: ('A' for Active; 'I' for Inactive)
REMARK    1  A    between atoms: C_2  and  C_6
REMARK    2  A    between atoms: C_11  and  C_15
REMARK                            x       y       z     vdW  Elec       q    Type
REMARK                         _______ _______ _______ _____ _____    ______ ____
ROOT
ATOM      1  C   UNL     1      10.111   2.372  23.285  0.00  0.00    +0.063 A 
ATOM      2  C   UNL     1       9.785   1.714  24.489  0.00  0.00    +0.045 A 
ATOM      3  C   UNL     1       9.423   0.359  24.456  0.00  0.00    +0.090 A 
ATOM      4  C   UNL     1       9.382  -0.294  23.235  0.00  0.00    +0.067 A 
ATOM      5  N   UNL     1       8.988  -1.557  23.562  0.00  0.00    -0.338 N 
ATOM      6  H   UNL     1       8.826  -2.372  22.970  0.00  0.00    +0.167 HD
ATOM      7  C   UNL     1       8.820  -1.645  24.923  0.00  0.00    +0.139 A 
ATOM      8  C   UNL     1       9.697   0.306  22.020  0.00  0.00    +0.028 A 
ATOM      9  N   UNL     1       9.079  -0.472  25.490  0.00  0.00    -0.228 NA
ATOM     10  C   UNL     1      10.072   1.653  22.073  0.00  0.00    +0.018 A 
ENDROOT
BRANCH   1  14
ATOM     11  N   UNL     1      11.739   4.154  23.169  0.00  0.00    -0.250 N 
ATOM     12  H   UNL     1      12.451   3.445  23.022  0.00  0.00    +0.288 HD
ATOM     13  H   UNL     1      12.040   5.116  23.200  0.00  0.00    +0.288 HD
ATOM     14  C   UNL     1      10.479   3.797  23.301  0.00  0.00    +0.266 C 
ATOM     15  N   UNL     1       9.543   4.710  23.455  0.00  0.00    -0.288 N 
ATOM     16  H   UNL     1       9.742   5.700  23.466  0.00  0.00    +0.301 HD
ATOM     17  H   UNL     1       8.578   4.425  23.594  0.00  0.00    +0.301 HD
ENDBRANCH   1  14
BRANCH   7  18
ATOM     18  C   UNL     1       8.414  -2.923  25.546  0.00  0.00    +0.010 A 
ATOM     19  C   UNL     1       9.119  -4.145  25.262  0.00  0.00    -0.098 A 
ATOM     20  O   UNL     1      10.122  -4.248  24.468  0.00  0.00    -0.873 OA
ATOM     21  C   UNL     1       8.624  -5.281  25.937  0.00  0.00    -0.008 A 
ATOM     22  C   UNL     1       7.538  -5.250  26.820  0.00  0.00    -0.001 A 
ATOM     23  C   UNL     1       6.880  -4.056  27.067  0.00  0.00    +0.001 A 
ATOM     24  C   UNL     1       7.315  -2.898  26.432  0.00  0.00    +0.011 A 
ENDBRANCH   7  18
TORSDOF 2
ENDMDL
MODEL 2
REMARK VINA RESULT:      -6.7      2.799      3.323
REMARK  Name = 
REMARK  2 active torsions:
REMARK  status: ('A' for Active; 'I' for Inactive)
REMARK    1  A    between atoms: C_2  and  C_6
REMARK    2  A    between atoms: C_11  and  C_15
REMARK                            x       y       z     vdW  Elec       q    Type
REMARK                         _______ _______ _______ _____ _____    ______ ____
ROOT
ATOM      1  C   UNL     1       9.075   0.351  22.321  0.00  0.00    +0.063 A 
ATOM      2  C   UNL     1       7.792  -0.142  22.634  0.00  0.00    +0.045 A 
ATOM      3  C   UNL     1       7.649  -1.474  23.048  0.00  0.00    +0.090 A 
ATOM      4  C   UNL     1       8.775  -2.278  23.123  0.00  0.00    +0.067 A 
ATOM      5  N   UNL     1       8.282  -3.481  23.531  0.00  0.00    -0.338 N 
ATOM      6  H   UNL     1       8.760  -4.363  23.714  0.00  0.00    +0.167 HD
ATOM      7  C   UNL     1       6.922  -3.382  23.704  0.00  0.00    +0.139 A 
ATOM      8  C   UNL     1      10.063  -1.842  22.828  0.00  0.00    +0.028 A 
ATOM      9  N   UNL     1       6.514  -2.154  23.406  0.00  0.00    -0.228 NA
ATOM     10  C   UNL     1      10.189  -0.505  22.433  0.00  0.00    +0.018 A 
ENDROOT
BRANCH   1  14
ATOM     11  N   UNL     1       8.188   2.453  21.526  0.00  0.00    -0.250 N 
ATOM     12  H   UNL     1       7.260   2.050  21.603  0.00  0.00    +0.288 HD
ATOM     13  H   UNL     1       8.257   3.401  21.187  0.00  0.00    +0.288 HD
ATOM     14  C   UNL     1       9.241   1.743  21.871  0.00  0.00    +0.266 C 
ATOM     15  N   UNL     1      10.447   2.269  21.810  0.00  0.00    -0.288 N 
ATOM     16  H   UNL     1      10.613   3.220  21.514  0.00  0.00    +0.301 HD
ATOM     17  H   UNL     1      11.257   1.701  22.042  0.00  0.00    +0.301 HD
ENDBRANCH   1  14
BRANCH   7  18
ATOM     18  C   UNL     1       6.140  -4.549  24.167  0.00  0.00    +0.010 A 
ATOM     19  C   UNL     1       5.283  -5.274  23.267  0.00  0.00    -0.098 A 
ATOM     20  O   UNL     1       5.109  -4.989  22.028  0.00  0.00    -0.873 OA
ATOM     21  C   UNL     1       4.611  -6.370  23.849  0.00  0.00    -0.008 A 
ATOM     22  C   UNL     1       4.750  -6.746  25.190  0.00  0.00    -0.001 A 
ATOM     23  C   UNL     1       5.582  -6.021  26.029  0.00  0.00    +0.001 A 
ATOM     24  C   UNL     1       6.273  -4.927  25.520  0.00  0.00    +0.011 A 
ENDBRANCH   7  18
TORSDOF 2
ENDMDL
MODEL 3
REMARK VINA RESULT:      -6.7      3.074      7.548
REMARK  Name = 
REMARK  2 active torsions:
REMARK  status: ('A' for Active; 'I' for Inactive)
REMARK    1  A    between atoms: C_2  and  C_6
REMARK    2  A    between atoms: C_11  and  C_15
REMARK                            x       y       z     vdW  Elec       q    Type
REMARK                         _______ _______ _______ _____ _____    ______ ____
ROOT
ATOM      1  C   UNL     1       6.127  -5.601  26.204  0.00  0.00    +0.063 A 
ATOM      2  C   UNL     1       5.810  -4.738  25.136  0.00  0.00    +0.045 A 
ATOM      3  C   UNL     1       6.710  -3.722  24.782  0.00  0.00    +0.090 A 
ATOM      4  C   UNL     1       7.884  -3.585  25.505  0.00  0.00    +0.067 A 
ATOM      5  N   UNL     1       8.497  -2.519  24.919  0.00  0.00    -0.338 N 
ATOM      6  H   UNL     1       9.387  -2.068  25.134  0.00  0.00    +0.167 HD
ATOM      7  C   UNL     1       7.721  -2.059  23.881  0.00  0.00    +0.139 A 
ATOM      8  C   UNL     1       8.246  -4.409  26.566  0.00  0.00    +0.028 A 
ATOM      9  N   UNL     1       6.614  -2.786  23.785  0.00  0.00    -0.228 NA
ATOM     10  C   UNL     1       7.344  -5.428  26.894  0.00  0.00    +0.018 A 
ENDROOT
BRANCH   1  14
ATOM     11  N   UNL     1       5.270  -7.207  27.793  0.00  0.00    -0.250 N 
ATOM     12  H   UNL     1       5.961  -6.868  28.454  0.00  0.00    +0.288 HD
ATOM     13  H   UNL     1       4.664  -7.956  28.096  0.00  0.00    +0.288 HD
ATOM     14  C   UNL     1       5.187  -6.663  26.597  0.00  0.00    +0.266 C 
ATOM     15  N   UNL     1       4.269  -7.070  25.744  0.00  0.00    -0.288 N 
ATOM     16  H   UNL     1       3.598  -7.791  25.968  0.00  0.00    +0.301 HD
ATOM     17  H   UNL     1       4.237  -6.672  24.811  0.00  0.00    +0.301 HD
ENDBRANCH   1  14
BRANCH   7  18
ATOM     18  C   UNL     1       8.172  -0.915  23.060  0.00  0.00    +0.010 A 
ATOM     19  C   UNL     1       9.439  -0.943  22.379  0.00  0.00    -0.098 A 
ATOM     20  O   UNL     1      10.275  -1.916  22.420  0.00  0.00    -0.873 OA
ATOM     21  C   UNL     1       9.729   0.214  21.625  0.00  0.00    -0.008 A 
ATOM     22  C   UNL     1       8.869   1.315  21.527  0.00  0.00    -0.001 A 
ATOM     23  C   UNL     1       7.657   1.309  22.201  0.00  0.00    +0.001 A 
ATOM     24  C   UNL     1       7.311   0.199  22.964  0.00  0.00    +0.011 A 
ENDBRANCH   7  18
TORSDOF 2
ENDMDL
MODEL 4
REMARK VINA RESULT:      -6.7      2.599      2.763
REMARK  Name = 
REMARK  2 active torsions:
REMARK  status: ('A' for Active; 'I' for Inactive)
REMARK    1  A    between atoms: C_2  and  C_6
REMARK    2  A    between atoms: C_11  and  C_15
REMARK                            x       y       z     vdW  Elec       q    Type
REMARK                         _______ _______ _______ _____ _____    ______ ____
ROOT
ATOM      1  C   UNL     1       9.421   1.692  23.156  0.00  0.00    +0.063 A 
ATOM      2  C   UNL     1       8.527   0.946  23.951  0.00  0.00    +0.045 A 
ATOM      3  C   UNL     1       8.140  -0.335  23.533  0.00  0.00    +0.090 A 
ATOM      4  C   UNL     1       8.636  -0.828  22.337  0.00  0.00    +0.067 A 
ATOM      5  N   UNL     1       8.056  -2.057  22.234  0.00  0.00    -0.338 N 
ATOM      6  H   UNL     1       8.140  -2.768  21.507  0.00  0.00    +0.167 HD
ATOM      7  C   UNL     1       7.263  -2.282  23.334  0.00  0.00    +0.139 A 
ATOM      8  C   UNL     1       9.521  -0.136  21.516  0.00  0.00    +0.028 A 
ATOM      9  N   UNL     1       7.299  -1.229  24.143  0.00  0.00    -0.228 NA
ATOM     10  C   UNL     1       9.911   1.134  21.958  0.00  0.00    +0.018 A 
ENDROOT
BRANCH   1  14
ATOM     11  N   UNL     1       9.088   3.720  24.429  0.00  0.00    -0.250 N 
ATOM     12  H   UNL     1       8.257   3.292  24.824  0.00  0.00    +0.288 HD
ATOM     13  H   UNL     1       9.313   4.658  24.722  0.00  0.00    +0.288 HD
ATOM     14  C   UNL     1       9.827   3.044  23.574  0.00  0.00    +0.266 C 
ATOM     15  N   UNL     1      10.928   3.576  23.082  0.00  0.00    -0.288 N 
ATOM     16  H   UNL     1      11.252   4.496  23.341  0.00  0.00    +0.301 HD
ATOM     17  H   UNL     1      11.471   3.064  22.394  0.00  0.00    +0.301 HD
ENDBRANCH   1  14
BRANCH   7  18
ATOM     18  C   UNL     1       6.533  -3.559  23.481  0.00  0.00    +0.010 A 
ATOM     19  C   UNL     1       5.731  -4.084  22.408  0.00  0.00    -0.098 A 
ATOM     20  O   UNL     1       5.566  -3.518  21.267  0.00  0.00    -0.873 OA
ATOM     21  C   UNL     1       5.103  -5.316  22.689  0.00  0.00    -0.008 A 
ATOM     22  C   UNL     1       5.235  -5.997  23.906  0.00  0.00    -0.001 A 
ATOM     23  C   UNL     1       6.013  -5.459  24.919  0.00  0.00    +0.001 A 
ATOM     24  C   UNL     1       6.658  -4.245  24.708  0.00  0.00    +0.011 A 
ENDBRANCH   7  18
TORSDOF 2
ENDMDL
MODEL 5
REMARK VINA RESULT:      -6.6      2.667      3.065
REMARK  Name = 
REMARK  2 active torsions:
REMARK  status: ('A' for Active; 'I' for Inactive)
REMARK    1  A    between atoms: C_2  and  C_6
REMARK    2  A    between atoms: C_11  and  C_15
REMARK                            x       y       z     vdW  Elec       q    Type
REMARK                         _______ _______ _______ _____ _____    ______ ____
ROOT
ATOM      1  C   UNL     1       8.244   2.515  22.446  0.00  0.00    +0.063 A 
ATOM      2  C   UNL     1       7.263   1.537  22.705  0.00  0.00    +0.045 A 
ATOM      3  C   UNL     1       7.587   0.181  22.558  0.00  0.00    +0.090 A 
ATOM      4  C   UNL     1       8.865  -0.162  22.145  0.00  0.00    +0.067 A 
ATOM      5  N   UNL     1       8.829  -1.523  22.093  0.00  0.00    -0.338 N 
ATOM      6  H   UNL     1       9.553  -2.193  21.836  0.00  0.00    +0.167 HD
ATOM      7  C   UNL     1       7.584  -1.962  22.476  0.00  0.00    +0.139 A 
ATOM      8  C   UNL     1       9.871   0.762  21.879  0.00  0.00    +0.028 A 
ATOM      9  N   UNL     1       6.804  -0.925  22.761  0.00  0.00    -0.228 NA
ATOM     10  C   UNL     1       9.534   2.110  22.047  0.00  0.00    +0.018 A 
ENDROOT
BRANCH   1  14
ATOM     11  N   UNL     1       6.807   4.418  22.054  0.00  0.00    -0.250 N 
ATOM     12  H   UNL     1       6.164   3.790  21.584  0.00  0.00    +0.288 HD
ATOM     13  H   UNL     1       6.555   5.394  22.099  0.00  0.00    +0.288 HD
ATOM     14  C   UNL     1       7.916   3.944  22.582  0.00  0.00    +0.266 C 
ATOM     15  N   UNL     1       8.740   4.744  23.226  0.00  0.00    -0.288 N 
ATOM     16  H   UNL     1       8.558   5.729  23.352  0.00  0.00    +0.301 HD
ATOM     17  H   UNL     1       9.612   4.378  23.597  0.00  0.00    +0.301 HD
ENDBRANCH   1  14
BRANCH   7  18
ATOM     18  C   UNL     1       7.284  -3.409  22.528  0.00  0.00    +0.010 A 
ATOM     19  C   UNL     1       8.069  -4.301  23.341  0.00  0.00    -0.098 A 
ATOM     20  O   UNL     1       9.070  -3.949  24.063  0.00  0.00    -0.873 OA
ATOM     21  C   UNL     1       7.659  -5.650  23.299  0.00  0.00    -0.008 A 
ATOM     22  C   UNL     1       6.577  -6.112  22.540  0.00  0.00    -0.001 A 
ATOM     23  C   UNL     1       5.846  -5.224  21.765  0.00  0.00    +0.001 A 
ATOM     24  C   UNL     1       6.198  -3.879  21.759  0.00  0.00    +0.011 A 
ENDBRANCH   7  18
TORSDOF 2
ENDMDL
MODEL 6
REMARK VINA RESULT:      -6.6      3.660      7.420
REMARK  Name = 
REMARK  2 active torsions:
REMARK  status: ('A' for Active; 'I' for Inactive)
REMARK    1  A    between atoms: C_2  and  C_6
REMARK    2  A    between atoms: C_11  and  C_15
REMARK                            x       y       z     vdW  Elec       q    Type
REMARK                         _______ _______ _______ _____ _____    ______ ____
ROOT
ATOM      1  C   UNL     1       5.373  -5.742  23.603  0.00  0.00    +0.063 A 
ATOM      2  C   UNL     1       5.706  -4.580  24.327  0.00  0.00    +0.045 A 
ATOM      3  C   UNL     1       6.722  -3.739  23.849  0.00  0.00    +0.090 A 
ATOM      4  C   UNL     1       7.383  -4.084  22.681  0.00  0.00    +0.067 A 
ATOM      5  N   UNL     1       8.293  -3.082  22.523  0.00  0.00    -0.338 N 
ATOM      6  H   UNL     1       8.992  -2.934  21.795  0.00  0.00    +0.167 HD
ATOM      7  C   UNL     1       8.160  -2.177  23.549  0.00  0.00    +0.139 A 
ATOM      8  C   UNL     1       7.092  -5.216  21.927  0.00  0.00    +0.028 A 
ATOM      9  N   UNL     1       7.200  -2.568  24.379  0.00  0.00    -0.228 NA
ATOM     10  C   UNL     1       6.065  -6.035  22.410  0.00  0.00    +0.018 A 
ENDROOT
BRANCH   1  14
ATOM     11  N   UNL     1       3.327  -6.995  23.307  0.00  0.00    -0.250 N 
ATOM     12  H   UNL     1       3.311  -6.672  22.345  0.00  0.00    +0.288 HD
ATOM     13  H   UNL     1       2.570  -7.588  23.612  0.00  0.00    +0.288 HD
ATOM     14  C   UNL     1       4.319  -6.643  24.099  0.00  0.00    +0.266 C 
ATOM     15  N   UNL     1       4.370  -7.087  25.338  0.00  0.00    -0.288 N 
ATOM     16  H   UNL     1       3.676  -7.710  25.723  0.00  0.00    +0.301 HD
ATOM     17  H   UNL     1       5.117  -6.779  25.953  0.00  0.00    +0.301 HD
ENDBRANCH   1  14
BRANCH   7  18
ATOM     18  C   UNL     1       9.020  -0.975  23.602  0.00  0.00    +0.010 A 
ATOM     19  C   UNL     1       9.410  -0.287  22.401  0.00  0.00    -0.098 A 
ATOM     20  O   UNL     1       9.075  -0.635  21.212  0.00  0.00    -0.873 OA
ATOM     21  C   UNL     1      10.222   0.849  22.609  0.00  0.00    -0.008 A 
ATOM     22  C   UNL     1      10.627   1.294  23.873  0.00  0.00    -0.001 A 
ATOM     23  C   UNL     1      10.236   0.603  25.009  0.00  0.00    +0.001 A 
ATOM     24  C   UNL     1       9.437  -0.527  24.875  0.00  0.00    +0.011 A 
ENDBRANCH   7  18
TORSDOF 2
ENDMDL
MODEL 7
REMARK VINA RESULT:      -6.6      2.853      3.385
REMARK  Name = 
REMARK  2 active torsions:
REMARK  status: ('A' for Active; 'I' for Inactive)
REMARK    1  A    between atoms: C_2  and  C_6
REMARK    2  A    between atoms: C_11  and  C_15
REMARK                            x       y       z     vdW  Elec       q    Type
REMARK                         _______ _______ _______ _____ _____    ______ ____
ROOT
ATOM      1  C   UNL     1       8.939   0.375  22.360  0.00  0.00    +0.063 A 
ATOM      2  C   UNL     1       7.641  -0.113  22.616  0.00  0.00    +0.045 A 
ATOM      3  C   UNL     1       7.470  -1.460  22.965  0.00  0.00    +0.090 A 
ATOM      4  C   UNL     1       8.584  -2.282  23.035  0.00  0.00    +0.067 A 
ATOM      5  N   UNL     1       8.065  -3.495  23.374  0.00  0.00    -0.338 N 
ATOM      6  H   UNL     1       8.527  -4.391  23.530  0.00  0.00    +0.167 HD
ATOM      7  C   UNL     1       6.702  -3.386  23.515  0.00  0.00    +0.139 A 
ATOM      8  C   UNL     1       9.885  -1.851  22.794  0.00  0.00    +0.028 A 
ATOM      9  N   UNL     1       6.317  -2.140  23.262  0.00  0.00    -0.228 NA
ATOM     10  C   UNL     1      10.039  -0.500  22.464  0.00  0.00    +0.018 A 
ENDROOT
BRANCH   1  14
ATOM     11  N   UNL     1       8.095   2.580  21.843  0.00  0.00    -0.250 N 
ATOM     12  H   UNL     1       7.162   2.229  22.037  0.00  0.00    +0.288 HD
ATOM     13  H   UNL     1       8.179   3.544  21.558  0.00  0.00    +0.288 HD
ATOM     14  C   UNL     1       9.134   1.784  21.979  0.00  0.00    +0.266 C 
ATOM     15  N   UNL     1      10.352   2.239  21.766  0.00  0.00    -0.288 N 
ATOM     16  H   UNL     1      10.539   3.197  21.509  0.00  0.00    +0.301 HD
ATOM     17  H   UNL     1      11.145   1.608  21.835  0.00  0.00    +0.301 HD
ENDBRANCH   1  14
BRANCH   7  18
ATOM     18  C   UNL     1       5.893  -4.561  23.904  0.00  0.00    +0.010 A 
ATOM     19  C   UNL     1       6.178  -5.292  25.110  0.00  0.00    -0.098 A 
ATOM     20  O   UNL     1       7.126  -5.017  25.931  0.00  0.00    -0.873 OA
ATOM     21  C   UNL     1       5.316  -6.382  25.356  0.00  0.00    -0.008 A 
ATOM     22  C   UNL     1       4.259  -6.744  24.513  0.00  0.00    -0.001 A 
ATOM     23  C   UNL     1       4.016  -6.019  23.356  0.00  0.00    +0.001 A 
ATOM     24  C   UNL     1       4.830  -4.933  23.053  0.00  0.00    +0.011 A 
ENDBRANCH   7  18
TORSDOF 2
ENDMDL
MODEL 8
REMARK VINA RESULT:      -6.5      3.801      7.480
REMARK  Name = 
REMARK  2 active torsions:
REMARK  status: ('A' for Active; 'I' for Inactive)
REMARK    1  A    between atoms: C_2  and  C_6
REMARK    2  A    between atoms: C_11  and  C_15
REMARK                            x       y       z     vdW  Elec       q    Type
REMARK                         _______ _______ _______ _____ _____    ______ ____
ROOT
ATOM      1  C   UNL     1       4.833  -5.054  22.940  0.00  0.00    +0.063 A 
ATOM      2  C   UNL     1       4.938  -3.697  23.308  0.00  0.00    +0.045 A 
ATOM      3  C   UNL     1       6.113  -2.993  23.012  0.00  0.00    +0.090 A 
ATOM      4  C   UNL     1       7.150  -3.656  22.375  0.00  0.00    +0.067 A 
ATOM      5  N   UNL     1       8.116  -2.702  22.260  0.00  0.00    -0.338 N 
ATOM      6  H   UNL     1       9.051  -2.754  21.855  0.00  0.00    +0.167 HD
ATOM      7  C   UNL     1       7.658  -1.521  22.794  0.00  0.00    +0.139 A 
ATOM      8  C   UNL     1       7.099  -4.992  21.988  0.00  0.00    +0.028 A 
ATOM      9  N   UNL     1       6.427  -1.683  23.265  0.00  0.00    -0.228 NA
ATOM     10  C   UNL     1       5.911  -5.675  22.277  0.00  0.00    +0.018 A 
ENDROOT
BRANCH   1  14
ATOM     11  N   UNL     1       2.435  -5.223  23.193  0.00  0.00    -0.250 N 
ATOM     12  H   UNL     1       2.372  -4.256  22.891  0.00  0.00    +0.288 HD
ATOM     13  H   UNL     1       1.575  -5.695  23.427  0.00  0.00    +0.288 HD
ATOM     14  C   UNL     1       3.611  -5.812  23.256  0.00  0.00    +0.266 C 
ATOM     15  N   UNL     1       3.702  -7.077  23.611  0.00  0.00    -0.288 N 
ATOM     16  H   UNL     1       2.895  -7.642  23.832  0.00  0.00    +0.301 HD
ATOM     17  H   UNL     1       4.616  -7.513  23.694  0.00  0.00    +0.301 HD
ENDBRANCH   1  14
BRANCH   7  18
ATOM     18  C   UNL     1       8.509  -0.312  22.775  0.00  0.00    +0.010 A 
ATOM     19  C   UNL     1       9.727  -0.250  23.538  0.00  0.00    -0.098 A 
ATOM     20  O   UNL     1      10.175  -1.191  24.288  0.00  0.00    -0.873 OA
ATOM     21  C   UNL     1      10.440   0.962  23.413  0.00  0.00    -0.008 A 
ATOM     22  C   UNL     1      10.020   2.033  22.615  0.00  0.00    -0.001 A 
ATOM     23  C   UNL     1       8.838   1.939  21.896  0.00  0.00    +0.001 A 
ATOM     24  C   UNL     1       8.086   0.772  21.976  0.00  0.00    +0.011 A 
ENDBRANCH   7  18
TORSDOF 2
ENDMDL
MODEL 9
REMARK VINA RESULT:      -6.4      2.363      2.805
REMARK  Name = 
REMARK  2 active torsions:
REMARK  status: ('A' for Active; 'I' for Inactive)
REMARK    1  A    between atoms: C_2  and  C_6
REMARK    2  A    between atoms: C_11  and  C_15
REMARK                            x       y       z     vdW  Elec       q    Type
REMARK                         _______ _______ _______ _____ _____    ______ ____
ROOT
ATOM      1  C   UNL     1       9.779   1.862  23.493  0.00  0.00    +0.063 A 
ATOM      2  C   UNL     1       8.783   1.125  22.821  0.00  0.00    +0.045 A 
ATOM      3  C   UNL     1       8.587  -0.224  23.148  0.00  0.00    +0.090 A 
ATOM      4  C   UNL     1       9.391  -0.803  24.117  0.00  0.00    +0.067 A 
ATOM      5  N   UNL     1       8.951  -2.091  24.169  0.00  0.00    -0.338 N 
ATOM      6  H   UNL     1       9.263  -2.873  24.745  0.00  0.00    +0.167 HD
ATOM      7  C   UNL     1       7.918  -2.258  23.277  0.00  0.00    +0.139 A 
ATOM      8  C   UNL     1      10.385  -0.122  24.812  0.00  0.00    +0.028 A 
ATOM      9  N   UNL     1       7.684  -1.119  22.636  0.00  0.00    -0.228 NA
ATOM     10  C   UNL     1      10.556   1.229  24.484  0.00  0.00    +0.018 A 
ENDROOT
BRANCH   1  14
ATOM     11  N   UNL     1      11.235   3.732  23.021  0.00  0.00    -0.250 N 
ATOM     12  H   UNL     1      12.022   3.099  23.122  0.00  0.00    +0.288 HD
ATOM     13  H   UNL     1      11.439   4.699  22.814  0.00  0.00    +0.288 HD
ATOM     14  C   UNL     1      10.007   3.276  23.152  0.00  0.00    +0.266 C 
ATOM     15  N   UNL     1       8.978   4.081  22.986  0.00  0.00    -0.288 N 
ATOM     16  H   UNL     1       9.081   5.056  22.745  0.00  0.00    +0.301 HD
ATOM     17  H   UNL     1       8.035   3.730  23.126  0.00  0.00    +0.301 HD
ENDBRANCH   1  14
BRANCH   7  18
ATOM     18  C   UNL     1       7.243  -3.567  23.151  0.00  0.00    +0.010 A 
ATOM     19  C   UNL     1       6.736  -4.256  24.308  0.00  0.00    -0.098 A 
ATOM     20  O   UNL     1       6.823  -3.829  25.516  0.00  0.00    -0.873 OA
ATOM     21  C   UNL     1       6.107  -5.489  24.032  0.00  0.00    -0.008 A 
ATOM     22  C   UNL     1       5.970  -6.021  22.744  0.00  0.00    -0.001 A 
ATOM     23  C   UNL     1       6.474  -5.331  21.652  0.00  0.00    +0.001 A 
ATOM     24  C   UNL     1       7.108  -4.110  21.855  0.00  0.00    +0.011 A 
ENDBRANCH   7  18
TORSDOF 2
ENDMDL
