MODEL 1
REMARK VINA RESULT:      -4.2      0.000      0.000
REMARK  Name = 
REMARK  9 active torsions:
REMARK  status: ('A' for Active; 'I' for Inactive)
REMARK    1  A    between atoms: C_1  and  C_2
REMARK    2  A    between atoms: C_2  and  C_4
REMARK    3  A    between atoms: C_2  and  C_11
REMARK    4  A    between atoms: C_4  and  C_5
REMARK    5  A    between atoms: C_5  and  C_6
REMARK    6  A    between atoms: C_6  and  C_7
REMARK    7  A    between atoms: C_7  and  C_8
REMARK    8  A    between atoms: C_7  and  C_9
REMARK    9  A    between atoms: C_7  and  O_10
REMARK                            x       y       z     vdW  Elec       q    Type
REMARK                         _______ _______ _______ _____ _____    ______ ____
ROOT
ATOM      1  C   UNL     1      10.347   0.061  24.736  0.00  0.00    +0.003 C 
ENDROOT
BRANCH   1   2
ATOM      2  C   UNL     1       9.624   1.393  24.521  0.00  0.00    +0.007 C 
BRANCH   2   4
ATOM      3  C   UNL     1      10.013   3.771  23.672  0.00  0.00    +0.012 C 
ATOM      4  C   UNL     1      10.348   2.288  23.493  0.00  0.00    +0.008 C 
BRANCH   4   5
ATOM      5  C   UNL     1       9.991   1.863  22.088  0.00  0.00    -0.031 C 
ATOM      6  C   UNL     1       8.752   1.532  21.700  0.00  0.00    +0.004 C 
ENDBRANCH   4   5
ENDBRANCH   2   4
ENDBRANCH   1   2
BRANCH   1   7
ATOM      7  C   UNL     1       9.386  -1.127  24.801  0.00  0.00    +0.034 C 
BRANCH   7   8
ATOM      8  C   UNL     1       9.500  -2.101  23.607  0.00  0.00    +0.061 C 
ATOM      9  C   UNL     1      10.530  -1.632  22.575  0.00  0.00    +0.041 C 
ATOM     10  C   UNL     1       8.152  -2.351  22.927  0.00  0.00    +0.041 C 
BRANCH   8  11
ATOM     11  O   UNL     1       9.976  -3.354  24.114  0.00  0.00    -0.389 OA
ATOM     12  H   UNL     1      10.011  -3.291  25.084  0.00  0.00    +0.210 HD
ENDBRANCH   8  11
ENDBRANCH   7   8
ENDBRANCH   1   7
TORSDOF 6
ENDMDL
MODEL 2
REMARK VINA RESULT:      -4.1      2.258      4.230
REMARK  Name = 
REMARK  9 active torsions:
REMARK  status: ('A' for Active; 'I' for Inactive)
REMARK    1  A    between atoms: C_1  and  C_2
REMARK    2  A    between atoms: C_2  and  C_4
REMARK    3  A    between atoms: C_2  and  C_11
REMARK    4  A    between atoms: C_4  and  C_5
REMARK    5  A    between atoms: C_5  and  C_6
REMARK    6  A    between atoms: C_6  and  C_7
REMARK    7  A    between atoms: C_7  and  C_8
REMARK    8  A    between atoms: C_7  and  C_9
REMARK    9  A    between atoms: C_7  and  O_10
REMARK                            x       y       z     vdW  Elec       q    Type
REMARK                         _______ _______ _______ _____ _____    ______ ____
ROOT
ATOM      1  C   UNL     1      10.392   0.127  24.204  0.00  0.00    +0.003 C 
ENDROOT
BRANCH   1   2
ATOM      2  C   UNL     1       9.430  -0.444  25.250  0.00  0.00    +0.007 C 
BRANCH   2   4
ATOM      3  C   UNL     1       9.830  -2.611  23.955  0.00  0.00    +0.012 C 
ATOM      4  C   UNL     1       8.853  -1.810  24.822  0.00  0.00    +0.008 C 
BRANCH   4   5
ATOM      5  C   UNL     1       7.559  -1.618  24.066  0.00  0.00    -0.031 C 
ATOM      6  C   UNL     1       6.731  -0.584  24.258  0.00  0.00    +0.004 C 
ENDBRANCH   4   5
ENDBRANCH   2   4
ENDBRANCH   1   2
BRANCH   1   7
ATOM      7  C   UNL     1       9.957   1.502  23.694  0.00  0.00    +0.034 C 
BRANCH   7   8
ATOM      8  C   UNL     1       9.536   1.523  22.207  0.00  0.00    +0.061 C 
ATOM      9  C   UNL     1       8.129   2.094  22.012  0.00  0.00    +0.041 C 
ATOM     10  C   UNL     1       9.638   0.142  21.554  0.00  0.00    +0.041 C 
BRANCH   8  11
ATOM     11  O   UNL     1      10.431   2.403  21.516  0.00  0.00    -0.389 OA
ATOM     12  H   UNL     1      10.256   2.322  20.563  0.00  0.00    +0.210 HD
ENDBRANCH   8  11
ENDBRANCH   7   8
ENDBRANCH   1   7
TORSDOF 6
ENDMDL
MODEL 3
REMARK VINA RESULT:      -4.1      1.861      2.632
REMARK  Name = 
REMARK  9 active torsions:
REMARK  status: ('A' for Active; 'I' for Inactive)
REMARK    1  A    between atoms: C_1  and  C_2
REMARK    2  A    between atoms: C_2  and  C_4
REMARK    3  A    between atoms: C_2  and  C_11
REMARK    4  A    between atoms: C_4  and  C_5
REMARK    5  A    between atoms: C_5  and  C_6
REMARK    6  A    between atoms: C_6  and  C_7
REMARK    7  A    between atoms: C_7  and  C_8
REMARK    8  A    between atoms: C_7  and  C_9
REMARK    9  A    between atoms: C_7  and  O_10
REMARK                            x       y       z     vdW  Elec       q    Type
REMARK                         _______ _______ _______ _____ _____    ______ ____
ROOT
ATOM      1  C   UNL     1       9.071  -1.717  24.759  0.00  0.00    +0.003 C 
ENDROOT
BRANCH   1   2
ATOM      2  C   UNL     1       8.872  -0.649  23.681  0.00  0.00    +0.007 C 
BRANCH   2   4
ATOM      3  C   UNL     1      10.893   0.746  24.387  0.00  0.00    +0.012 C 
ATOM      4  C   UNL     1      10.208  -0.010  23.244  0.00  0.00    +0.008 C 
BRANCH   4   5
ATOM      5  C   UNL     1       9.982   0.935  22.088  0.00  0.00    -0.031 C 
ATOM      6  C   UNL     1       8.777   1.208  21.571  0.00  0.00    +0.004 C 
ENDBRANCH   4   5
ENDBRANCH   2   4
ENDBRANCH   1   2
BRANCH   1   7
ATOM      7  C   UNL     1       9.697  -2.999  24.209  0.00  0.00    +0.034 C 
BRANCH   7   8
ATOM      8  C   UNL     1       9.221  -4.290  24.913  0.00  0.00    +0.061 C 
ATOM      9  C   UNL     1       8.134  -5.017  24.116  0.00  0.00    +0.041 C 
ATOM     10  C   UNL     1       8.738  -4.030  26.342  0.00  0.00    +0.041 C 
BRANCH   8  11
ATOM     11  O   UNL     1      10.339  -5.184  24.983  0.00  0.00    -0.389 OA
ATOM     12  H   UNL     1      10.012  -6.053  25.270  0.00  0.00    +0.210 HD
ENDBRANCH   8  11
ENDBRANCH   7   8
ENDBRANCH   1   7
TORSDOF 6
ENDMDL
MODEL 4
REMARK VINA RESULT:      -4.0      2.385      4.677
REMARK  Name = 
REMARK  9 active torsions:
REMARK  status: ('A' for Active; 'I' for Inactive)
REMARK    1  A    between atoms: C_1  and  C_2
REMARK    2  A    between atoms: C_2  and  C_4
REMARK    3  A    between atoms: C_2  and  C_11
REMARK    4  A    between atoms: C_4  and  C_5
REMARK    5  A    between atoms: C_5  and  C_6
REMARK    6  A    between atoms: C_6  and  C_7
REMARK    7  A    between atoms: C_7  and  C_8
REMARK    8  A    between atoms: C_7  and  C_9
REMARK    9  A    between atoms: C_7  and  O_10
REMARK                            x       y       z     vdW  Elec       q    Type
REMARK                         _______ _______ _______ _____ _____    ______ ____
ROOT
ATOM      1  C   UNL     1       9.441  -0.115  21.495  0.00  0.00    +0.003 C 
ENDROOT
BRANCH   1   2
ATOM      2  C   UNL     1      10.313  -1.154  22.206  0.00  0.00    +0.007 C 
BRANCH   2   4
ATOM      3  C   UNL     1       8.053  -2.278  22.604  0.00  0.00    +0.012 C 
ATOM      4  C   UNL     1       9.482  -2.081  23.118  0.00  0.00    +0.008 C 
BRANCH   4   5
ATOM      5  C   UNL     1       9.434  -1.527  24.523  0.00  0.00    -0.031 C 
ATOM      6  C   UNL     1       8.299  -1.306  25.199  0.00  0.00    +0.004 C 
ENDBRANCH   4   5
ENDBRANCH   2   4
ENDBRANCH   1   2
BRANCH   1   7
ATOM      7  C   UNL     1       9.820   1.321  21.861  0.00  0.00    +0.034 C 
BRANCH   7   8
ATOM      8  C   UNL     1       8.779   2.045  22.745  0.00  0.00    +0.061 C 
ATOM      9  C   UNL     1       9.249   2.187  24.195  0.00  0.00    +0.041 C 
ATOM     10  C   UNL     1       7.407   1.368  22.703  0.00  0.00    +0.041 C 
BRANCH   8  11
ATOM     11  O   UNL     1       8.629   3.376  22.235  0.00  0.00    -0.389 OA
ATOM     12  H   UNL     1       9.067   3.416  21.368  0.00  0.00    +0.210 HD
ENDBRANCH   8  11
ENDBRANCH   7   8
ENDBRANCH   1   7
TORSDOF 6
ENDMDL
MODEL 5
REMARK VINA RESULT:      -4.0      2.239      4.241
REMARK  Name = 
REMARK  9 active torsions:
REMARK  status: ('A' for Active; 'I' for Inactive)
REMARK    1  A    between atoms: C_1  and  C_2
REMARK    2  A    between atoms: C_2  and  C_4
REMARK    3  A    between atoms: C_2  and  C_11
REMARK    4  A    between atoms: C_4  and  C_5
REMARK    5  A    between atoms: C_5  and  C_6
REMARK    6  A    between atoms: C_6  and  C_7
REMARK    7  A    between atoms: C_7  and  C_8
REMARK    8  A    between atoms: C_7  and  C_9
REMARK    9  A    between atoms: C_7  and  O_10
REMARK                            x       y       z     vdW  Elec       q    Type
REMARK                         _______ _______ _______ _____ _____    ______ ____
ROOT
ATOM      1  C   UNL     1      10.554   1.690  23.891  0.00  0.00    +0.003 C 
ENDROOT
BRANCH   1   2
ATOM      2  C   UNL     1      10.709   0.508  24.852  0.00  0.00    +0.007 C 
BRANCH   2   4
ATOM      3  C   UNL     1       8.983  -0.746  26.257  0.00  0.00    +0.012 C 
ATOM      4  C   UNL     1       9.471  -0.413  24.844  0.00  0.00    +0.008 C 
BRANCH   4   5
ATOM      5  C   UNL     1       9.777  -1.695  24.108  0.00  0.00    -0.031 C 
ATOM      6  C   UNL     1      10.012  -1.761  22.791  0.00  0.00    +0.004 C 
ENDBRANCH   4   5
ENDBRANCH   2   4
ENDBRANCH   1   2
BRANCH   1   7
ATOM      7  C   UNL     1       9.154   2.306  23.939  0.00  0.00    +0.034 C 
BRANCH   7   8
ATOM      8  C   UNL     1       8.448   2.381  22.566  0.00  0.00    +0.061 C 
ATOM      9  C   UNL     1       7.702   3.704  22.371  0.00  0.00    +0.041 C 
ATOM     10  C   UNL     1       7.498   1.204  22.335  0.00  0.00    +0.041 C 
BRANCH   8  11
ATOM     11  O   UNL     1       9.462   2.334  21.554  0.00  0.00    -0.389 OA
ATOM     12  H   UNL     1       9.023   2.210  20.695  0.00  0.00    +0.210 HD
ENDBRANCH   8  11
ENDBRANCH   7   8
ENDBRANCH   1   7
TORSDOF 6
ENDMDL
MODEL 6
REMARK VINA RESULT:      -3.9      2.336      4.941
REMARK  Name = 
REMARK  9 active torsions:
REMARK  status: ('A' for Active; 'I' for Inactive)
REMARK    1  A    between atoms: C_1  and  C_2
REMARK    2  A    between atoms: C_2  and  C_4
REMARK    3  A    between atoms: C_2  and  C_11
REMARK    4  A    between atoms: C_4  and  C_5
REMARK    5  A    between atoms: C_5  and  C_6
REMARK    6  A    between atoms: C_6  and  C_7
REMARK    7  A    between atoms: C_7  and  C_8
REMARK    8  A    between atoms: C_7  and  C_9
REMARK    9  A    between atoms: C_7  and  O_10
REMARK                            x       y       z     vdW  Elec       q    Type
REMARK                         _______ _______ _______ _____ _____    ______ ____
ROOT
ATOM      1  C   UNL     1       9.781  -1.424  22.347  0.00  0.00    +0.003 C 
ENDROOT
BRANCH   1   2
ATOM      2  C   UNL     1       8.474  -2.221  22.337  0.00  0.00    +0.007 C 
BRANCH   2   4
ATOM      3  C   UNL     1       8.950  -2.080  24.844  0.00  0.00    +0.012 C 
ATOM      4  C   UNL     1       7.940  -2.476  23.763  0.00  0.00    +0.008 C 
BRANCH   4   5
ATOM      5  C   UNL     1       7.574  -3.932  23.932  0.00  0.00    -0.031 C 
ATOM      6  C   UNL     1       8.434  -4.874  24.340  0.00  0.00    +0.004 C 
ENDBRANCH   4   5
ENDBRANCH   2   4
ENDBRANCH   1   2
BRANCH   1   7
ATOM      7  C   UNL     1       9.692  -0.139  21.522  0.00  0.00    +0.034 C 
BRANCH   7   8
ATOM      8  C   UNL     1       9.608   1.152  22.368  0.00  0.00    +0.061 C 
ATOM      9  C   UNL     1      10.441   1.059  23.649  0.00  0.00    +0.041 C 
ATOM     10  C   UNL     1       8.165   1.533  22.707  0.00  0.00    +0.041 C 
BRANCH   8  11
ATOM     11  O   UNL     1      10.174   2.216  21.592  0.00  0.00    -0.389 OA
ATOM     12  H   UNL     1      10.692   1.819  20.871  0.00  0.00    +0.210 HD
ENDBRANCH   8  11
ENDBRANCH   7   8
ENDBRANCH   1   7
TORSDOF 6
ENDMDL
MODEL 7
REMARK VINA RESULT:      -3.8      4.161      6.098
REMARK  Name = 
REMARK  9 active torsions:
REMARK  status: ('A' for Active; 'I' for Inactive)
REMARK    1  A    between atoms: C_1  and  C_2
REMARK    2  A    between atoms: C_2  and  C_4
REMARK    3  A    between atoms: C_2  and  C_11
REMARK    4  A    between atoms: C_4  and  C_5
REMARK    5  A    between atoms: C_5  and  C_6
REMARK    6  A    between atoms: C_6  and  C_7
REMARK    7  A    between atoms: C_7  and  C_8
REMARK    8  A    between atoms: C_7  and  C_9
REMARK    9  A    between atoms: C_7  and  O_10
REMARK                            x       y       z     vdW  Elec       q    Type
REMARK                         _______ _______ _______ _____ _____    ______ ____
ROOT
ATOM      1  C   UNL     1       6.042  -4.186  24.752  0.00  0.00    +0.003 C 
ENDROOT
BRANCH   1   2
ATOM      2  C   UNL     1       5.520  -4.602  23.374  0.00  0.00    +0.007 C 
BRANCH   2   4
ATOM      3  C   UNL     1       7.202  -5.734  21.819  0.00  0.00    +0.012 C 
ATOM      4  C   UNL     1       6.580  -4.408  22.269  0.00  0.00    +0.008 C 
BRANCH   4   5
ATOM      5  C   UNL     1       7.674  -3.484  22.750  0.00  0.00    -0.031 C 
ATOM      6  C   UNL     1       7.898  -2.266  22.239  0.00  0.00    +0.004 C 
ENDBRANCH   4   5
ENDBRANCH   2   4
ENDBRANCH   1   2
BRANCH   1   7
ATOM      7  C   UNL     1       6.621  -5.362  25.541  0.00  0.00    +0.034 C 
BRANCH   7   8
ATOM      8  C   UNL     1       8.000  -5.080  26.179  0.00  0.00    +0.061 C 
ATOM      9  C   UNL     1       8.186  -3.599  26.521  0.00  0.00    +0.041 C 
ATOM     10  C   UNL     1       9.157  -5.566  25.304  0.00  0.00    +0.041 C 
BRANCH   8  11
ATOM     11  O   UNL     1       8.057  -5.793  27.421  0.00  0.00    -0.389 OA
ATOM     12  H   UNL     1       7.223  -5.636  27.895  0.00  0.00    +0.210 HD
ENDBRANCH   8  11
ENDBRANCH   7   8
ENDBRANCH   1   7
TORSDOF 6
ENDMDL
MODEL 8
REMARK VINA RESULT:      -3.7      2.401      5.542
REMARK  Name = 
REMARK  9 active torsions:
REMARK  status: ('A' for Active; 'I' for Inactive)
REMARK    1  A    between atoms: C_1  and  C_2
REMARK    2  A    between atoms: C_2  and  C_4
REMARK    3  A    between atoms: C_2  and  C_11
REMARK    4  A    between atoms: C_4  and  C_5
REMARK    5  A    between atoms: C_5  and  C_6
REMARK    6  A    between atoms: C_6  and  C_7
REMARK    7  A    between atoms: C_7  and  C_8
REMARK    8  A    between atoms: C_7  and  C_9
REMARK    9  A    between atoms: C_7  and  O_10
REMARK                            x       y       z     vdW  Elec       q    Type
REMARK                         _______ _______ _______ _____ _____    ______ ____
ROOT
ATOM      1  C   UNL     1       7.841  -2.408  22.259  0.00  0.00    +0.003 C 
ENDROOT
BRANCH   1   2
ATOM      2  C   UNL     1       6.408  -2.704  22.709  0.00  0.00    +0.007 C 
BRANCH   2   4
ATOM      3  C   UNL     1       6.662  -4.661  24.332  0.00  0.00    +0.012 C 
ATOM      4  C   UNL     1       6.175  -4.211  22.951  0.00  0.00    +0.008 C 
BRANCH   4   5
ATOM      5  C   UNL     1       6.872  -5.026  21.887  0.00  0.00    -0.031 C 
ATOM      6  C   UNL     1       6.234  -5.826  21.023  0.00  0.00    +0.004 C 
ENDBRANCH   4   5
ENDBRANCH   2   4
ENDBRANCH   1   2
BRANCH   1   7
ATOM      7  C   UNL     1       8.581  -1.480  23.224  0.00  0.00    +0.034 C 
BRANCH   7   8
ATOM      8  C   UNL     1       9.761  -0.713  22.586  0.00  0.00    +0.061 C 
ATOM      9  C   UNL     1      10.589   0.045  23.627  0.00  0.00    +0.041 C 
ATOM     10  C   UNL     1       9.305   0.243  21.481  0.00  0.00    +0.041 C 
BRANCH   8  11
ATOM     11  O   UNL     1      10.638  -1.681  21.996  0.00  0.00    -0.389 OA
ATOM     12  H   UNL     1      10.988  -2.242  22.709  0.00  0.00    +0.210 HD
ENDBRANCH   8  11
ENDBRANCH   7   8
ENDBRANCH   1   7
TORSDOF 6
ENDMDL
MODEL 9
REMARK VINA RESULT:      -3.7      1.846      3.091
REMARK  Name = 
REMARK  9 active torsions:
REMARK  status: ('A' for Active; 'I' for Inactive)
REMARK    1  A    between atoms: C_1  and  C_2
REMARK    2  A    between atoms: C_2  and  C_4
REMARK    3  A    between atoms: C_2  and  C_11
REMARK    4  A    between atoms: C_4  and  C_5
REMARK    5  A    between atoms: C_5  and  C_6
REMARK    6  A    between atoms: C_6  and  C_7
REMARK    7  A    between atoms: C_7  and  C_8
REMARK    8  A    between atoms: C_7  and  C_9
REMARK    9  A    between atoms: C_7  and  O_10
REMARK                            x       y       z     vdW  Elec       q    Type
REMARK                         _______ _______ _______ _____ _____    ______ ____
ROOT
ATOM      1  C   UNL     1       9.376  -2.214  23.239  0.00  0.00    +0.003 C 
ENDROOT
BRANCH   1   2
ATOM      2  C   UNL     1      10.357  -1.190  22.662  0.00  0.00    +0.007 C 
BRANCH   2   4
ATOM      3  C   UNL     1       9.851  -0.171  24.950  0.00  0.00    +0.012 C 
ATOM      4  C   UNL     1      10.552   0.019  23.601  0.00  0.00    +0.008 C 
BRANCH   4   5
ATOM      5  C   UNL     1      10.038   1.279  22.946  0.00  0.00    -0.031 C 
ATOM      6  C   UNL     1       9.514   1.319  21.714  0.00  0.00    +0.004 C 
ENDBRANCH   4   5
ENDBRANCH   2   4
ENDBRANCH   1   2
BRANCH   1   7
ATOM      7  C   UNL     1       8.153  -2.426  22.344  0.00  0.00    +0.034 C 
BRANCH   7   8
ATOM      8  C   UNL     1       6.803  -2.141  23.040  0.00  0.00    +0.061 C 
ATOM      9  C   UNL     1       6.865  -2.392  24.549  0.00  0.00    +0.041 C 
ATOM     10  C   UNL     1       5.650  -2.937  22.423  0.00  0.00    +0.041 C 
BRANCH   8  11
ATOM     11  O   UNL     1       6.514  -0.747  22.872  0.00  0.00    -0.389 OA
ATOM     12  H   UNL     1       6.227  -0.609  21.953  0.00  0.00    +0.210 HD
ENDBRANCH   8  11
ENDBRANCH   7   8
ENDBRANCH   1   7
TORSDOF 6
ENDMDL
