MODEL 1
REMARK VINA RESULT:      -7.0      0.000      0.000
REMARK  Name = 
REMARK  7 active torsions:
REMARK  status: ('A' for Active; 'I' for Inactive)
REMARK    1  A    between atoms: C_2  and  C_3
REMARK    2  A    between atoms: C_2  and  N_10
REMARK    3  A    between atoms: C_2  and  C_19
REMARK    4  A    between atoms: C_3  and  C_4
REMARK    5  A    between atoms: N_21  and  C_22
REMARK    6  A    between atoms: C_22  and  C_29
REMARK    7  A    between atoms: N_25  and  C_26
REMARK                            x       y       z     vdW  Elec       q    Type
REMARK                         _______ _______ _______ _____ _____    ______ ____
ROOT
ATOM      1  C   UNL     1       8.819  -0.773  23.746  0.00  0.00    +0.161 C 
ENDROOT
BRANCH   1   2
ATOM      2  N   UNL     1       8.188  -0.297  25.016  0.00  0.00    -0.288 N 
ATOM      3  H   UNL     1       8.719  -0.528  25.840  0.00  0.00    +0.151 HD
ATOM      4  C   UNL     1       6.833  -0.246  25.181  0.00  0.00    +0.303 C 
ATOM      5  N   UNL     1       6.375   0.074  26.435  0.00  0.00    -0.281 N 
ATOM      6  C   UNL     1       4.929   0.040  26.699  0.00  0.00    +0.137 C 
ATOM      7  C   UNL     1       4.467   1.354  27.335  0.00  0.00    +0.179 C 
ATOM      8  O   UNL     1       5.221   1.639  28.525  0.00  0.00    -0.377 OA
ATOM      9  C   UNL     1       6.618   1.758  28.221  0.00  0.00    +0.179 C 
ATOM     10  C   UNL     1       7.168   0.465  27.608  0.00  0.00    +0.137 C 
ATOM     11  O   UNL     1       6.083  -0.567  24.263  0.00  0.00    -0.253 OA
ENDBRANCH   1   2
BRANCH   1  12
ATOM     12  C   UNL     1       9.075  -2.329  23.876  0.00  0.00    +0.235 C 
ATOM     13  N   UNL     1       7.909  -3.018  24.092  0.00  0.00    -0.296 N 
ATOM     14  H   UNL     1       7.098  -2.500  23.765  0.00  0.00    +0.150 HD
ATOM     15  O   UNL     1      10.158  -2.877  23.720  0.00  0.00    -0.274 OA
BRANCH  13  16
ATOM     16  C   UNL     1       7.595  -4.438  24.355  0.00  0.00    +0.124 C 
ATOM     17  C   UNL     1       6.220  -4.410  25.053  0.00  0.00    +0.056 C 
ATOM     18  C   UNL     1       6.371  -3.822  26.455  0.00  0.00    +0.087 C 
ATOM     19  N   UNL     1       7.204  -4.640  27.326  0.00  0.00    -0.305 NA
ATOM     20  C   UNL     1       6.453  -5.711  27.970  0.00  0.00    +0.104 C 
ATOM     21  C   UNL     1       8.485  -5.040  26.736  0.00  0.00    +0.087 C 
ATOM     22  C   UNL     1       8.534  -5.291  25.227  0.00  0.00    +0.056 C 
BRANCH  16  23
ATOM     23  C   UNL     1       7.458  -5.114  23.040  0.00  0.00    +0.088 C 
ATOM     24  N   UNL     1       7.331  -5.638  22.003  0.00  0.00    -0.194 NA
ENDBRANCH  16  23
ENDBRANCH  13  16
ENDBRANCH   1  12
BRANCH   1  25
ATOM     25  C   UNL     1      10.074   0.086  23.504  0.00  0.00    +0.035 C 
BRANCH  25  26
ATOM     26  C   UNL     1      10.090   1.003  22.257  0.00  0.00    -0.009 C 
ATOM     27  C   UNL     1      10.393   2.465  22.653  0.00  0.00    +0.003 C 
ATOM     28  C   UNL     1       9.217   3.175  23.325  0.00  0.00    +0.000 C 
ATOM     29  C   UNL     1       7.955   3.101  22.475  0.00  0.00    +0.000 C 
ATOM     30  C   UNL     1       7.618   1.665  22.084  0.00  0.00    +0.000 C 
ATOM     31  C   UNL     1       8.800   0.960  21.421  0.00  0.00    +0.003 C 
ENDBRANCH  25  26
ENDBRANCH   1  25
TORSDOF 6
ENDMDL
MODEL 2
REMARK VINA RESULT:      -6.8      2.646      6.539
REMARK  Name = 
REMARK  7 active torsions:
REMARK  status: ('A' for Active; 'I' for Inactive)
REMARK    1  A    between atoms: C_2  and  C_3
REMARK    2  A    between atoms: C_2  and  N_10
REMARK    3  A    between atoms: C_2  and  C_19
REMARK    4  A    between atoms: C_3  and  C_4
REMARK    5  A    between atoms: N_21  and  C_22
REMARK    6  A    between atoms: C_22  and  C_29
REMARK    7  A    between atoms: N_25  and  C_26
REMARK                            x       y       z     vdW  Elec       q    Type
REMARK                         _______ _______ _______ _____ _____    ______ ____
ROOT
ATOM      1  C   UNL     1       7.859  -3.447  25.862  0.00  0.00    +0.161 C 
ENDROOT
BRANCH   1   2
ATOM      2  N   UNL     1       6.654  -3.793  26.678  0.00  0.00    -0.288 N 
ATOM      3  H   UNL     1       6.138  -2.988  26.994  0.00  0.00    +0.151 HD
ATOM      4  C   UNL     1       6.623  -4.878  27.507  0.00  0.00    +0.303 C 
ATOM      5  N   UNL     1       5.516  -5.012  28.308  0.00  0.00    -0.281 N 
ATOM      6  C   UNL     1       5.474  -6.100  29.296  0.00  0.00    +0.137 C 
ATOM      7  C   UNL     1       4.180  -6.906  29.156  0.00  0.00    +0.179 C 
ATOM      8  O   UNL     1       3.031  -6.048  29.258  0.00  0.00    -0.377 OA
ATOM      9  C   UNL     1       3.051  -5.053  28.224  0.00  0.00    +0.179 C 
ATOM     10  C   UNL     1       4.307  -4.178  28.315  0.00  0.00    +0.137 C 
ATOM     11  O   UNL     1       7.591  -5.629  27.584  0.00  0.00    -0.253 OA
ENDBRANCH   1   2
BRANCH   1  12
ATOM     12  C   UNL     1       8.082  -1.884  25.950  0.00  0.00    +0.235 C 
ATOM     13  N   UNL     1       7.421  -1.221  24.948  0.00  0.00    -0.296 N 
ATOM     14  H   UNL     1       6.643  -1.765  24.583  0.00  0.00    +0.150 HD
ATOM     15  O   UNL     1       8.693  -1.311  26.842  0.00  0.00    -0.274 OA
BRANCH  13  16
ATOM     16  C   UNL     1       7.355   0.194  24.529  0.00  0.00    +0.124 C 
ATOM     17  C   UNL     1       7.507   0.156  22.996  0.00  0.00    +0.056 C 
ATOM     18  C   UNL     1       8.937  -0.247  22.634  0.00  0.00    +0.087 C 
ATOM     19  N   UNL     1       9.927   0.727  23.073  0.00  0.00    -0.305 NA
ATOM     20  C   UNL     1      10.103   1.812  22.117  0.00  0.00    +0.104 C 
ATOM     21  C   UNL     1       9.789   1.141  24.473  0.00  0.00    +0.087 C 
ATOM     22  C   UNL     1       8.379   1.210  25.066  0.00  0.00    +0.056 C 
BRANCH  16  23
ATOM     23  C   UNL     1       5.998   0.695  24.869  0.00  0.00    +0.088 C 
ATOM     24  N   UNL     1       4.939   1.105  25.145  0.00  0.00    -0.194 NA
ENDBRANCH  16  23
ENDBRANCH  13  16
ENDBRANCH   1  12
BRANCH   1  25
ATOM     25  C   UNL     1       7.633  -4.006  24.445  0.00  0.00    +0.035 C 
BRANCH  25  26
ATOM     26  C   UNL     1       6.184  -4.361  24.033  0.00  0.00    -0.009 C 
ATOM     27  C   UNL     1       6.079  -5.842  23.610  0.00  0.00    +0.003 C 
ATOM     28  C   UNL     1       6.683  -6.131  22.234  0.00  0.00    +0.000 C 
ATOM     29  C   UNL     1       6.094  -5.223  21.160  0.00  0.00    +0.000 C 
ATOM     30  C   UNL     1       6.201  -3.750  21.543  0.00  0.00    +0.000 C 
ATOM     31  C   UNL     1       5.604  -3.471  22.921  0.00  0.00    +0.003 C 
ENDBRANCH  25  26
ENDBRANCH   1  25
TORSDOF 6
ENDMDL
MODEL 3
REMARK VINA RESULT:      -6.6      2.324      3.842
REMARK  Name = 
REMARK  7 active torsions:
REMARK  status: ('A' for Active; 'I' for Inactive)
REMARK    1  A    between atoms: C_2  and  C_3
REMARK    2  A    between atoms: C_2  and  N_10
REMARK    3  A    between atoms: C_2  and  C_19
REMARK    4  A    between atoms: C_3  and  C_4
REMARK    5  A    between atoms: N_21  and  C_22
REMARK    6  A    between atoms: C_22  and  C_29
REMARK    7  A    between atoms: N_25  and  C_26
REMARK                            x       y       z     vdW  Elec       q    Type
REMARK                         _______ _______ _______ _____ _____    ______ ____
ROOT
ATOM      1  C   UNL     1       7.528   0.002  24.265  0.00  0.00    +0.161 C 
ENDROOT
BRANCH   1   2
ATOM      2  N   UNL     1       6.775   1.270  24.514  0.00  0.00    -0.288 N 
ATOM      3  H   UNL     1       6.227   1.254  25.359  0.00  0.00    +0.151 HD
ATOM      4  C   UNL     1       6.267   2.027  23.496  0.00  0.00    +0.303 C 
ATOM      5  N   UNL     1       5.476   3.091  23.852  0.00  0.00    -0.281 N 
ATOM      6  C   UNL     1       4.816   3.877  22.799  0.00  0.00    +0.137 C 
ATOM      7  C   UNL     1       5.101   5.370  22.983  0.00  0.00    +0.179 C 
ATOM      8  O   UNL     1       4.713   5.806  24.296  0.00  0.00    -0.377 OA
ATOM      9  C   UNL     1       5.441   5.087  25.302  0.00  0.00    +0.179 C 
ATOM     10  C   UNL     1       5.182   3.578  25.206  0.00  0.00    +0.137 C 
ATOM     11  O   UNL     1       6.446   1.696  22.327  0.00  0.00    -0.253 OA
ENDBRANCH   1   2
BRANCH   1  12
ATOM     12  C   UNL     1       6.554  -1.213  24.545  0.00  0.00    +0.235 C 
ATOM     13  N   UNL     1       7.224  -2.409  24.549  0.00  0.00    -0.296 N 
ATOM     14  H   UNL     1       8.214  -2.287  24.748  0.00  0.00    +0.150 HD
ATOM     15  O   UNL     1       5.364  -1.111  24.812  0.00  0.00    -0.274 OA
BRANCH  13  16
ATOM     16  C   UNL     1       6.800  -3.818  24.679  0.00  0.00    +0.124 C 
ATOM     17  C   UNL     1       7.666  -4.583  23.659  0.00  0.00    +0.056 C 
ATOM     18  C   UNL     1       7.229  -4.217  22.241  0.00  0.00    +0.087 C 
ATOM     19  N   UNL     1       5.865  -4.635  21.945  0.00  0.00    -0.305 NA
ATOM     20  C   UNL     1       5.792  -6.020  21.497  0.00  0.00    +0.104 C 
ATOM     21  C   UNL     1       4.881  -4.251  22.960  0.00  0.00    +0.087 C 
ATOM     22  C   UNL     1       5.334  -4.213  24.422  0.00  0.00    +0.056 C 
BRANCH  16  23
ATOM     23  C   UNL     1       7.156  -4.265  26.050  0.00  0.00    +0.088 C 
ATOM     24  N   UNL     1       7.451  -4.602  27.129  0.00  0.00    -0.194 NA
ENDBRANCH  16  23
ENDBRANCH  13  16
ENDBRANCH   1  12
BRANCH   1  25
ATOM     25  C   UNL     1       8.800   0.044  25.132  0.00  0.00    +0.035 C 
BRANCH  25  26
ATOM     26  C   UNL     1      10.167  -0.010  24.408  0.00  0.00    -0.009 C 
ATOM     27  C   UNL     1      10.789   1.400  24.299  0.00  0.00    +0.003 C 
ATOM     28  C   UNL     1      10.117   2.286  23.249  0.00  0.00    +0.000 C 
ATOM     29  C   UNL     1      10.079   1.611  21.884  0.00  0.00    +0.000 C 
ATOM     30  C   UNL     1       9.452   0.222  21.956  0.00  0.00    +0.000 C 
ATOM     31  C   UNL     1      10.121  -0.655  23.012  0.00  0.00    +0.003 C 
ENDBRANCH  25  26
ENDBRANCH   1  25
TORSDOF 6
ENDMDL
MODEL 4
REMARK VINA RESULT:      -6.5      1.905      2.401
REMARK  Name = 
REMARK  7 active torsions:
REMARK  status: ('A' for Active; 'I' for Inactive)
REMARK    1  A    between atoms: C_2  and  C_3
REMARK    2  A    between atoms: C_2  and  N_10
REMARK    3  A    between atoms: C_2  and  C_19
REMARK    4  A    between atoms: C_3  and  C_4
REMARK    5  A    between atoms: N_21  and  C_22
REMARK    6  A    between atoms: C_22  and  C_29
REMARK    7  A    between atoms: N_25  and  C_26
REMARK                            x       y       z     vdW  Elec       q    Type
REMARK                         _______ _______ _______ _____ _____    ______ ____
ROOT
ATOM      1  C   UNL     1       7.608  -0.574  23.744  0.00  0.00    +0.161 C 
ENDROOT
BRANCH   1   2
ATOM      2  N   UNL     1       6.606   0.362  24.341  0.00  0.00    -0.288 N 
ATOM      3  H   UNL     1       5.967  -0.085  24.978  0.00  0.00    +0.151 HD
ATOM      4  C   UNL     1       6.103   1.427  23.650  0.00  0.00    +0.303 C 
ATOM      5  N   UNL     1       5.088   2.130  24.251  0.00  0.00    -0.281 N 
ATOM      6  C   UNL     1       4.436   3.220  23.511  0.00  0.00    +0.137 C 
ATOM      7  C   UNL     1       4.411   4.502  24.348  0.00  0.00    +0.179 C 
ATOM      8  O   UNL     1       3.783   4.269  25.619  0.00  0.00    -0.377 OA
ATOM      9  C   UNL     1       4.496   3.267  26.359  0.00  0.00    +0.179 C 
ATOM     10  C   UNL     1       4.537   1.936  25.598  0.00  0.00    +0.137 C 
ATOM     11  O   UNL     1       6.489   1.666  22.509  0.00  0.00    -0.253 OA
ENDBRANCH   1   2
BRANCH   1  12
ATOM     12  C   UNL     1       6.922  -1.990  23.577  0.00  0.00    +0.235 C 
ATOM     13  N   UNL     1       7.491  -2.929  24.398  0.00  0.00    -0.296 N 
ATOM     14  H   UNL     1       7.956  -2.503  25.195  0.00  0.00    +0.150 HD
ATOM     15  O   UNL     1       5.947  -2.217  22.873  0.00  0.00    -0.274 OA
BRANCH  13  16
ATOM     16  C   UNL     1       7.292  -4.381  24.581  0.00  0.00    +0.124 C 
ATOM     17  C   UNL     1       5.919  -4.504  25.272  0.00  0.00    +0.056 C 
ATOM     18  C   UNL     1       6.022  -3.984  26.705  0.00  0.00    +0.087 C 
ATOM     19  N   UNL     1       6.918  -4.780  27.533  0.00  0.00    -0.305 NA
ATOM     20  C   UNL     1       6.256  -5.941  28.114  0.00  0.00    +0.104 C 
ATOM     21  C   UNL     1       8.227  -5.041  26.929  0.00  0.00    +0.087 C 
ATOM     22  C   UNL     1       8.296  -5.203  25.408  0.00  0.00    +0.056 C 
BRANCH  16  23
ATOM     23  C   UNL     1       7.210  -4.992  23.229  0.00  0.00    +0.088 C 
ATOM     24  N   UNL     1       7.139  -5.455  22.158  0.00  0.00    -0.194 NA
ENDBRANCH  16  23
ENDBRANCH  13  16
ENDBRANCH   1  12
BRANCH   1  25
ATOM     25  C   UNL     1       8.858  -0.547  24.643  0.00  0.00    +0.035 C 
BRANCH  25  26
ATOM     26  C   UNL     1      10.237  -0.395  23.956  0.00  0.00    -0.009 C 
ATOM     27  C   UNL     1      10.884   0.961  24.314  0.00  0.00    +0.003 C 
ATOM     28  C   UNL     1      10.246   2.153  23.597  0.00  0.00    +0.000 C 
ATOM     29  C   UNL     1      10.221   1.953  22.087  0.00  0.00    +0.000 C 
ATOM     30  C   UNL     1       9.569   0.628  21.701  0.00  0.00    +0.000 C 
ATOM     31  C   UNL     1      10.205  -0.556  22.427  0.00  0.00    +0.003 C 
ENDBRANCH  25  26
ENDBRANCH   1  25
TORSDOF 6
ENDMDL
MODEL 5
REMARK VINA RESULT:      -6.5      2.864      6.864
REMARK  Name = 
REMARK  7 active torsions:
REMARK  status: ('A' for Active; 'I' for Inactive)
REMARK    1  A    between atoms: C_2  and  C_3
REMARK    2  A    between atoms: C_2  and  N_10
REMARK    3  A    between atoms: C_2  and  C_19
REMARK    4  A    between atoms: C_3  and  C_4
REMARK    5  A    between atoms: N_21  and  C_22
REMARK    6  A    between atoms: C_22  and  C_29
REMARK    7  A    between atoms: N_25  and  C_26
REMARK                            x       y       z     vdW  Elec       q    Type
REMARK                         _______ _______ _______ _____ _____    ______ ____
ROOT
ATOM      1  C   UNL     1       6.582  -0.437  24.444  0.00  0.00    +0.161 C 
ENDROOT
BRANCH   1   2
ATOM      2  N   UNL     1       5.720  -1.656  24.352  0.00  0.00    -0.288 N 
ATOM      3  H   UNL     1       4.734  -1.453  24.375  0.00  0.00    +0.151 HD
ATOM      4  C   UNL     1       6.090  -2.852  24.898  0.00  0.00    +0.303 C 
ATOM      5  N   UNL     1       5.156  -3.858  24.872  0.00  0.00    -0.281 N 
ATOM      6  C   UNL     1       5.459  -5.133  25.538  0.00  0.00    +0.137 C 
ATOM      7  C   UNL     1       5.222  -6.309  24.585  0.00  0.00    +0.179 C 
ATOM      8  O   UNL     1       3.882  -6.283  24.066  0.00  0.00    -0.377 OA
ATOM      9  C   UNL     1       3.644  -5.067  23.342  0.00  0.00    +0.179 C 
ATOM     10  C   UNL     1       3.831  -3.838  24.239  0.00  0.00    +0.137 C 
ATOM     11  O   UNL     1       7.174  -2.969  25.462  0.00  0.00    -0.253 OA
ENDBRANCH   1   2
BRANCH   1  12
ATOM     12  C   UNL     1       5.645   0.811  24.702  0.00  0.00    +0.235 C 
ATOM     13  N   UNL     1       5.828   1.787  23.756  0.00  0.00    -0.296 N 
ATOM     14  H   UNL     1       6.217   1.410  22.895  0.00  0.00    +0.150 HD
ATOM     15  O   UNL     1       4.795   0.881  25.579  0.00  0.00    -0.274 OA
BRANCH  13  16
ATOM     16  C   UNL     1       5.284   3.148  23.572  0.00  0.00    +0.124 C 
ATOM     17  C   UNL     1       5.765   3.575  22.171  0.00  0.00    +0.056 C 
ATOM     18  C   UNL     1       7.275   3.805  22.197  0.00  0.00    +0.087 C 
ATOM     19  N   UNL     1       7.665   4.907  23.066  0.00  0.00    -0.305 NA
ATOM     20  C   UNL     1       7.586   6.200  22.397  0.00  0.00    +0.104 C 
ATOM     21  C   UNL     1       7.074   4.858  24.407  0.00  0.00    +0.087 C 
ATOM     22  C   UNL     1       5.666   4.273  24.550  0.00  0.00    +0.056 C 
BRANCH  16  23
ATOM     23  C   UNL     1       3.803   3.037  23.564  0.00  0.00    +0.088 C 
ATOM     24  N   UNL     1       2.639   2.931  23.549  0.00  0.00    -0.194 NA
ENDBRANCH  16  23
ENDBRANCH  13  16
ENDBRANCH   1  12
BRANCH   1  25
ATOM     25  C   UNL     1       7.430  -0.374  23.161  0.00  0.00    +0.035 C 
BRANCH  25  26
ATOM     26  C   UNL     1       8.958  -0.582  23.296  0.00  0.00    -0.009 C 
ATOM     27  C   UNL     1       9.500   0.123  24.559  0.00  0.00    +0.003 C 
ATOM     28  C   UNL     1       9.584   1.644  24.424  0.00  0.00    +0.000 C 
ATOM     29  C   UNL     1      10.386   2.056  23.195  0.00  0.00    +0.000 C 
ATOM     30  C   UNL     1       9.861   1.389  21.926  0.00  0.00    +0.000 C 
ATOM     31  C   UNL     1       9.772  -0.129  22.072  0.00  0.00    +0.003 C 
ENDBRANCH  25  26
ENDBRANCH   1  25
TORSDOF 6
ENDMDL
MODEL 6
REMARK VINA RESULT:      -6.2      1.886      2.666
REMARK  Name = 
REMARK  7 active torsions:
REMARK  status: ('A' for Active; 'I' for Inactive)
REMARK    1  A    between atoms: C_2  and  C_3
REMARK    2  A    between atoms: C_2  and  N_10
REMARK    3  A    between atoms: C_2  and  C_19
REMARK    4  A    between atoms: C_3  and  C_4
REMARK    5  A    between atoms: N_21  and  C_22
REMARK    6  A    between atoms: C_22  and  C_29
REMARK    7  A    between atoms: N_25  and  C_26
REMARK                            x       y       z     vdW  Elec       q    Type
REMARK                         _______ _______ _______ _____ _____    ______ ____
ROOT
ATOM      1  C   UNL     1       7.601  -0.577  25.295  0.00  0.00    +0.161 C 
ENDROOT
BRANCH   1   2
ATOM      2  N   UNL     1       6.645   0.019  26.279  0.00  0.00    -0.288 N 
ATOM      3  H   UNL     1       7.030   0.118  27.204  0.00  0.00    +0.151 HD
ATOM      4  C   UNL     1       5.300  -0.216  26.220  0.00  0.00    +0.303 C 
ATOM      5  N   UNL     1       4.543   0.269  27.259  0.00  0.00    -0.281 N 
ATOM      6  C   UNL     1       3.107  -0.043  27.304  0.00  0.00    +0.137 C 
ATOM      7  C   UNL     1       2.283   1.235  27.483  0.00  0.00    +0.179 C 
ATOM      8  O   UNL     1       2.709   1.958  28.649  0.00  0.00    -0.377 OA
ATOM      9  C   UNL     1       4.090   2.331  28.535  0.00  0.00    +0.179 C 
ATOM     10  C   UNL     1       4.990   1.098  28.385  0.00  0.00    +0.137 C 
ATOM     11  O   UNL     1       4.829  -0.909  25.324  0.00  0.00    -0.253 OA
ENDBRANCH   1   2
BRANCH   1  12
ATOM     12  C   UNL     1       7.732  -2.122  25.607  0.00  0.00    +0.235 C 
ATOM     13  N   UNL     1       7.175  -2.889  24.616  0.00  0.00    -0.296 N 
ATOM     14  H   UNL     1       7.128  -2.388  23.732  0.00  0.00    +0.150 HD
ATOM     15  O   UNL     1       8.328  -2.596  26.565  0.00  0.00    -0.274 OA
BRANCH  13  16
ATOM     16  C   UNL     1       6.961  -4.341  24.446  0.00  0.00    +0.124 C 
ATOM     17  C   UNL     1       6.370  -4.485  23.029  0.00  0.00    +0.056 C 
ATOM     18  C   UNL     1       4.950  -3.919  23.008  0.00  0.00    +0.087 C 
ATOM     19  N   UNL     1       4.033  -4.661  23.861  0.00  0.00    -0.305 NA
ATOM     20  C   UNL     1       3.466  -5.824  23.191  0.00  0.00    +0.104 C 
ATOM     21  C   UNL     1       4.529  -4.899  25.220  0.00  0.00    +0.087 C 
ATOM     22  C   UNL     1       6.034  -5.105  25.408  0.00  0.00    +0.056 C 
BRANCH  16  23
ATOM     23  C   UNL     1       8.294  -4.994  24.484  0.00  0.00    +0.088 C 
ATOM     24  N   UNL     1       9.351  -5.492  24.506  0.00  0.00    -0.194 NA
ENDBRANCH  16  23
ENDBRANCH  13  16
ENDBRANCH   1  12
BRANCH   1  25
ATOM     25  C   UNL     1       8.910   0.229  25.378  0.00  0.00    +0.035 C 
BRANCH  25  26
ATOM     26  C   UNL     1      10.044  -0.134  24.390  0.00  0.00    -0.009 C 
ATOM     27  C   UNL     1      11.073   1.014  24.286  0.00  0.00    +0.003 C 
ATOM     28  C   UNL     1      10.572   2.214  23.479  0.00  0.00    +0.000 C 
ATOM     29  C   UNL     1      10.089   1.799  22.095  0.00  0.00    +0.000 C 
ATOM     30  C   UNL     1       9.057   0.678  22.166  0.00  0.00    +0.000 C 
ATOM     31  C   UNL     1       9.560  -0.513  22.980  0.00  0.00    +0.003 C 
ENDBRANCH  25  26
ENDBRANCH   1  25
TORSDOF 6
ENDMDL
MODEL 7
REMARK VINA RESULT:      -6.2      2.319      5.953
REMARK  Name = 
REMARK  7 active torsions:
REMARK  status: ('A' for Active; 'I' for Inactive)
REMARK    1  A    between atoms: C_2  and  C_3
REMARK    2  A    between atoms: C_2  and  N_10
REMARK    3  A    between atoms: C_2  and  C_19
REMARK    4  A    between atoms: C_3  and  C_4
REMARK    5  A    between atoms: N_21  and  C_22
REMARK    6  A    between atoms: C_22  and  C_29
REMARK    7  A    between atoms: N_25  and  C_26
REMARK                            x       y       z     vdW  Elec       q    Type
REMARK                         _______ _______ _______ _____ _____    ______ ____
ROOT
ATOM      1  C   UNL     1       8.652  -1.042  25.857  0.00  0.00    +0.161 C 
ENDROOT
BRANCH   1   2
ATOM      2  N   UNL     1       8.231  -2.431  26.221  0.00  0.00    -0.288 N 
ATOM      3  H   UNL     1       9.001  -3.035  26.459  0.00  0.00    +0.151 HD
ATOM      4  C   UNL     1       7.158  -3.042  25.638  0.00  0.00    +0.303 C 
ATOM      5  N   UNL     1       6.955  -4.364  25.950  0.00  0.00    -0.281 N 
ATOM      6  C   UNL     1       5.881  -5.103  25.272  0.00  0.00    +0.137 C 
ATOM      7  C   UNL     1       4.981  -5.805  26.293  0.00  0.00    +0.179 C 
ATOM      8  O   UNL     1       5.755  -6.658  27.154  0.00  0.00    -0.377 OA
ATOM      9  C   UNL     1       6.734  -5.894  27.873  0.00  0.00    +0.179 C 
ATOM     10  C   UNL     1       7.699  -5.183  26.916  0.00  0.00    +0.137 C 
ATOM     11  O   UNL     1       6.480  -2.446  24.806  0.00  0.00    -0.253 OA
ENDBRANCH   1   2
BRANCH   1  12
ATOM     12  C   UNL     1       7.619  -0.030  26.498  0.00  0.00    +0.235 C 
ATOM     13  N   UNL     1       6.844   0.576  25.543  0.00  0.00    -0.296 N 
ATOM     14  H   UNL     1       6.798   0.027  24.689  0.00  0.00    +0.150 HD
ATOM     15  O   UNL     1       7.457   0.140  27.699  0.00  0.00    -0.274 OA
BRANCH  13  16
ATOM     16  C   UNL     1       5.809   1.630  25.584  0.00  0.00    +0.124 C 
ATOM     17  C   UNL     1       5.502   1.934  24.104  0.00  0.00    +0.056 C 
ATOM     18  C   UNL     1       6.697   2.645  23.471  0.00  0.00    +0.087 C 
ATOM     19  N   UNL     1       6.958   3.950  24.063  0.00  0.00    -0.305 NA
ATOM     20  C   UNL     1       6.148   5.005  23.466  0.00  0.00    +0.104 C 
ATOM     21  C   UNL     1       7.008   3.950  25.528  0.00  0.00    +0.087 C 
ATOM     22  C   UNL     1       6.098   2.973  26.277  0.00  0.00    +0.056 C 
BRANCH  16  23
ATOM     23  C   UNL     1       4.601   1.042  26.219  0.00  0.00    +0.088 C 
ATOM     24  N   UNL     1       3.643   0.579  26.700  0.00  0.00    -0.194 NA
ENDBRANCH  16  23
ENDBRANCH  13  16
ENDBRANCH   1  12
BRANCH   1  25
ATOM     25  C   UNL     1       8.771  -0.984  24.323  0.00  0.00    +0.035 C 
BRANCH  25  26
ATOM     26  C   UNL     1      10.165  -0.688  23.720  0.00  0.00    -0.009 C 
ATOM     27  C   UNL     1      10.813   0.537  24.403  0.00  0.00    +0.003 C 
ATOM     28  C   UNL     1      10.198   1.871  23.977  0.00  0.00    +0.000 C 
ATOM     29  C   UNL     1      10.205   2.036  22.462  0.00  0.00    +0.000 C 
ATOM     30  C   UNL     1       9.554   0.848  21.760  0.00  0.00    +0.000 C 
ATOM     31  C   UNL     1      10.167  -0.481  22.196  0.00  0.00    +0.003 C 
ENDBRANCH  25  26
ENDBRANCH   1  25
TORSDOF 6
ENDMDL
MODEL 8
REMARK VINA RESULT:      -6.2      1.874      3.485
REMARK  Name = 
REMARK  7 active torsions:
REMARK  status: ('A' for Active; 'I' for Inactive)
REMARK    1  A    between atoms: C_2  and  C_3
REMARK    2  A    between atoms: C_2  and  N_10
REMARK    3  A    between atoms: C_2  and  C_19
REMARK    4  A    between atoms: C_3  and  C_4
REMARK    5  A    between atoms: N_21  and  C_22
REMARK    6  A    between atoms: C_22  and  C_29
REMARK    7  A    between atoms: N_25  and  C_26
REMARK                            x       y       z     vdW  Elec       q    Type
REMARK                         _______ _______ _______ _____ _____    ______ ____
ROOT
ATOM      1  C   UNL     1       5.920  -0.111  24.688  0.00  0.00    +0.161 C 
ENDROOT
BRANCH   1   2
ATOM      2  N   UNL     1       6.104   0.443  26.065  0.00  0.00    -0.288 N 
ATOM      3  H   UNL     1       6.733  -0.098  26.636  0.00  0.00    +0.151 HD
ATOM      4  C   UNL     1       5.098   1.079  26.735  0.00  0.00    +0.303 C 
ATOM      5  N   UNL     1       5.344   1.418  28.043  0.00  0.00    -0.281 N 
ATOM      6  C   UNL     1       4.262   2.008  28.845  0.00  0.00    +0.137 C 
ATOM      7  C   UNL     1       4.731   3.304  29.513  0.00  0.00    +0.179 C 
ATOM      8  O   UNL     1       5.913   3.074  30.297  0.00  0.00    -0.377 OA
ATOM      9  C   UNL     1       6.981   2.587  29.471  0.00  0.00    +0.179 C 
ATOM     10  C   UNL     1       6.600   1.268  28.789  0.00  0.00    +0.137 C 
ATOM     11  O   UNL     1       4.003   1.242  26.203  0.00  0.00    -0.253 OA
ENDBRANCH   1   2
BRANCH   1  12
ATOM     12  C   UNL     1       5.534  -1.640  24.820  0.00  0.00    +0.235 C 
ATOM     13  N   UNL     1       6.605  -2.457  24.563  0.00  0.00    -0.296 N 
ATOM     14  H   UNL     1       7.490  -1.977  24.707  0.00  0.00    +0.150 HD
ATOM     15  O   UNL     1       4.445  -2.059  25.188  0.00  0.00    -0.274 OA
BRANCH  13  16
ATOM     16  C   UNL     1       6.774  -3.922  24.473  0.00  0.00    +0.124 C 
ATOM     17  C   UNL     1       7.671  -4.136  23.238  0.00  0.00    +0.056 C 
ATOM     18  C   UNL     1       6.885  -3.798  21.971  0.00  0.00    +0.087 C 
ATOM     19  N   UNL     1       5.751  -4.687  21.755  0.00  0.00    -0.305 NA
ATOM     20  C   UNL     1       6.129  -5.914  21.067  0.00  0.00    +0.104 C 
ATOM     21  C   UNL     1       4.891  -4.864  22.928  0.00  0.00    +0.087 C 
ATOM     22  C   UNL     1       5.546  -4.835  24.311  0.00  0.00    +0.056 C 
BRANCH  16  23
ATOM     23  C   UNL     1       7.509  -4.360  25.687  0.00  0.00    +0.088 C 
ATOM     24  N   UNL     1       8.100  -4.689  26.640  0.00  0.00    -0.194 NA
ENDBRANCH  16  23
ENDBRANCH  13  16
ENDBRANCH   1  12
BRANCH   1  25
ATOM     25  C   UNL     1       7.208   0.181  23.897  0.00  0.00    +0.035 C 
BRANCH  25  26
ATOM     26  C   UNL     1       7.457   1.637  23.438  0.00  0.00    -0.009 C 
ATOM     27  C   UNL     1       7.676   1.703  21.910  0.00  0.00    +0.003 C 
ATOM     28  C   UNL     1       9.046   1.187  21.464  0.00  0.00    +0.000 C 
ATOM     29  C   UNL     1      10.179   1.893  22.199  0.00  0.00    +0.000 C 
ATOM     30  C   UNL     1      10.000   1.828  23.713  0.00  0.00    +0.000 C 
ATOM     31  C   UNL     1       8.627   2.337  24.150  0.00  0.00    +0.003 C 
ENDBRANCH  25  26
ENDBRANCH   1  25
TORSDOF 6
ENDMDL
MODEL 9
REMARK VINA RESULT:      -6.2      1.770      5.346
REMARK  Name = 
REMARK  7 active torsions:
REMARK  status: ('A' for Active; 'I' for Inactive)
REMARK    1  A    between atoms: C_2  and  C_3
REMARK    2  A    between atoms: C_2  and  N_10
REMARK    3  A    between atoms: C_2  and  C_19
REMARK    4  A    between atoms: C_3  and  C_4
REMARK    5  A    between atoms: N_21  and  C_22
REMARK    6  A    between atoms: C_22  and  C_29
REMARK    7  A    between atoms: N_25  and  C_26
REMARK                            x       y       z     vdW  Elec       q    Type
REMARK                         _______ _______ _______ _____ _____    ______ ____
ROOT
ATOM      1  C   UNL     1       6.986  -0.894  26.880  0.00  0.00    +0.161 C 
ENDROOT
BRANCH   1   2
ATOM      2  N   UNL     1       7.082  -0.338  25.495  0.00  0.00    -0.288 N 
ATOM      3  H   UNL     1       6.197  -0.291  25.018  0.00  0.00    +0.151 HD
ATOM      4  C   UNL     1       8.171  -0.554  24.699  0.00  0.00    +0.303 C 
ATOM      5  N   UNL     1       8.084  -0.113  23.401  0.00  0.00    -0.281 N 
ATOM      6  C   UNL     1       9.182  -0.411  22.469  0.00  0.00    +0.137 C 
ATOM      7  C   UNL     1       9.656   0.866  21.769  0.00  0.00    +0.179 C 
ATOM      8  O   UNL     1       8.561   1.524  21.112  0.00  0.00    -0.377 OA
ATOM      9  C   UNL     1       7.547   1.886  22.060  0.00  0.00    +0.179 C 
ATOM     10  C   UNL     1       6.994   0.652  22.783  0.00  0.00    +0.137 C 
ATOM     11  O   UNL     1       9.130  -1.196  25.118  0.00  0.00    -0.253 OA
ENDBRANCH   1   2
BRANCH   1  12
ATOM     12  C   UNL     1       6.282  -2.308  26.796  0.00  0.00    +0.235 C 
ATOM     13  N   UNL     1       7.119  -3.261  26.275  0.00  0.00    -0.296 N 
ATOM     14  H   UNL     1       8.098  -3.008  26.390  0.00  0.00    +0.150 HD
ATOM     15  O   UNL     1       5.161  -2.560  27.218  0.00  0.00    -0.274 OA
BRANCH  13  16
ATOM     16  C   UNL     1       6.951  -4.685  25.918  0.00  0.00    +0.124 C 
ATOM     17  C   UNL     1       8.179  -5.017  25.048  0.00  0.00    +0.056 C 
ATOM     18  C   UNL     1       8.060  -4.304  23.701  0.00  0.00    +0.087 C 
ATOM     19  N   UNL     1       6.923  -4.765  22.916  0.00  0.00    -0.305 NA
ATOM     20  C   UNL     1       7.231  -5.957  22.137  0.00  0.00    +0.104 C 
ATOM     21  C   UNL     1       5.656  -4.806  23.652  0.00  0.00    +0.087 C 
ATOM     22  C   UNL     1       5.703  -5.147  25.144  0.00  0.00    +0.056 C 
BRANCH  16  23
ATOM     23  C   UNL     1       7.021  -5.471  27.176  0.00  0.00    +0.088 C 
ATOM     24  N   UNL     1       7.085  -6.073  28.175  0.00  0.00    -0.194 NA
ENDBRANCH  16  23
ENDBRANCH  13  16
ENDBRANCH   1  12
BRANCH   1  25
ATOM     25  C   UNL     1       6.264   0.154  27.748  0.00  0.00    +0.035 C 
BRANCH  25  26
ATOM     26  C   UNL     1       7.097   1.344  28.281  0.00  0.00    -0.009 C 
ATOM     27  C   UNL     1       7.002   1.437  29.820  0.00  0.00    +0.003 C 
ATOM     28  C   UNL     1       5.662   1.979  30.320  0.00  0.00    +0.000 C 
ATOM     29  C   UNL     1       5.323   3.320  29.680  0.00  0.00    +0.000 C 
ATOM     30  C   UNL     1       5.390   3.254  28.156  0.00  0.00    +0.000 C 
ATOM     31  C   UNL     1       6.728   2.704  27.665  0.00  0.00    +0.003 C 
ENDBRANCH  25  26
ENDBRANCH   1  25
TORSDOF 6
ENDMDL
