MODEL 1
REMARK VINA RESULT:      -8.3      0.000      0.000
REMARK  Name = 
REMARK  13 active torsions:
REMARK  status: ('A' for Active; 'I' for Inactive)
REMARK    1  A    between atoms: C_11  and  C_13
REMARK    2  A    between atoms: C_13  and  N_14
REMARK    3  A    between atoms: N_14  and  C_15
REMARK    4  A    between atoms: C_18  and  C_21
REMARK    5  A    between atoms: N_23  and  CA_24
REMARK    6  A    between atoms: CA_24  and  CB_26
REMARK    7  A    between atoms: CA_24  and  C_31
REMARK    8  A    between atoms: CB_26  and  CG_27
REMARK    9  A    between atoms: CG_27  and  CD_28
REMARK   10  A    between atoms: CD_28  and  OE1_29
REMARK   11  A    between atoms: C_31  and  O_32
REMARK   12  A    between atoms: N_34  and  C_35
REMARK   13  A    between atoms: C_35  and  O_36
REMARK                            x       y       z     vdW  Elec       q    Type
REMARK                         _______ _______ _______ _____ _____    ______ ____
ROOT
ATOM      1  N   UNK A   0       8.494  -1.819  22.251  0.00  0.00    -0.342 N 
ATOM      2  H   UNK A   0       9.375  -2.253  22.527  0.00  0.00    +0.146 HD
ENDROOT
BRANCH   1   3
ATOM      3  C   UNK A   0       8.432  -0.442  22.417  0.00  0.00    +0.027 A 
ATOM      4  C   UNK A   0       7.418   0.152  23.172  0.00  0.00    +0.023 A 
ATOM      5  C   UNK A   0       7.363   1.534  23.361  0.00  0.00    +0.015 A 
ATOM      6  C   UNK A   0       8.338   2.363  22.803  0.00  0.00    +0.037 A 
ATOM      7  C   UNK A   0       9.324   1.780  21.991  0.00  0.00    +0.015 A 
ATOM      8  C   UNK A   0       9.357   0.398  21.787  0.00  0.00    +0.023 A 
BRANCH   6   9
ATOM      9  C   UNK A   0       8.391   3.836  23.069  0.00  0.00    +0.245 C 
ATOM     10  N   GLU A   1       9.334   4.280  23.980  0.00  0.00    -0.298 N 
ATOM     11  H   GLU A   1      10.060   3.646  24.288  0.00  0.00    +0.150 HD
ATOM     12  O   UNK A   0       7.672   4.610  22.448  0.00  0.00    -0.270 OA
BRANCH  10  13
ATOM     13  CA  GLU A   1       9.647   5.710  24.150  0.00  0.00    +0.182 C 
BRANCH  13  14
ATOM     14  C   GLU A   1       9.200   6.137  25.560  0.00  0.00    +0.325 C 
ATOM     15  OXT GLU A   1       9.948   6.420  26.481  0.00  0.00    -0.249 OA
BRANCH  14  16
ATOM     16  O   GLU A   1       7.848   6.237  25.669  0.00  0.00    -0.479 OA
ATOM     17  H   GLU A   1       7.510   5.521  26.247  0.00  0.00    +0.295 HD
ENDBRANCH  14  16
ENDBRANCH  13  14
BRANCH  13  18
ATOM     18  CB  GLU A   1      11.143   5.985  23.955  0.00  0.00    +0.045 C 
BRANCH  18  19
ATOM     19  CG  GLU A   1      11.915   4.780  23.417  0.00  0.00    +0.123 C 
BRANCH  19  20
ATOM     20  CD  GLU A   1      13.144   5.193  22.646  0.00  0.00    +0.305 C 
ATOM     21  OE2 GLU A   1      13.145   5.672  21.523  0.00  0.00    -0.251 OA
BRANCH  20  22
ATOM     22  OE1 GLU A   1      14.281   5.008  23.358  0.00  0.00    -0.481 OA
ATOM     23  HE1 GLU A   1      14.137   4.967  24.322  0.00  0.00    +0.295 HD
ENDBRANCH  20  22
ENDBRANCH  19  20
ENDBRANCH  18  19
ENDBRANCH  13  18
ENDBRANCH  10  13
ENDBRANCH   6   9
ENDBRANCH   1   3
BRANCH   1  24
ATOM     24  C   UNK A   0       7.326  -2.639  22.610  0.00  0.00    +0.129 C 
BRANCH  24  34
ATOM     25  N   UNK A   0       4.081  -7.195  27.005  0.00  0.00    -0.329 N 
ATOM     26  H   UNK A   0       3.772  -8.030  26.519  0.00  0.00    +0.145 HD
ATOM     27  H   UNK A   0       4.247  -7.385  27.994  0.00  0.00    +0.145 HD
ATOM     28  C   UNK A   0       5.121  -6.542  26.444  0.00  0.00    +0.195 A 
ATOM     29  N   UNK A   0       5.070  -6.487  25.105  0.00  0.00    -0.311 N 
ATOM     30  H   UNK A   0       4.235  -6.748  24.607  0.00  0.00    +0.170 HD
ATOM     31  C   UNK A   0       5.989  -5.800  24.359  0.00  0.00    +0.160 A 
ATOM     32  N   UNK A   0       5.803  -5.761  22.991  0.00  0.00    -0.238 NA
ATOM     33  C   UNK A   0       6.596  -5.000  22.299  0.00  0.00    +0.110 C 
ATOM     34  C   UNK A   0       7.701  -4.121  22.835  0.00  0.00    +0.134 C 
ATOM     35  N   UNK A   0       7.977  -4.393  24.263  0.00  0.00    -0.291 N 
ATOM     36  C   UNK A   0       7.039  -5.187  24.975  0.00  0.00    +0.142 A 
ATOM     37  C   UNK A   0       7.062  -5.333  26.509  0.00  0.00    +0.298 A 
ATOM     38  O   UNK A   0       7.963  -4.797  27.151  0.00  0.00    -0.264 OA
ATOM     39  N   UNK A   0       6.054  -6.020  27.153  0.00  0.00    -0.176 NA
BRANCH  35  40
ATOM     40  C   UNK A   0       9.349  -4.082  24.644  0.00  0.00    +0.265 C 
BRANCH  40  41
ATOM     41  O   UNK A   0      10.099  -5.225  24.946  0.00  0.00    -0.377 OA
ATOM     42  H   UNK A   0       9.908  -5.427  25.883  0.00  0.00    +0.211 HD
ENDBRANCH  40  41
ENDBRANCH  35  40
ENDBRANCH  24  34
ENDBRANCH   1  24
TORSDOF 13
ENDMDL
MODEL 2
REMARK VINA RESULT:      -8.2      1.680      2.307
REMARK  Name = 
REMARK  13 active torsions:
REMARK  status: ('A' for Active; 'I' for Inactive)
REMARK    1  A    between atoms: C_11  and  C_13
REMARK    2  A    between atoms: C_13  and  N_14
REMARK    3  A    between atoms: N_14  and  C_15
REMARK    4  A    between atoms: C_18  and  C_21
REMARK    5  A    between atoms: N_23  and  CA_24
REMARK    6  A    between atoms: CA_24  and  CB_26
REMARK    7  A    between atoms: CA_24  and  C_31
REMARK    8  A    between atoms: CB_26  and  CG_27
REMARK    9  A    between atoms: CG_27  and  CD_28
REMARK   10  A    between atoms: CD_28  and  OE1_29
REMARK   11  A    between atoms: C_31  and  O_32
REMARK   12  A    between atoms: N_34  and  C_35
REMARK   13  A    between atoms: C_35  and  O_36
REMARK                            x       y       z     vdW  Elec       q    Type
REMARK                         _______ _______ _______ _____ _____    ______ ____
ROOT
ATOM      1  N   UNK A   0       9.652  -2.351  23.440  0.00  0.00    -0.342 N 
ATOM      2  H   UNK A   0      10.388  -2.930  23.844  0.00  0.00    +0.146 HD
ENDROOT
BRANCH   1   3
ATOM      3  C   UNK A   0       9.930  -0.992  23.381  0.00  0.00    +0.027 A 
ATOM      4  C   UNK A   0       9.855  -0.289  22.176  0.00  0.00    +0.023 A 
ATOM      5  C   UNK A   0      10.112   1.082  22.114  0.00  0.00    +0.015 A 
ATOM      6  C   UNK A   0      10.442   1.792  23.270  0.00  0.00    +0.037 A 
ATOM      7  C   UNK A   0      10.583   1.081  24.472  0.00  0.00    +0.015 A 
ATOM      8  C   UNK A   0      10.347  -0.295  24.521  0.00  0.00    +0.023 A 
BRANCH   6   9
ATOM      9  C   UNK A   0      10.616   3.280  23.279  0.00  0.00    +0.245 C 
ATOM     10  N   GLU A   1       9.466   4.050  23.321  0.00  0.00    -0.298 N 
ATOM     11  H   GLU A   1       8.581   3.604  23.527  0.00  0.00    +0.150 HD
ATOM     12  O   UNK A   0      11.734   3.779  23.318  0.00  0.00    -0.270 OA
BRANCH  10  13
ATOM     13  CA  GLU A   1       9.504   5.501  23.573  0.00  0.00    +0.182 C 
BRANCH  13  14
ATOM     14  C   GLU A   1       8.135   6.093  23.188  0.00  0.00    +0.325 C 
ATOM     15  OXT GLU A   1       7.250   6.392  23.974  0.00  0.00    -0.249 OA
BRANCH  14  16
ATOM     16  O   GLU A   1       8.024   6.320  21.852  0.00  0.00    -0.479 OA
ATOM     17  H   GLU A   1       7.078   6.415  21.611  0.00  0.00    +0.295 HD
ENDBRANCH  14  16
ENDBRANCH  13  14
BRANCH  13  18
ATOM     18  CB  GLU A   1       9.827   5.809  25.040  0.00  0.00    +0.045 C 
BRANCH  18  19
ATOM     19  CG  GLU A   1      10.612   7.108  25.226  0.00  0.00    +0.123 C 
BRANCH  19  20
ATOM     20  CD  GLU A   1      12.062   6.851  25.553  0.00  0.00    +0.305 C 
ATOM     21  OE2 GLU A   1      12.593   7.071  26.630  0.00  0.00    -0.251 OA
BRANCH  20  22
ATOM     22  OE1 GLU A   1      12.732   6.303  24.512  0.00  0.00    -0.481 OA
ATOM     23  HE1 GLU A   1      13.443   5.691  24.781  0.00  0.00    +0.295 HD
ENDBRANCH  20  22
ENDBRANCH  19  20
ENDBRANCH  18  19
ENDBRANCH  13  18
ENDBRANCH  10  13
ENDBRANCH   6   9
ENDBRANCH   1   3
BRANCH   1  24
ATOM     24  C   UNK A   0       8.306  -2.792  23.838  0.00  0.00    +0.129 C 
BRANCH  24  34
ATOM     25  N   UNK A   0       2.941  -6.513  26.663  0.00  0.00    -0.329 N 
ATOM     26  H   UNK A   0       2.551  -7.173  25.998  0.00  0.00    +0.145 HD
ATOM     27  H   UNK A   0       2.792  -6.825  27.623  0.00  0.00    +0.145 HD
ATOM     28  C   UNK A   0       4.227  -6.158  26.450  0.00  0.00    +0.195 A 
ATOM     29  N   UNK A   0       4.534  -5.978  25.157  0.00  0.00    -0.311 N 
ATOM     30  H   UNK A   0       3.814  -5.934  24.454  0.00  0.00    +0.170 HD
ATOM     31  C   UNK A   0       5.762  -5.540  24.745  0.00  0.00    +0.160 A 
ATOM     32  N   UNK A   0       5.948  -5.333  23.392  0.00  0.00    -0.238 NA
ATOM     33  C   UNK A   0       7.066  -4.790  23.015  0.00  0.00    +0.110 C 
ATOM     34  C   UNK A   0       8.195  -4.332  23.909  0.00  0.00    +0.134 C 
ATOM     35  N   UNK A   0       8.014  -4.793  25.304  0.00  0.00    -0.291 N 
ATOM     36  C   UNK A   0       6.747  -5.324  25.663  0.00  0.00    +0.142 A 
ATOM     37  C   UNK A   0       6.340  -5.598  27.123  0.00  0.00    +0.298 A 
ATOM     38  O   UNK A   0       7.158  -5.413  28.021  0.00  0.00    -0.264 OA
ATOM     39  N   UNK A   0       5.054  -6.002  27.418  0.00  0.00    -0.176 NA
BRANCH  35  40
ATOM     40  C   UNK A   0       9.276  -4.941  26.019  0.00  0.00    +0.265 C 
BRANCH  40  41
ATOM     41  O   UNK A   0      10.243  -5.626  25.273  0.00  0.00    -0.377 OA
ATOM     42  H   UNK A   0      10.873  -5.988  25.926  0.00  0.00    +0.211 HD
ENDBRANCH  40  41
ENDBRANCH  35  40
ENDBRANCH  24  34
ENDBRANCH   1  24
TORSDOF 13
ENDMDL
MODEL 3
REMARK VINA RESULT:      -7.8      3.831      8.362
REMARK  Name = 
REMARK  13 active torsions:
REMARK  status: ('A' for Active; 'I' for Inactive)
REMARK    1  A    between atoms: C_11  and  C_13
REMARK    2  A    between atoms: C_13  and  N_14
REMARK    3  A    between atoms: N_14  and  C_15
REMARK    4  A    between atoms: C_18  and  C_21
REMARK    5  A    between atoms: N_23  and  CA_24
REMARK    6  A    between atoms: CA_24  and  CB_26
REMARK    7  A    between atoms: CA_24  and  C_31
REMARK    8  A    between atoms: CB_26  and  CG_27
REMARK    9  A    between atoms: CG_27  and  CD_28
REMARK   10  A    between atoms: CD_28  and  OE1_29
REMARK   11  A    between atoms: C_31  and  O_32
REMARK   12  A    between atoms: N_34  and  C_35
REMARK   13  A    between atoms: C_35  and  O_36
REMARK                            x       y       z     vdW  Elec       q    Type
REMARK                         _______ _______ _______ _____ _____    ______ ____
ROOT
ATOM      1  N   UNK A   0       9.222   3.803  23.156  0.00  0.00    -0.342 N 
ATOM      2  H   UNK A   0      10.020   4.352  22.836  0.00  0.00    +0.146 HD
ENDROOT
BRANCH   1   3
ATOM      3  C   UNK A   0       9.438   2.433  23.240  0.00  0.00    +0.027 A 
ATOM      4  C   UNK A   0       9.988   1.857  24.388  0.00  0.00    +0.023 A 
ATOM      5  C   UNK A   0      10.188   0.479  24.487  0.00  0.00    +0.015 A 
ATOM      6  C   UNK A   0       9.827  -0.365  23.436  0.00  0.00    +0.037 A 
ATOM      7  C   UNK A   0       9.334   0.213  22.255  0.00  0.00    +0.015 A 
ATOM      8  C   UNK A   0       9.160   1.596  22.155  0.00  0.00    +0.023 A 
BRANCH   6   9
ATOM      9  C   UNK A   0       9.914  -1.858  23.534  0.00  0.00    +0.245 C 
ATOM     10  N   GLU A   1       8.905  -2.504  24.228  0.00  0.00    -0.298 N 
ATOM     11  H   GLU A   1       8.069  -1.990  24.476  0.00  0.00    +0.150 HD
ATOM     12  O   UNK A   0      10.807  -2.472  22.963  0.00  0.00    -0.270 OA
BRANCH  10  13
ATOM     13  CA  GLU A   1       8.746  -3.969  24.194  0.00  0.00    +0.182 C 
BRANCH  13  14
ATOM     14  C   GLU A   1       9.314  -4.545  25.504  0.00  0.00    +0.325 C 
ATOM     15  OXT GLU A   1       9.004  -4.182  26.627  0.00  0.00    -0.249 OA
BRANCH  14  16
ATOM     16  O   GLU A   1      10.175  -5.576  25.289  0.00  0.00    -0.479 OA
ATOM     17  H   GLU A   1      10.640  -5.445  24.436  0.00  0.00    +0.295 HD
ENDBRANCH  14  16
ENDBRANCH  13  14
BRANCH  13  18
ATOM     18  CB  GLU A   1       7.276  -4.371  24.025  0.00  0.00    +0.045 C 
BRANCH  18  19
ATOM     19  CG  GLU A   1       6.304  -3.208  24.225  0.00  0.00    +0.123 C 
BRANCH  19  20
ATOM     20  CD  GLU A   1       5.882  -2.590  22.915  0.00  0.00    +0.305 C 
ATOM     21  OE2 GLU A   1       5.281  -3.167  22.023  0.00  0.00    -0.251 OA
BRANCH  20  22
ATOM     22  OE1 GLU A   1       6.217  -1.281  22.835  0.00  0.00    -0.481 OA
ATOM     23  HE1 GLU A   1       6.811  -1.073  22.089  0.00  0.00    +0.295 HD
ENDBRANCH  20  22
ENDBRANCH  19  20
ENDBRANCH  18  19
ENDBRANCH  13  18
ENDBRANCH  10  13
ENDBRANCH   6   9
ENDBRANCH   1   3
BRANCH   1  24
ATOM     24  C   UNK A   0       7.946   4.296  22.615  0.00  0.00    +0.129 C 
BRANCH  24  34
ATOM     25  N   UNK A   0       7.406   0.913  28.849  0.00  0.00    -0.329 N 
ATOM     26  H   UNK A   0       7.449   1.558  29.631  0.00  0.00    +0.145 HD
ATOM     27  H   UNK A   0       6.889   0.068  29.095  0.00  0.00    +0.145 HD
ATOM     28  C   UNK A   0       6.975   1.436  27.681  0.00  0.00    +0.195 A 
ATOM     29  N   UNK A   0       7.440   2.669  27.433  0.00  0.00    -0.311 N 
ATOM     30  H   UNK A   0       8.184   3.064  27.986  0.00  0.00    +0.170 HD
ATOM     31  C   UNK A   0       7.182   3.334  26.266  0.00  0.00    +0.160 A 
ATOM     32  N   UNK A   0       7.763   4.576  26.093  0.00  0.00    -0.238 NA
ATOM     33  C   UNK A   0       7.628   5.146  24.934  0.00  0.00    +0.110 C 
ATOM     34  C   UNK A   0       6.913   4.584  23.728  0.00  0.00    +0.134 C 
ATOM     35  N   UNK A   0       6.136   3.371  24.065  0.00  0.00    -0.291 N 
ATOM     36  C   UNK A   0       6.374   2.764  25.326  0.00  0.00    +0.142 A 
ATOM     37  C   UNK A   0       5.835   1.370  25.699  0.00  0.00    +0.298 A 
ATOM     38  O   UNK A   0       5.113   0.772  24.905  0.00  0.00    -0.264 OA
ATOM     39  N   UNK A   0       6.199   0.785  26.894  0.00  0.00    -0.176 NA
BRANCH  35  40
ATOM     40  C   UNK A   0       4.993   3.168  23.183  0.00  0.00    +0.265 C 
BRANCH  40  41
ATOM     41  O   UNK A   0       5.206   2.147  22.248  0.00  0.00    -0.377 OA
ATOM     42  H   UNK A   0       4.414   1.576  22.296  0.00  0.00    +0.211 HD
ENDBRANCH  40  41
ENDBRANCH  35  40
ENDBRANCH  24  34
ENDBRANCH   1  24
TORSDOF 13
ENDMDL
MODEL 4
REMARK VINA RESULT:      -7.8      1.306      2.675
REMARK  Name = 
REMARK  13 active torsions:
REMARK  status: ('A' for Active; 'I' for Inactive)
REMARK    1  A    between atoms: C_11  and  C_13
REMARK    2  A    between atoms: C_13  and  N_14
REMARK    3  A    between atoms: N_14  and  C_15
REMARK    4  A    between atoms: C_18  and  C_21
REMARK    5  A    between atoms: N_23  and  CA_24
REMARK    6  A    between atoms: CA_24  and  CB_26
REMARK    7  A    between atoms: CA_24  and  C_31
REMARK    8  A    between atoms: CB_26  and  CG_27
REMARK    9  A    between atoms: CG_27  and  CD_28
REMARK   10  A    between atoms: CD_28  and  OE1_29
REMARK   11  A    between atoms: C_31  and  O_32
REMARK   12  A    between atoms: N_34  and  C_35
REMARK   13  A    between atoms: C_35  and  O_36
REMARK                            x       y       z     vdW  Elec       q    Type
REMARK                         _______ _______ _______ _____ _____    ______ ____
ROOT
ATOM      1  N   UNK A   0       8.831  -2.354  22.359  0.00  0.00    -0.342 N 
ATOM      2  H   UNK A   0       9.640  -2.976  22.351  0.00  0.00    +0.146 HD
ENDROOT
BRANCH   1   3
ATOM      3  C   UNK A   0       9.091  -1.046  22.748  0.00  0.00    +0.027 A 
ATOM      4  C   UNK A   0       8.612   0.037  22.008  0.00  0.00    +0.023 A 
ATOM      5  C   UNK A   0       8.851   1.354  22.404  0.00  0.00    +0.015 A 
ATOM      6  C   UNK A   0       9.571   1.621  23.569  0.00  0.00    +0.037 A 
ATOM      7  C   UNK A   0      10.110   0.539  24.284  0.00  0.00    +0.015 A 
ATOM      8  C   UNK A   0       9.887  -0.775  23.865  0.00  0.00    +0.023 A 
BRANCH   6   9
ATOM      9  C   UNK A   0       9.758   3.009  24.101  0.00  0.00    +0.245 C 
ATOM     10  N   GLU A   1      10.792   3.758  23.564  0.00  0.00    -0.298 N 
ATOM     11  H   GLU A   1      11.255   3.429  22.726  0.00  0.00    +0.150 HD
ATOM     12  O   UNK A   0       8.980   3.473  24.926  0.00  0.00    -0.270 OA
BRANCH  10  13
ATOM     13  CA  GLU A   1      10.931   5.201  23.825  0.00  0.00    +0.182 C 
BRANCH  13  14
ATOM     14  C   GLU A   1      12.423   5.567  23.722  0.00  0.00    +0.325 C 
ATOM     15  OXT GLU A   1      13.178   5.207  22.833  0.00  0.00    -0.249 OA
BRANCH  14  16
ATOM     16  O   GLU A   1      12.821   6.412  24.710  0.00  0.00    -0.479 OA
ATOM     17  H   GLU A   1      12.084   6.551  25.342  0.00  0.00    +0.295 HD
ENDBRANCH  14  16
ENDBRANCH  13  14
BRANCH  13  18
ATOM     18  CB  GLU A   1      10.105   6.034  22.837  0.00  0.00    +0.045 C 
BRANCH  18  19
ATOM     19  CG  GLU A   1       8.765   6.498  23.410  0.00  0.00    +0.123 C 
BRANCH  19  20
ATOM     20  CD  GLU A   1       7.596   5.947  22.632  0.00  0.00    +0.305 C 
ATOM     21  OE2 GLU A   1       6.551   6.538  22.415  0.00  0.00    -0.251 OA
BRANCH  20  22
ATOM     22  OE1 GLU A   1       7.841   4.705  22.152  0.00  0.00    -0.481 OA
ATOM     23  HE1 GLU A   1       8.679   4.320  22.471  0.00  0.00    +0.295 HD
ENDBRANCH  20  22
ENDBRANCH  19  20
ENDBRANCH  18  19
ENDBRANCH  13  18
ENDBRANCH  10  13
ENDBRANCH   6   9
ENDBRANCH   1   3
BRANCH   1  24
ATOM     24  C   UNK A   0       7.614  -3.021  22.849  0.00  0.00    +0.129 C 
BRANCH  24  34
ATOM     25  N   UNK A   0       3.633  -7.185  27.023  0.00  0.00    -0.329 N 
ATOM     26  H   UNK A   0       3.304  -8.008  26.528  0.00  0.00    +0.145 HD
ATOM     27  H   UNK A   0       3.693  -7.359  28.027  0.00  0.00    +0.145 HD
ATOM     28  C   UNK A   0       4.769  -6.631  26.546  0.00  0.00    +0.195 A 
ATOM     29  N   UNK A   0       4.843  -6.610  25.207  0.00  0.00    -0.311 N 
ATOM     30  H   UNK A   0       4.038  -6.820  24.640  0.00  0.00    +0.170 HD
ATOM     31  C   UNK A   0       5.877  -6.018  24.535  0.00  0.00    +0.160 A 
ATOM     32  N   UNK A   0       5.820  -6.004  23.155  0.00  0.00    -0.238 NA
ATOM     33  C   UNK A   0       6.730  -5.327  22.523  0.00  0.00    +0.110 C 
ATOM     34  C   UNK A   0       7.849  -4.521  23.140  0.00  0.00    +0.134 C 
ATOM     35  N   UNK A   0       7.971  -4.773  24.593  0.00  0.00    -0.291 N 
ATOM     36  C   UNK A   0       6.913  -5.470  25.232  0.00  0.00    +0.142 A 
ATOM     37  C   UNK A   0       6.786  -5.574  26.764  0.00  0.00    +0.298 A 
ATOM     38  O   UNK A   0       7.665  -5.092  27.475  0.00  0.00    -0.264 OA
ATOM     39  N   UNK A   0       5.672  -6.163  27.327  0.00  0.00    -0.176 NA
BRANCH  35  40
ATOM     40  C   UNK A   0       9.324  -4.558  25.092  0.00  0.00    +0.265 C 
BRANCH  40  41
ATOM     41  O   UNK A   0      10.098  -5.725  25.077  0.00  0.00    -0.377 OA
ATOM     42  H   UNK A   0       9.462  -6.464  25.143  0.00  0.00    +0.211 HD
ENDBRANCH  40  41
ENDBRANCH  35  40
ENDBRANCH  24  34
ENDBRANCH   1  24
TORSDOF 13
ENDMDL
MODEL 5
REMARK VINA RESULT:      -7.7      2.756      4.734
REMARK  Name = 
REMARK  13 active torsions:
REMARK  status: ('A' for Active; 'I' for Inactive)
REMARK    1  A    between atoms: C_11  and  C_13
REMARK    2  A    between atoms: C_13  and  N_14
REMARK    3  A    between atoms: N_14  and  C_15
REMARK    4  A    between atoms: C_18  and  C_21
REMARK    5  A    between atoms: N_23  and  CA_24
REMARK    6  A    between atoms: CA_24  and  CB_26
REMARK    7  A    between atoms: CA_24  and  C_31
REMARK    8  A    between atoms: CB_26  and  CG_27
REMARK    9  A    between atoms: CG_27  and  CD_28
REMARK   10  A    between atoms: CD_28  and  OE1_29
REMARK   11  A    between atoms: C_31  and  O_32
REMARK   12  A    between atoms: N_34  and  C_35
REMARK   13  A    between atoms: C_35  and  O_36
REMARK                            x       y       z     vdW  Elec       q    Type
REMARK                         _______ _______ _______ _____ _____    ______ ____
ROOT
ATOM      1  N   UNK A   0       4.518  -2.688  26.798  0.00  0.00    -0.342 N 
ATOM      2  H   UNK A   0       4.276  -2.378  27.739  0.00  0.00    +0.146 HD
ENDROOT
BRANCH   1   3
ATOM      3  C   UNK A   0       5.053  -1.710  25.969  0.00  0.00    +0.027 A 
ATOM      4  C   UNK A   0       4.953  -0.355  26.291  0.00  0.00    +0.023 A 
ATOM      5  C   UNK A   0       5.507   0.631  25.473  0.00  0.00    +0.015 A 
ATOM      6  C   UNK A   0       6.191   0.282  24.308  0.00  0.00    +0.037 A 
ATOM      7  C   UNK A   0       6.240  -1.074  23.944  0.00  0.00    +0.015 A 
ATOM      8  C   UNK A   0       5.661  -2.053  24.756  0.00  0.00    +0.023 A 
BRANCH   6   9
ATOM      9  C   UNK A   0       6.901   1.289  23.456  0.00  0.00    +0.245 C 
ATOM     10  N   GLU A   1       8.216   1.575  23.780  0.00  0.00    -0.298 N 
ATOM     11  H   GLU A   1       8.702   0.981  24.438  0.00  0.00    +0.150 HD
ATOM     12  O   UNK A   0       6.350   1.780  22.477  0.00  0.00    -0.270 OA
BRANCH  10  13
ATOM     13  CA  GLU A   1       9.089   2.359  22.888  0.00  0.00    +0.182 C 
BRANCH  13  14
ATOM     14  C   GLU A   1       9.771   3.457  23.725  0.00  0.00    +0.325 C 
ATOM     15  OXT GLU A   1      10.872   3.933  23.500  0.00  0.00    -0.249 OA
BRANCH  14  16
ATOM     16  O   GLU A   1       8.980   3.909  24.734  0.00  0.00    -0.479 OA
ATOM     17  H   GLU A   1       9.337   4.754  25.080  0.00  0.00    +0.295 HD
ENDBRANCH  14  16
ENDBRANCH  13  14
BRANCH  13  18
ATOM     18  CB  GLU A   1      10.139   1.473  22.208  0.00  0.00    +0.045 C 
BRANCH  18  19
ATOM     19  CG  GLU A   1      10.463   0.204  22.998  0.00  0.00    +0.123 C 
BRANCH  19  20
ATOM     20  CD  GLU A   1      10.159  -1.046  22.210  0.00  0.00    +0.305 C 
ATOM     21  OE2 GLU A   1      10.470  -2.180  22.537  0.00  0.00    -0.251 OA
BRANCH  20  22
ATOM     22  OE1 GLU A   1       9.454  -0.783  21.084  0.00  0.00    -0.481 OA
ATOM     23  HE1 GLU A   1       9.680   0.073  20.672  0.00  0.00    +0.295 HD
ENDBRANCH  20  22
ENDBRANCH  19  20
ENDBRANCH  18  19
ENDBRANCH  13  18
ENDBRANCH  10  13
ENDBRANCH   6   9
ENDBRANCH   1   3
BRANCH   1  24
ATOM     24  C   UNK A   0       3.539  -3.639  26.248  0.00  0.00    +0.129 C 
BRANCH  24  34
ATOM     25  N   UNK A   0      10.389  -5.464  25.646  0.00  0.00    -0.329 N 
ATOM     26  H   UNK A   0      10.675  -6.095  26.386  0.00  0.00    +0.145 HD
ATOM     27  H   UNK A   0      10.965  -5.587  24.812  0.00  0.00    +0.145 HD
ATOM     28  C   UNK A   0       9.072  -5.473  25.345  0.00  0.00    +0.195 A 
ATOM     29  N   UNK A   0       8.270  -5.565  26.416  0.00  0.00    -0.311 N 
ATOM     30  H   UNK A   0       8.634  -5.446  27.348  0.00  0.00    +0.170 HD
ATOM     31  C   UNK A   0       6.906  -5.509  26.324  0.00  0.00    +0.160 A 
ATOM     32  N   UNK A   0       6.182  -5.553  27.499  0.00  0.00    -0.238 NA
ATOM     33  C   UNK A   0       4.899  -5.365  27.422  0.00  0.00    +0.110 C 
ATOM     34  C   UNK A   0       4.102  -5.076  26.171  0.00  0.00    +0.134 C 
ATOM     35  N   UNK A   0       4.910  -5.271  24.947  0.00  0.00    -0.291 N 
ATOM     36  C   UNK A   0       6.314  -5.414  25.099  0.00  0.00    +0.142 A 
ATOM     37  C   UNK A   0       7.293  -5.364  23.911  0.00  0.00    +0.298 A 
ATOM     38  O   UNK A   0       6.850  -5.260  22.769  0.00  0.00    -0.264 OA
ATOM     39  N   UNK A   0       8.654  -5.389  24.135  0.00  0.00    -0.176 NA
BRANCH  35  40
ATOM     40  C   UNK A   0       4.101  -5.623  23.786  0.00  0.00    +0.265 C 
BRANCH  40  41
ATOM     41  O   UNK A   0       4.022  -4.586  22.848  0.00  0.00    -0.377 OA
ATOM     42  H   UNK A   0       3.084  -4.544  22.579  0.00  0.00    +0.211 HD
ENDBRANCH  40  41
ENDBRANCH  35  40
ENDBRANCH  24  34
ENDBRANCH   1  24
TORSDOF 13
ENDMDL
MODEL 6
REMARK VINA RESULT:      -7.7      1.883      2.368
REMARK  Name = 
REMARK  13 active torsions:
REMARK  status: ('A' for Active; 'I' for Inactive)
REMARK    1  A    between atoms: C_11  and  C_13
REMARK    2  A    between atoms: C_13  and  N_14
REMARK    3  A    between atoms: N_14  and  C_15
REMARK    4  A    between atoms: C_18  and  C_21
REMARK    5  A    between atoms: N_23  and  CA_24
REMARK    6  A    between atoms: CA_24  and  CB_26
REMARK    7  A    between atoms: CA_24  and  C_31
REMARK    8  A    between atoms: CB_26  and  CG_27
REMARK    9  A    between atoms: CG_27  and  CD_28
REMARK   10  A    between atoms: CD_28  and  OE1_29
REMARK   11  A    between atoms: C_31  and  O_32
REMARK   12  A    between atoms: N_34  and  C_35
REMARK   13  A    between atoms: C_35  and  O_36
REMARK                            x       y       z     vdW  Elec       q    Type
REMARK                         _______ _______ _______ _____ _____    ______ ____
ROOT
ATOM      1  N   UNK A   0      10.027  -2.372  23.774  0.00  0.00    -0.342 N 
ATOM      2  H   UNK A   0      10.847  -2.600  24.337  0.00  0.00    +0.146 HD
ENDROOT
BRANCH   1   3
ATOM      3  C   UNK A   0       9.699  -1.024  23.721  0.00  0.00    +0.027 A 
ATOM      4  C   UNK A   0       9.982  -0.167  24.787  0.00  0.00    +0.023 A 
ATOM      5  C   UNK A   0       9.674   1.193  24.731  0.00  0.00    +0.015 A 
ATOM      6  C   UNK A   0       9.082   1.737  23.591  0.00  0.00    +0.037 A 
ATOM      7  C   UNK A   0       8.737   0.872  22.540  0.00  0.00    +0.015 A 
ATOM      8  C   UNK A   0       9.026  -0.493  22.615  0.00  0.00    +0.023 A 
BRANCH   6   9
ATOM      9  C   UNK A   0       8.836   3.207  23.433  0.00  0.00    +0.245 C 
ATOM     10  N   GLU A   1       9.596   4.062  24.213  0.00  0.00    -0.298 N 
ATOM     11  H   GLU A   1      10.397   3.695  24.710  0.00  0.00    +0.150 HD
ATOM     12  O   UNK A   0       8.042   3.622  22.596  0.00  0.00    -0.270 OA
BRANCH  10  13
ATOM     13  CA  GLU A   1       9.620   5.517  23.984  0.00  0.00    +0.182 C 
BRANCH  13  14
ATOM     14  C   GLU A   1       9.231   6.218  25.298  0.00  0.00    +0.325 C 
ATOM     15  OXT GLU A   1       8.175   6.070  25.892  0.00  0.00    -0.249 OA
BRANCH  14  16
ATOM     16  O   GLU A   1      10.233   6.996  25.789  0.00  0.00    -0.479 OA
ATOM     17  H   GLU A   1      10.760   7.362  25.048  0.00  0.00    +0.295 HD
ENDBRANCH  14  16
ENDBRANCH  13  14
BRANCH  13  18
ATOM     18  CB  GLU A   1      11.001   5.989  23.512  0.00  0.00    +0.045 C 
BRANCH  18  19
ATOM     19  CG  GLU A   1      12.075   4.906  23.609  0.00  0.00    +0.123 C 
BRANCH  19  20
ATOM     20  CD  GLU A   1      13.247   5.189  22.702  0.00  0.00    +0.305 C 
ATOM     21  OE2 GLU A   1      13.170   5.608  21.558  0.00  0.00    -0.251 OA
BRANCH  20  22
ATOM     22  OE1 GLU A   1      14.434   4.957  23.311  0.00  0.00    -0.481 OA
ATOM     23  HE1 GLU A   1      14.529   4.048  23.652  0.00  0.00    +0.295 HD
ENDBRANCH  20  22
ENDBRANCH  19  20
ENDBRANCH  18  19
ENDBRANCH  13  18
ENDBRANCH  10  13
ENDBRANCH   6   9
ENDBRANCH   1   3
BRANCH   1  24
ATOM     24  C   UNK A   0       8.953  -3.368  23.915  0.00  0.00    +0.129 C 
BRANCH  24  34
ATOM     25  N   UNK A   0       3.747  -7.604  26.274  0.00  0.00    -0.329 N 
ATOM     26  H   UNK A   0       4.010  -8.079  27.132  0.00  0.00    +0.145 HD
ATOM     27  H   UNK A   0       2.734  -7.501  26.206  0.00  0.00    +0.145 HD
ATOM     28  C   UNK A   0       4.383  -6.437  26.034  0.00  0.00    +0.195 A 
ATOM     29  N   UNK A   0       5.686  -6.452  26.352  0.00  0.00    -0.311 N 
ATOM     30  H   UNK A   0       6.157  -7.315  26.567  0.00  0.00    +0.170 HD
ATOM     31  C   UNK A   0       6.517  -5.393  26.107  0.00  0.00    +0.160 A 
ATOM     32  N   UNK A   0       7.854  -5.542  26.421  0.00  0.00    -0.238 NA
ATOM     33  C   UNK A   0       8.664  -4.590  26.066  0.00  0.00    +0.110 C 
ATOM     34  C   UNK A   0       8.303  -3.329  25.316  0.00  0.00    +0.134 C 
ATOM     35  N   UNK A   0       6.838  -3.144  25.224  0.00  0.00    -0.291 N 
ATOM     36  C   UNK A   0       6.011  -4.245  25.573  0.00  0.00    +0.142 A 
ATOM     37  C   UNK A   0       4.499  -4.280  25.280  0.00  0.00    +0.298 A 
ATOM     38  O   UNK A   0       3.959  -3.296  24.781  0.00  0.00    -0.264 OA
ATOM     39  N   UNK A   0       3.772  -5.425  25.536  0.00  0.00    -0.176 NA
BRANCH  35  40
ATOM     40  C   UNK A   0       6.451  -1.744  25.105  0.00  0.00    +0.265 C 
BRANCH  40  41
ATOM     41  O   UNK A   0       5.881  -1.444  23.861  0.00  0.00    -0.377 OA
ATOM     42  H   UNK A   0       6.300  -2.056  23.224  0.00  0.00    +0.211 HD
ENDBRANCH  40  41
ENDBRANCH  35  40
ENDBRANCH  24  34
ENDBRANCH   1  24
TORSDOF 13
ENDMDL
MODEL 7
REMARK VINA RESULT:      -7.7      2.654     10.091
REMARK  Name = 
REMARK  13 active torsions:
REMARK  status: ('A' for Active; 'I' for Inactive)
REMARK    1  A    between atoms: C_11  and  C_13
REMARK    2  A    between atoms: C_13  and  N_14
REMARK    3  A    between atoms: N_14  and  C_15
REMARK    4  A    between atoms: C_18  and  C_21
REMARK    5  A    between atoms: N_23  and  CA_24
REMARK    6  A    between atoms: CA_24  and  CB_26
REMARK    7  A    between atoms: CA_24  and  C_31
REMARK    8  A    between atoms: CB_26  and  CG_27
REMARK    9  A    between atoms: CG_27  and  CD_28
REMARK   10  A    between atoms: CD_28  and  OE1_29
REMARK   11  A    between atoms: C_31  and  O_32
REMARK   12  A    between atoms: N_34  and  C_35
REMARK   13  A    between atoms: C_35  and  O_36
REMARK                            x       y       z     vdW  Elec       q    Type
REMARK                         _______ _______ _______ _____ _____    ______ ____
ROOT
ATOM      1  N   UNK A   0      10.026   0.417  21.991  0.00  0.00    -0.342 N 
ATOM      2  H   UNK A   0      10.796   0.369  21.324  0.00  0.00    +0.146 HD
ENDROOT
BRANCH   1   3
ATOM      3  C   UNK A   0       9.593  -0.807  22.486  0.00  0.00    +0.027 A 
ATOM      4  C   UNK A   0      10.164  -1.368  23.631  0.00  0.00    +0.023 A 
ATOM      5  C   UNK A   0       9.719  -2.587  24.146  0.00  0.00    +0.015 A 
ATOM      6  C   UNK A   0       8.672  -3.274  23.529  0.00  0.00    +0.037 A 
ATOM      7  C   UNK A   0       8.136  -2.748  22.343  0.00  0.00    +0.015 A 
ATOM      8  C   UNK A   0       8.605  -1.540  21.820  0.00  0.00    +0.023 A 
BRANCH   6   9
ATOM      9  C   UNK A   0       8.080  -4.525  24.103  0.00  0.00    +0.245 C 
ATOM     10  N   GLU A   1       7.229  -4.381  25.185  0.00  0.00    -0.298 N 
ATOM     11  H   GLU A   1       6.893  -3.459  25.430  0.00  0.00    +0.150 HD
ATOM     12  O   UNK A   0       8.296  -5.614  23.585  0.00  0.00    -0.270 OA
BRANCH  10  13
ATOM     13  CA  GLU A   1       6.404  -5.495  25.686  0.00  0.00    +0.182 C 
BRANCH  13  14
ATOM     14  C   GLU A   1       6.473  -5.493  27.224  0.00  0.00    +0.325 C 
ATOM     15  OXT GLU A   1       7.433  -5.850  27.887  0.00  0.00    -0.249 OA
BRANCH  14  16
ATOM     16  O   GLU A   1       5.351  -4.978  27.794  0.00  0.00    -0.479 OA
ATOM     17  H   GLU A   1       5.524  -4.774  28.737  0.00  0.00    +0.295 HD
ENDBRANCH  14  16
ENDBRANCH  13  14
BRANCH  13  18
ATOM     18  CB  GLU A   1       4.950  -5.374  25.214  0.00  0.00    +0.045 C 
BRANCH  18  19
ATOM     19  CG  GLU A   1       4.617  -6.293  24.038  0.00  0.00    +0.123 C 
BRANCH  19  20
ATOM     20  CD  GLU A   1       5.016  -5.687  22.715  0.00  0.00    +0.305 C 
ATOM     21  OE2 GLU A   1       4.694  -4.578  22.321  0.00  0.00    -0.251 OA
BRANCH  20  22
ATOM     22  OE1 GLU A   1       5.822  -6.506  22.000  0.00  0.00    -0.481 OA
ATOM     23  HE1 GLU A   1       5.400  -6.867  21.197  0.00  0.00    +0.295 HD
ENDBRANCH  20  22
ENDBRANCH  19  20
ENDBRANCH  18  19
ENDBRANCH  13  18
ENDBRANCH  10  13
ENDBRANCH   6   9
ENDBRANCH   1   3
BRANCH   1  24
ATOM     24  C   UNK A   0       9.031   1.439  21.631  0.00  0.00    +0.129 C 
BRANCH  24  34
ATOM     25  N   UNK A   0       4.735   7.108  21.790  0.00  0.00    -0.329 N 
ATOM     26  H   UNK A   0       3.824   6.877  22.172  0.00  0.00    +0.145 HD
ATOM     27  H   UNK A   0       4.955   8.094  21.930  0.00  0.00    +0.145 HD
ATOM     28  C   UNK A   0       5.753   6.312  22.184  0.00  0.00    +0.195 A 
ATOM     29  N   UNK A   0       5.430   5.012  22.256  0.00  0.00    -0.311 N 
ATOM     30  H   UNK A   0       4.566   4.670  21.868  0.00  0.00    +0.170 HD
ATOM     31  C   UNK A   0       6.345   4.041  22.558  0.00  0.00    +0.160 A 
ATOM     32  N   UNK A   0       5.914   2.728  22.546  0.00  0.00    -0.238 NA
ATOM     33  C   UNK A   0       6.810   1.800  22.699  0.00  0.00    +0.110 C 
ATOM     34  C   UNK A   0       8.298   2.000  22.870  0.00  0.00    +0.134 C 
ATOM     35  N   UNK A   0       8.640   3.421  23.099  0.00  0.00    -0.291 N 
ATOM     36  C   UNK A   0       7.629   4.389  22.857  0.00  0.00    +0.142 A 
ATOM     37  C   UNK A   0       7.916   5.902  22.804  0.00  0.00    +0.298 A 
ATOM     38  O   UNK A   0       9.052   6.307  23.041  0.00  0.00    -0.264 OA
ATOM     39  N   UNK A   0       6.917   6.783  22.447  0.00  0.00    -0.176 NA
BRANCH  35  40
ATOM     40  C   UNK A   0       9.870   3.591  23.862  0.00  0.00    +0.265 C 
BRANCH  40  41
ATOM     41  O   UNK A   0      10.949   3.992  23.065  0.00  0.00    -0.377 OA
ATOM     42  H   UNK A   0      10.678   4.838  22.659  0.00  0.00    +0.211 HD
ENDBRANCH  40  41
ENDBRANCH  35  40
ENDBRANCH  24  34
ENDBRANCH   1  24
TORSDOF 13
ENDMDL
MODEL 8
REMARK VINA RESULT:      -7.6      2.631      4.872
REMARK  Name = 
REMARK  13 active torsions:
REMARK  status: ('A' for Active; 'I' for Inactive)
REMARK    1  A    between atoms: C_11  and  C_13
REMARK    2  A    between atoms: C_13  and  N_14
REMARK    3  A    between atoms: N_14  and  C_15
REMARK    4  A    between atoms: C_18  and  C_21
REMARK    5  A    between atoms: N_23  and  CA_24
REMARK    6  A    between atoms: CA_24  and  CB_26
REMARK    7  A    between atoms: CA_24  and  C_31
REMARK    8  A    between atoms: CB_26  and  CG_27
REMARK    9  A    between atoms: CG_27  and  CD_28
REMARK   10  A    between atoms: CD_28  and  OE1_29
REMARK   11  A    between atoms: C_31  and  O_32
REMARK   12  A    between atoms: N_34  and  C_35
REMARK   13  A    between atoms: C_35  and  O_36
REMARK                            x       y       z     vdW  Elec       q    Type
REMARK                         _______ _______ _______ _____ _____    ______ ____
ROOT
ATOM      1  N   UNK A   0       4.136  -3.217  26.688  0.00  0.00    -0.342 N 
ATOM      2  H   UNK A   0       3.541  -2.761  27.380  0.00  0.00    +0.146 HD
ENDROOT
BRANCH   1   3
ATOM      3  C   UNK A   0       5.184  -2.444  26.205  0.00  0.00    +0.027 A 
ATOM      4  C   UNK A   0       6.272  -2.112  27.015  0.00  0.00    +0.023 A 
ATOM      5  C   UNK A   0       7.338  -1.353  26.529  0.00  0.00    +0.015 A 
ATOM      6  C   UNK A   0       7.348  -0.916  25.204  0.00  0.00    +0.037 A 
ATOM      7  C   UNK A   0       6.229  -1.191  24.402  0.00  0.00    +0.015 A 
ATOM      8  C   UNK A   0       5.154  -1.930  24.904  0.00  0.00    +0.023 A 
BRANCH   6   9
ATOM      9  C   UNK A   0       8.517  -0.199  24.600  0.00  0.00    +0.245 C 
ATOM     10  N   GLU A   1       8.275   1.043  24.039  0.00  0.00    -0.298 N 
ATOM     11  H   GLU A   1       7.388   1.499  24.214  0.00  0.00    +0.150 HD
ATOM     12  O   UNK A   0       9.645  -0.673  24.668  0.00  0.00    -0.270 OA
BRANCH  10  13
ATOM     13  CA  GLU A   1       9.367   1.944  23.631  0.00  0.00    +0.182 C 
BRANCH  13  14
ATOM     14  C   GLU A   1       9.607   1.759  22.122  0.00  0.00    +0.325 C 
ATOM     15  OXT GLU A   1       8.931   1.064  21.380  0.00  0.00    -0.249 OA
BRANCH  14  16
ATOM     16  O   GLU A   1      10.637   2.518  21.661  0.00  0.00    -0.479 OA
ATOM     17  H   GLU A   1      11.365   1.936  21.357  0.00  0.00    +0.295 HD
ENDBRANCH  14  16
ENDBRANCH  13  14
BRANCH  13  18
ATOM     18  CB  GLU A   1       9.035   3.408  23.945  0.00  0.00    +0.045 C 
BRANCH  18  19
ATOM     19  CG  GLU A   1       7.702   3.867  23.351  0.00  0.00    +0.123 C 
BRANCH  19  20
ATOM     20  CD  GLU A   1       7.819   5.207  22.667  0.00  0.00    +0.305 C 
ATOM     21  OE2 GLU A   1       6.905   5.801  22.117  0.00  0.00    -0.251 OA
BRANCH  20  22
ATOM     22  OE1 GLU A   1       9.069   5.719  22.756  0.00  0.00    -0.481 OA
ATOM     23  HE1 GLU A   1       9.605   5.586  21.951  0.00  0.00    +0.295 HD
ENDBRANCH  20  22
ENDBRANCH  19  20
ENDBRANCH  18  19
ENDBRANCH  13  18
ENDBRANCH  10  13
ENDBRANCH   6   9
ENDBRANCH   1   3
BRANCH   1  24
ATOM     24  C   UNK A   0       3.371  -4.056  25.752  0.00  0.00    +0.129 C 
BRANCH  24  34
ATOM     25  N   UNK A   0      10.357  -5.386  25.934  0.00  0.00    -0.329 N 
ATOM     26  H   UNK A   0      10.580  -6.135  26.582  0.00  0.00    +0.145 HD
ATOM     27  H   UNK A   0      11.058  -5.317  25.196  0.00  0.00    +0.145 HD
ATOM     28  C   UNK A   0       9.104  -5.403  25.429  0.00  0.00    +0.195 A 
ATOM     29  N   UNK A   0       8.162  -5.740  26.322  0.00  0.00    -0.311 N 
ATOM     30  H   UNK A   0       8.374  -5.786  27.306  0.00  0.00    +0.170 HD
ATOM     31  C   UNK A   0       6.828  -5.735  26.023  0.00  0.00    +0.160 A 
ATOM     32  N   UNK A   0       5.943  -6.042  27.039  0.00  0.00    -0.238 NA
ATOM     33  C   UNK A   0       4.675  -5.906  26.792  0.00  0.00    +0.110 C 
ATOM     34  C   UNK A   0       4.052  -5.421  25.504  0.00  0.00    +0.134 C 
ATOM     35  N   UNK A   0       5.045  -5.335  24.411  0.00  0.00    -0.291 N 
ATOM     36  C   UNK A   0       6.418  -5.434  24.758  0.00  0.00    +0.142 A 
ATOM     37  C   UNK A   0       7.555  -5.107  23.772  0.00  0.00    +0.298 A 
ATOM     38  O   UNK A   0       7.279  -4.806  22.613  0.00  0.00    -0.264 OA
ATOM     39  N   UNK A   0       8.866  -5.107  24.204  0.00  0.00    -0.176 NA
BRANCH  35  40
ATOM     40  C   UNK A   0       4.448  -5.495  23.091  0.00  0.00    +0.265 C 
BRANCH  40  41
ATOM     41  O   UNK A   0       4.471  -4.313  22.340  0.00  0.00    -0.377 OA
ATOM     42  H   UNK A   0       5.416  -4.080  22.243  0.00  0.00    +0.211 HD
ENDBRANCH  40  41
ENDBRANCH  35  40
ENDBRANCH  24  34
ENDBRANCH   1  24
TORSDOF 13
ENDMDL
MODEL 9
REMARK VINA RESULT:      -7.6      3.137      9.100
REMARK  Name = 
REMARK  13 active torsions:
REMARK  status: ('A' for Active; 'I' for Inactive)
REMARK    1  A    between atoms: C_11  and  C_13
REMARK    2  A    between atoms: C_13  and  N_14
REMARK    3  A    between atoms: N_14  and  C_15
REMARK    4  A    between atoms: C_18  and  C_21
REMARK    5  A    between atoms: N_23  and  CA_24
REMARK    6  A    between atoms: CA_24  and  CB_26
REMARK    7  A    between atoms: CA_24  and  C_31
REMARK    8  A    between atoms: CB_26  and  CG_27
REMARK    9  A    between atoms: CG_27  and  CD_28
REMARK   10  A    between atoms: CD_28  and  OE1_29
REMARK   11  A    between atoms: C_31  and  O_32
REMARK   12  A    between atoms: N_34  and  C_35
REMARK   13  A    between atoms: C_35  and  O_36
REMARK                            x       y       z     vdW  Elec       q    Type
REMARK                         _______ _______ _______ _____ _____    ______ ____
ROOT
ATOM      1  N   UNK A   0       9.785   0.418  21.710  0.00  0.00    -0.342 N 
ATOM      2  H   UNK A   0      10.519   0.262  21.019  0.00  0.00    +0.146 HD
ENDROOT
BRANCH   1   3
ATOM      3  C   UNK A   0       9.344  -0.718  22.376  0.00  0.00    +0.027 A 
ATOM      4  C   UNK A   0       8.030  -1.172  22.244  0.00  0.00    +0.023 A 
ATOM      5  C   UNK A   0       7.587  -2.325  22.894  0.00  0.00    +0.015 A 
ATOM      6  C   UNK A   0       8.461  -3.067  23.690  0.00  0.00    +0.037 A 
ATOM      7  C   UNK A   0       9.766  -2.583  23.879  0.00  0.00    +0.015 A 
ATOM      8  C   UNK A   0      10.193  -1.414  23.244  0.00  0.00    +0.023 A 
BRANCH   6   9
ATOM      9  C   UNK A   0       8.071  -4.371  24.316  0.00  0.00    +0.245 C 
ATOM     10  N   GLU A   1       7.074  -4.337  25.275  0.00  0.00    -0.298 N 
ATOM     11  H   GLU A   1       6.524  -3.495  25.387  0.00  0.00    +0.150 HD
ATOM     12  O   UNK A   0       8.574  -5.422  23.936  0.00  0.00    -0.270 OA
BRANCH  10  13
ATOM     13  CA  GLU A   1       6.439  -5.565  25.788  0.00  0.00    +0.182 C 
BRANCH  13  14
ATOM     14  C   GLU A   1       6.559  -5.563  27.323  0.00  0.00    +0.325 C 
ATOM     15  OXT GLU A   1       5.669  -5.253  28.100  0.00  0.00    -0.249 OA
BRANCH  14  16
ATOM     16  O   GLU A   1       7.767  -6.017  27.752  0.00  0.00    -0.479 OA
ATOM     17  H   GLU A   1       8.305  -5.265  28.078  0.00  0.00    +0.295 HD
ENDBRANCH  14  16
ENDBRANCH  13  14
BRANCH  13  18
ATOM     18  CB  GLU A   1       4.968  -5.656  25.365  0.00  0.00    +0.045 C 
BRANCH  18  19
ATOM     19  CG  GLU A   1       4.777  -6.227  23.960  0.00  0.00    +0.123 C 
BRANCH  19  20
ATOM     20  CD  GLU A   1       3.918  -5.335  23.098  0.00  0.00    +0.305 C 
ATOM     21  OE2 GLU A   1       2.741  -5.525  22.838  0.00  0.00    -0.251 OA
BRANCH  20  22
ATOM     22  OE1 GLU A   1       4.593  -4.248  22.655  0.00  0.00    -0.481 OA
ATOM     23  HE1 GLU A   1       5.507  -4.443  22.373  0.00  0.00    +0.295 HD
ENDBRANCH  20  22
ENDBRANCH  19  20
ENDBRANCH  18  19
ENDBRANCH  13  18
ENDBRANCH  10  13
ENDBRANCH   6   9
ENDBRANCH   1   3
BRANCH   1  24
ATOM     24  C   UNK A   0       8.800   1.419  21.268  0.00  0.00    +0.129 C 
BRANCH  24  34
ATOM     25  N   UNK A   0       7.132   0.416  28.111  0.00  0.00    -0.329 N 
ATOM     26  H   UNK A   0       7.792   0.876  28.729  0.00  0.00    +0.145 HD
ATOM     27  H   UNK A   0       6.219   0.314  28.556  0.00  0.00    +0.145 HD
ATOM     28  C   UNK A   0       7.024   0.946  26.873  0.00  0.00    +0.195 A 
ATOM     29  N   UNK A   0       8.194   1.331  26.342  0.00  0.00    -0.311 N 
ATOM     30  H   UNK A   0       9.067   1.067  26.767  0.00  0.00    +0.170 HD
ATOM     31  C   UNK A   0       8.301   1.816  25.067  0.00  0.00    +0.160 A 
ATOM     32  N   UNK A   0       9.565   2.126  24.604  0.00  0.00    -0.238 NA
ATOM     33  C   UNK A   0       9.682   2.457  23.354  0.00  0.00    +0.110 C 
ATOM     34  C   UNK A   0       8.574   2.520  22.328  0.00  0.00    +0.134 C 
ATOM     35  N   UNK A   0       7.238   2.398  22.953  0.00  0.00    -0.291 N 
ATOM     36  C   UNK A   0       7.180   1.976  24.307  0.00  0.00    +0.142 A 
ATOM     37  C   UNK A   0       5.867   1.561  24.998  0.00  0.00    +0.298 A 
ATOM     38  O   UNK A   0       4.808   1.654  24.382  0.00  0.00    -0.264 OA
ATOM     39  N   UNK A   0       5.892   1.047  26.278  0.00  0.00    -0.176 NA
BRANCH  35  40
ATOM     40  C   UNK A   0       6.190   3.053  22.180  0.00  0.00    +0.265 C 
BRANCH  40  41
ATOM     41  O   UNK A   0       6.532   4.358  21.802  0.00  0.00    -0.377 OA
ATOM     42  H   UNK A   0       7.452   4.306  21.476  0.00  0.00    +0.211 HD
ENDBRANCH  40  41
ENDBRANCH  35  40
ENDBRANCH  24  34
ENDBRANCH   1  24
TORSDOF 13
ENDMDL
