MODEL 1
REMARK VINA RESULT:      -4.9      0.000      0.000
REMARK  Name = 
REMARK  5 active torsions:
REMARK  status: ('A' for Active; 'I' for Inactive)
REMARK    1  A    between atoms: N_1  and  CA_2
REMARK    2  A    between atoms: CA_2  and  C_4
REMARK    3  A    between atoms: CA_2  and  CB_6
REMARK    4  A    between atoms: C_4  and  O_5
REMARK    5  A    between atoms: CB_6  and  CG_7
REMARK                            x       y       z     vdW  Elec       q    Type
REMARK                         _______ _______ _______ _____ _____    ______ ____
ROOT
ATOM      1  CA  PHE A   1      11.733   4.796  23.490  0.00  0.00    +0.077 C 
ENDROOT
BRANCH   1   2
ATOM      2  N   PHE A   1      10.496   5.579  23.298  0.00  0.00    -0.325 NA
ATOM      3  H1  PHE A   1      10.506   6.001  22.372  0.00  0.00    +0.119 HD
ATOM      4  H2  PHE A   1       9.680   4.974  23.356  0.00  0.00    +0.119 HD
ENDBRANCH   1   2
BRANCH   1   5
ATOM      5  CB  PHE A   1      11.439   3.328  23.126  0.00  0.00    +0.024 C 
BRANCH   5   6
ATOM      6  CG  PHE A   1      10.023   2.823  23.498  0.00  0.00    -0.009 C 
ATOM      7  CD2 PHE A   1      10.094   1.721  24.573  0.00  0.00    +0.003 C 
ATOM      8  CE2 PHE A   1      10.614   0.388  24.035  0.00  0.00    +0.000 C 
ATOM      9  CZ  PHE A   1       9.826  -0.078  22.816  0.00  0.00    +0.000 C 
ATOM     10  CE1 PHE A   1       9.752   0.997  21.735  0.00  0.00    +0.000 C 
ATOM     11  CD1 PHE A   1       9.215   2.314  22.293  0.00  0.00    +0.003 C 
ENDBRANCH   5   6
ENDBRANCH   1   5
BRANCH   1  12
ATOM     12  C   PHE A   1      12.897   5.385  22.669  0.00  0.00    +0.174 C 
BRANCH  12  13
ATOM     13  O   PHE A   1      14.153   5.035  23.247  0.00  0.00    -0.393 OA
ATOM     14  H   PHE A   1      13.986   4.837  24.182  0.00  0.00    +0.209 HD
ENDBRANCH  12  13
ENDBRANCH   1  12
TORSDOF 5
ENDMDL
MODEL 2
REMARK VINA RESULT:      -4.5      6.579      7.865
REMARK  Name = 
REMARK  5 active torsions:
REMARK  status: ('A' for Active; 'I' for Inactive)
REMARK    1  A    between atoms: N_1  and  CA_2
REMARK    2  A    between atoms: CA_2  and  C_4
REMARK    3  A    between atoms: CA_2  and  CB_6
REMARK    4  A    between atoms: C_4  and  O_5
REMARK    5  A    between atoms: CB_6  and  CG_7
REMARK                            x       y       z     vdW  Elec       q    Type
REMARK                         _______ _______ _______ _____ _____    ______ ____
ROOT
ATOM      1  CA  PHE A   1       9.212  -4.535  25.600  0.00  0.00    +0.077 C 
ENDROOT
BRANCH   1   2
ATOM      2  N   PHE A   1      10.243  -5.566  25.368  0.00  0.00    -0.325 NA
ATOM      3  H1  PHE A   1      10.273  -5.794  24.377  0.00  0.00    +0.119 HD
ATOM      4  H2  PHE A   1      11.161  -5.218  25.636  0.00  0.00    +0.119 HD
ENDBRANCH   1   2
BRANCH   1   5
ATOM      5  CB  PHE A   1       9.034  -3.726  24.301  0.00  0.00    +0.024 C 
BRANCH   5   6
ATOM      6  CG  PHE A   1       9.722  -2.338  24.285  0.00  0.00    -0.009 C 
ATOM      7  CD2 PHE A   1       8.818  -1.266  24.924  0.00  0.00    +0.003 C 
ATOM      8  CE2 PHE A   1       7.630  -0.878  24.045  0.00  0.00    +0.000 C 
ATOM      9  CZ  PHE A   1       8.072  -0.466  22.644  0.00  0.00    +0.000 C 
ATOM     10  CE1 PHE A   1       8.961  -1.520  21.989  0.00  0.00    +0.000 C 
ATOM     11  CD1 PHE A   1      10.149  -1.879  22.880  0.00  0.00    +0.003 C 
ENDBRANCH   5   6
ENDBRANCH   1   5
BRANCH   1  12
ATOM     12  C   PHE A   1       7.893  -5.168  26.086  0.00  0.00    +0.174 C 
BRANCH  12  13
ATOM     13  O   PHE A   1       8.070  -5.803  27.351  0.00  0.00    -0.393 OA
ATOM     14  H   PHE A   1       7.431  -5.399  27.959  0.00  0.00    +0.209 HD
ENDBRANCH  12  13
ENDBRANCH   1  12
TORSDOF 5
ENDMDL
MODEL 3
REMARK VINA RESULT:      -4.5      2.640      3.530
REMARK  Name = 
REMARK  5 active torsions:
REMARK  status: ('A' for Active; 'I' for Inactive)
REMARK    1  A    between atoms: N_1  and  CA_2
REMARK    2  A    between atoms: CA_2  and  C_4
REMARK    3  A    between atoms: CA_2  and  CB_6
REMARK    4  A    between atoms: C_4  and  O_5
REMARK    5  A    between atoms: CB_6  and  CG_7
REMARK                            x       y       z     vdW  Elec       q    Type
REMARK                         _______ _______ _______ _____ _____    ______ ____
ROOT
ATOM      1  CA  PHE A   1      12.060   5.534  23.884  0.00  0.00    +0.077 C 
ENDROOT
BRANCH   1   2
ATOM      2  N   PHE A   1      12.682   6.502  24.809  0.00  0.00    -0.325 NA
ATOM      3  H1  PHE A   1      13.082   7.270  24.273  0.00  0.00    +0.119 HD
ATOM      4  H2  PHE A   1      11.983   6.892  25.438  0.00  0.00    +0.119 HD
ENDBRANCH   1   2
BRANCH   1   5
ATOM      5  CB  PHE A   1      10.744   6.140  23.360  0.00  0.00    +0.024 C 
BRANCH   5   6
ATOM      6  CG  PHE A   1       9.513   5.951  24.280  0.00  0.00    -0.009 C 
ATOM      7  CD2 PHE A   1       9.155   4.459  24.426  0.00  0.00    +0.003 C 
ATOM      8  CE2 PHE A   1       8.519   3.868  23.167  0.00  0.00    +0.000 C 
ATOM      9  CZ  PHE A   1       7.317   4.684  22.703  0.00  0.00    +0.000 C 
ATOM     10  CE1 PHE A   1       7.654   6.164  22.544  0.00  0.00    +0.000 C 
ATOM     11  CD1 PHE A   1       8.273   6.735  23.819  0.00  0.00    +0.003 C 
ENDBRANCH   5   6
ENDBRANCH   1   5
BRANCH   1  12
ATOM     12  C   PHE A   1      13.027   5.152  22.747  0.00  0.00    +0.174 C 
BRANCH  12  13
ATOM     13  O   PHE A   1      14.368   5.070  23.227  0.00  0.00    -0.393 OA
ATOM     14  H   PHE A   1      14.889   5.706  22.711  0.00  0.00    +0.209 HD
ENDBRANCH  12  13
ENDBRANCH   1  12
TORSDOF 5
ENDMDL
MODEL 4
REMARK VINA RESULT:      -4.4      8.129      9.064
REMARK  Name = 
REMARK  5 active torsions:
REMARK  status: ('A' for Active; 'I' for Inactive)
REMARK    1  A    between atoms: N_1  and  CA_2
REMARK    2  A    between atoms: CA_2  and  C_4
REMARK    3  A    between atoms: CA_2  and  CB_6
REMARK    4  A    between atoms: C_4  and  O_5
REMARK    5  A    between atoms: CB_6  and  CG_7
REMARK                            x       y       z     vdW  Elec       q    Type
REMARK                         _______ _______ _______ _____ _____    ______ ____
ROOT
ATOM      1  CA  PHE A   1       9.142  -4.631  25.336  0.00  0.00    +0.077 C 
ENDROOT
BRANCH   1   2
ATOM      2  N   PHE A   1      10.319  -5.520  25.394  0.00  0.00    -0.325 NA
ATOM      3  H1  PHE A   1      11.075  -5.113  24.849  0.00  0.00    +0.119 HD
ATOM      4  H2  PHE A   1      10.644  -5.618  26.353  0.00  0.00    +0.119 HD
ENDBRANCH   1   2
BRANCH   1   5
ATOM      5  CB  PHE A   1       8.268  -5.059  24.142  0.00  0.00    +0.024 C 
BRANCH   5   6
ATOM      6  CG  PHE A   1       6.786  -4.615  24.212  0.00  0.00    -0.009 C 
ATOM      7  CD2 PHE A   1       5.905  -5.479  23.289  0.00  0.00    +0.003 C 
ATOM      8  CE2 PHE A   1       6.106  -5.170  21.805  0.00  0.00    +0.000 C 
ATOM      9  CZ  PHE A   1       5.930  -3.685  21.507  0.00  0.00    +0.000 C 
ATOM     10  CE1 PHE A   1       6.801  -2.812  22.406  0.00  0.00    +0.000 C 
ATOM     11  CD1 PHE A   1       6.572  -3.128  23.883  0.00  0.00    +0.003 C 
ENDBRANCH   5   6
ENDBRANCH   1   5
BRANCH   1  12
ATOM     12  C   PHE A   1       8.368  -4.645  26.669  0.00  0.00    +0.174 C 
BRANCH  12  13
ATOM     13  O   PHE A   1       8.162  -5.983  27.121  0.00  0.00    -0.393 OA
ATOM     14  H   PHE A   1       8.968  -6.245  27.596  0.00  0.00    +0.209 HD
ENDBRANCH  12  13
ENDBRANCH   1  12
TORSDOF 5
ENDMDL
MODEL 5
REMARK VINA RESULT:      -4.4      4.011      5.373
REMARK  Name = 
REMARK  5 active torsions:
REMARK  status: ('A' for Active; 'I' for Inactive)
REMARK    1  A    between atoms: N_1  and  CA_2
REMARK    2  A    between atoms: CA_2  and  C_4
REMARK    3  A    between atoms: CA_2  and  CB_6
REMARK    4  A    between atoms: C_4  and  O_5
REMARK    5  A    between atoms: CB_6  and  CG_7
REMARK                            x       y       z     vdW  Elec       q    Type
REMARK                         _______ _______ _______ _____ _____    ______ ____
ROOT
ATOM      1  CA  PHE A   1      10.087  -1.356  22.967  0.00  0.00    +0.077 C 
ENDROOT
BRANCH   1   2
ATOM      2  N   PHE A   1      10.171  -1.515  21.502  0.00  0.00    -0.325 NA
ATOM      3  H1  PHE A   1      11.146  -1.471  21.214  0.00  0.00    +0.119 HD
ATOM      4  H2  PHE A   1       9.804  -2.421  21.221  0.00  0.00    +0.119 HD
ENDBRANCH   1   2
BRANCH   1   5
ATOM      5  CB  PHE A   1       9.501   0.035  23.273  0.00  0.00    +0.024 C 
BRANCH   5   6
ATOM      6  CG  PHE A   1       9.767   1.118  22.197  0.00  0.00    -0.009 C 
ATOM      7  CD2 PHE A   1      10.408   2.372  22.822  0.00  0.00    +0.003 C 
ATOM      8  CE2 PHE A   1       9.428   3.197  23.656  0.00  0.00    +0.000 C 
ATOM      9  CZ  PHE A   1       8.172   3.552  22.867  0.00  0.00    +0.000 C 
ATOM     10  CE1 PHE A   1       7.516   2.321  22.248  0.00  0.00    +0.000 C 
ATOM     11  CD1 PHE A   1       8.511   1.522  21.407  0.00  0.00    +0.003 C 
ENDBRANCH   5   6
ENDBRANCH   1   5
BRANCH   1  12
ATOM     12  C   PHE A   1       9.266  -2.495  23.604  0.00  0.00    +0.174 C 
BRANCH  12  13
ATOM     13  O   PHE A   1      10.124  -3.496  24.149  0.00  0.00    -0.393 OA
ATOM     14  H   PHE A   1       9.665  -3.868  24.920  0.00  0.00    +0.209 HD
ENDBRANCH  12  13
ENDBRANCH   1  12
TORSDOF 5
ENDMDL
MODEL 6
REMARK VINA RESULT:      -4.4      2.121      2.803
REMARK  Name = 
REMARK  5 active torsions:
REMARK  status: ('A' for Active; 'I' for Inactive)
REMARK    1  A    between atoms: N_1  and  CA_2
REMARK    2  A    between atoms: CA_2  and  C_4
REMARK    3  A    between atoms: CA_2  and  CB_6
REMARK    4  A    between atoms: C_4  and  O_5
REMARK    5  A    between atoms: CB_6  and  CG_7
REMARK                            x       y       z     vdW  Elec       q    Type
REMARK                         _______ _______ _______ _____ _____    ______ ____
ROOT
ATOM      1  CA  PHE A   1       8.596   4.173  23.793  0.00  0.00    +0.077 C 
ENDROOT
BRANCH   1   2
ATOM      2  N   PHE A   1       7.954   4.384  22.481  0.00  0.00    -0.325 NA
ATOM      3  H1  PHE A   1       7.520   3.516  22.175  0.00  0.00    +0.119 HD
ATOM      4  H2  PHE A   1       7.222   5.088  22.552  0.00  0.00    +0.119 HD
ENDBRANCH   1   2
BRANCH   1   5
ATOM      5  CB  PHE A   1       8.871   2.667  23.962  0.00  0.00    +0.024 C 
BRANCH   5   6
ATOM      6  CG  PHE A   1      10.272   2.192  23.504  0.00  0.00    -0.009 C 
ATOM      7  CD2 PHE A   1      10.257   1.778  22.019  0.00  0.00    +0.003 C 
ATOM      8  CE2 PHE A   1       9.538   0.452  21.772  0.00  0.00    +0.000 C 
ATOM      9  CZ  PHE A   1      10.089  -0.665  22.653  0.00  0.00    +0.000 C 
ATOM     10  CE1 PHE A   1      10.104  -0.277  24.129  0.00  0.00    +0.000 C 
ATOM     11  CD1 PHE A   1      10.840   1.042  24.352  0.00  0.00    +0.003 C 
ENDBRANCH   5   6
ENDBRANCH   1   5
BRANCH   1  12
ATOM     12  C   PHE A   1       9.874   5.024  23.929  0.00  0.00    +0.174 C 
BRANCH  12  13
ATOM     13  O   PHE A   1       9.898   6.064  22.954  0.00  0.00    -0.393 OA
ATOM     14  H   PHE A   1      10.264   5.678  22.141  0.00  0.00    +0.209 HD
ENDBRANCH  12  13
ENDBRANCH   1  12
TORSDOF 5
ENDMDL
MODEL 7
REMARK VINA RESULT:      -4.3      8.015      9.034
REMARK  Name = 
REMARK  5 active torsions:
REMARK  status: ('A' for Active; 'I' for Inactive)
REMARK    1  A    between atoms: N_1  and  CA_2
REMARK    2  A    between atoms: CA_2  and  C_4
REMARK    3  A    between atoms: CA_2  and  CB_6
REMARK    4  A    between atoms: C_4  and  O_5
REMARK    5  A    between atoms: CB_6  and  CG_7
REMARK                            x       y       z     vdW  Elec       q    Type
REMARK                         _______ _______ _______ _____ _____    ______ ____
ROOT
ATOM      1  CA  PHE A   1       8.945  -4.735  25.308  0.00  0.00    +0.077 C 
ENDROOT
BRANCH   1   2
ATOM      2  N   PHE A   1      10.089  -5.664  25.226  0.00  0.00    -0.325 NA
ATOM      3  H1  PHE A   1       9.789  -6.527  24.776  0.00  0.00    +0.119 HD
ATOM      4  H2  PHE A   1      10.834  -5.262  24.661  0.00  0.00    +0.119 HD
ENDBRANCH   1   2
BRANCH   1   5
ATOM      5  CB  PHE A   1       7.805  -5.289  24.432  0.00  0.00    +0.024 C 
BRANCH   5   6
ATOM      6  CG  PHE A   1       7.826  -4.837  22.951  0.00  0.00    -0.009 C 
ATOM      7  CD2 PHE A   1       7.867  -3.300  22.843  0.00  0.00    +0.003 C 
ATOM      8  CE2 PHE A   1       6.538  -2.637  23.205  0.00  0.00    +0.000 C 
ATOM      9  CZ  PHE A   1       5.377  -3.218  22.404  0.00  0.00    +0.000 C 
ATOM     10  CE1 PHE A   1       5.314  -4.740  22.506  0.00  0.00    +0.000 C 
ATOM     11  CD1 PHE A   1       6.648  -5.380  22.124  0.00  0.00    +0.003 C 
ENDBRANCH   5   6
ENDBRANCH   1   5
BRANCH   1  12
ATOM     12  C   PHE A   1       8.511  -4.516  26.771  0.00  0.00    +0.174 C 
BRANCH  12  13
ATOM     13  O   PHE A   1       8.049  -5.734  27.351  0.00  0.00    -0.393 OA
ATOM     14  H   PHE A   1       8.400  -5.764  28.256  0.00  0.00    +0.209 HD
ENDBRANCH  12  13
ENDBRANCH   1  12
TORSDOF 5
ENDMDL
MODEL 8
REMARK VINA RESULT:      -4.3      4.870      6.383
REMARK  Name = 
REMARK  5 active torsions:
REMARK  status: ('A' for Active; 'I' for Inactive)
REMARK    1  A    between atoms: N_1  and  CA_2
REMARK    2  A    between atoms: CA_2  and  C_4
REMARK    3  A    between atoms: CA_2  and  CB_6
REMARK    4  A    between atoms: C_4  and  O_5
REMARK    5  A    between atoms: CB_6  and  CG_7
REMARK                            x       y       z     vdW  Elec       q    Type
REMARK                         _______ _______ _______ _____ _____    ______ ____
ROOT
ATOM      1  CA  PHE A   1       8.460  -2.714  24.108  0.00  0.00    +0.077 C 
ENDROOT
BRANCH   1   2
ATOM      2  N   PHE A   1       9.731  -3.463  24.179  0.00  0.00    -0.325 NA
ATOM      3  H1  PHE A   1      10.488  -2.819  24.398  0.00  0.00    +0.119 HD
ATOM      4  H2  PHE A   1       9.691  -4.160  24.920  0.00  0.00    +0.119 HD
ENDBRANCH   1   2
BRANCH   1   5
ATOM      5  CB  PHE A   1       8.786  -1.210  24.056  0.00  0.00    +0.024 C 
BRANCH   5   6
ATOM      6  CG  PHE A   1      10.165  -0.849  23.451  0.00  0.00    -0.009 C 
ATOM      7  CD2 PHE A   1      10.785   0.365  24.170  0.00  0.00    +0.003 C 
ATOM      8  CE2 PHE A   1      10.097   1.685  23.823  0.00  0.00    +0.000 C 
ATOM      9  CZ  PHE A   1      10.028   1.909  22.316  0.00  0.00    +0.000 C 
ATOM     10  CE1 PHE A   1       9.408   0.720  21.585  0.00  0.00    +0.000 C 
ATOM     11  CD1 PHE A   1      10.123  -0.583  21.937  0.00  0.00    +0.003 C 
ENDBRANCH   5   6
ENDBRANCH   1   5
BRANCH   1  12
ATOM     12  C   PHE A   1       7.611  -3.175  22.907  0.00  0.00    +0.174 C 
BRANCH  12  13
ATOM     13  O   PHE A   1       7.595  -4.598  22.812  0.00  0.00    -0.393 OA
ATOM     14  H   PHE A   1       8.483  -4.905  23.059  0.00  0.00    +0.209 HD
ENDBRANCH  12  13
ENDBRANCH   1  12
TORSDOF 5
ENDMDL
MODEL 9
REMARK VINA RESULT:      -4.2      3.385      4.253
REMARK  Name = 
REMARK  5 active torsions:
REMARK  status: ('A' for Active; 'I' for Inactive)
REMARK    1  A    between atoms: N_1  and  CA_2
REMARK    2  A    between atoms: CA_2  and  C_4
REMARK    3  A    between atoms: CA_2  and  CB_6
REMARK    4  A    between atoms: C_4  and  O_5
REMARK    5  A    between atoms: CB_6  and  CG_7
REMARK                            x       y       z     vdW  Elec       q    Type
REMARK                         _______ _______ _______ _____ _____    ______ ____
ROOT
ATOM      1  CA  PHE A   1       8.516   2.113  21.918  0.00  0.00    +0.077 C 
ENDROOT
BRANCH   1   2
ATOM      2  N   PHE A   1       9.946   2.318  21.615  0.00  0.00    -0.325 NA
ATOM      3  H1  PHE A   1      10.320   3.037  22.230  0.00  0.00    +0.119 HD
ATOM      4  H2  PHE A   1      10.472   1.462  21.783  0.00  0.00    +0.119 HD
ENDBRANCH   1   2
BRANCH   1   5
ATOM      5  CB  PHE A   1       8.353   0.729  22.575  0.00  0.00    +0.024 C 
BRANCH   5   6
ATOM      6  CG  PHE A   1       9.624  -0.155  22.585  0.00  0.00    -0.009 C 
ATOM      7  CD2 PHE A   1       9.390  -1.469  21.814  0.00  0.00    +0.003 C 
ATOM      8  CE2 PHE A   1       8.491  -2.454  22.563  0.00  0.00    +0.000 C 
ATOM      9  CZ  PHE A   1       9.000  -2.723  23.976  0.00  0.00    +0.000 C 
ATOM     10  CE1 PHE A   1       9.230  -1.433  24.759  0.00  0.00    +0.000 C 
ATOM     11  CD1 PHE A   1      10.142  -0.474  23.997  0.00  0.00    +0.003 C 
ENDBRANCH   5   6
ENDBRANCH   1   5
BRANCH   1  12
ATOM     12  C   PHE A   1       7.966   3.252  22.798  0.00  0.00    +0.174 C 
BRANCH  12  13
ATOM     13  O   PHE A   1       7.889   4.471  22.061  0.00  0.00    -0.393 OA
ATOM     14  H   PHE A   1       7.152   4.375  21.436  0.00  0.00    +0.209 HD
ENDBRANCH  12  13
ENDBRANCH   1  12
TORSDOF 5
ENDMDL
