MODEL 1
REMARK VINA RESULT:      -6.0      0.000      0.000
REMARK  Name = 
REMARK  6 active torsions:
REMARK  status: ('A' for Active; 'I' for Inactive)
REMARK    1  A    between atoms: CA_2  and  CB_3
REMARK    2  A    between atoms: CA_2  and  N_10
REMARK    3  A    between atoms: CA_2  and  C_15
REMARK    4  A    between atoms: CB_3  and  CG_4
REMARK    5  A    between atoms: N_13  and  O_14
REMARK    6  A    between atoms: C_15  and  O_16
REMARK                            x       y       z     vdW  Elec       q    Type
REMARK                         _______ _______ _______ _____ _____    ______ ____
ROOT
ATOM      1  CA  PHE A   1       8.844  -2.666  24.139  0.00  0.00    +0.187 C 
ENDROOT
BRANCH   1   2
ATOM      2  N   PHE A   1       9.027  -3.971  24.789  0.00  0.00    -0.284 N 
ATOM      3  H   PHE A   1       9.827  -4.522  24.511  0.00  0.00    +0.151 HD
ATOM      4  C   UNK A   0       8.254  -4.415  25.817  0.00  0.00    +0.323 C 
ATOM      5  N   UNK A   0       8.617  -5.643  26.297  0.00  0.00    -0.181 N 
ATOM      6  H   UNK A   0       9.597  -5.902  26.286  0.00  0.00    +0.184 HD
ATOM      7  O   UNK A   0       7.333  -3.753  26.290  0.00  0.00    -0.251 OA
BRANCH   5   8
ATOM      8  O   UNK A   0       7.943  -6.017  27.490  0.00  0.00    -0.294 OA
ATOM      9  H   UNK A   0       7.014  -6.127  27.193  0.00  0.00    +0.241 HD
ENDBRANCH   5   8
ENDBRANCH   1   2
BRANCH   1  10
ATOM     10  C   PHE A   1       7.598  -2.665  23.238  0.00  0.00    +0.326 C 
ATOM     11  OXT PHE A   1       7.606  -3.108  22.095  0.00  0.00    -0.249 OA
BRANCH  10  12
ATOM     12  O   PHE A   1       6.492  -2.110  23.783  0.00  0.00    -0.479 OA
ATOM     13  H   PHE A   1       5.654  -2.559  23.519  0.00  0.00    +0.295 HD
ENDBRANCH  10  12
ENDBRANCH   1  10
BRANCH   1  14
ATOM     14  CB  PHE A   1      10.099  -2.133  23.419  0.00  0.00    +0.069 C 
BRANCH  14  15
ATOM     15  CG  PHE A   1      10.166  -0.628  23.258  0.00  0.00    -0.045 A 
ATOM     16  CD2 PHE A   1       9.816  -0.053  22.026  0.00  0.00    +0.004 A 
ATOM     17  CE2 PHE A   1       9.818   1.334  21.859  0.00  0.00    +0.000 A 
ATOM     18  CZ  PHE A   1      10.176   2.163  22.919  0.00  0.00    +0.000 A 
ATOM     19  CE1 PHE A   1      10.560   1.606  24.134  0.00  0.00    +0.000 A 
ATOM     20  CD1 PHE A   1      10.573   0.219  24.299  0.00  0.00    +0.004 A 
ENDBRANCH  14  15
ENDBRANCH   1  14
TORSDOF 6
ENDMDL
MODEL 2
REMARK VINA RESULT:      -5.7      2.136      3.320
REMARK  Name = 
REMARK  6 active torsions:
REMARK  status: ('A' for Active; 'I' for Inactive)
REMARK    1  A    between atoms: CA_2  and  CB_3
REMARK    2  A    between atoms: CA_2  and  N_10
REMARK    3  A    between atoms: CA_2  and  C_15
REMARK    4  A    between atoms: CB_3  and  CG_4
REMARK    5  A    between atoms: N_13  and  O_14
REMARK    6  A    between atoms: C_15  and  O_16
REMARK                            x       y       z     vdW  Elec       q    Type
REMARK                         _______ _______ _______ _____ _____    ______ ____
ROOT
ATOM      1  CA  PHE A   1       8.705  -3.842  24.660  0.00  0.00    +0.187 C 
ENDROOT
BRANCH   1   2
ATOM      2  N   PHE A   1       7.389  -4.330  24.227  0.00  0.00    -0.284 N 
ATOM      3  H   PHE A   1       6.574  -3.847  24.579  0.00  0.00    +0.151 HD
ATOM      4  C   UNK A   0       7.217  -5.307  23.296  0.00  0.00    +0.323 C 
ATOM      5  N   UNK A   0       5.907  -5.586  23.016  0.00  0.00    -0.181 N 
ATOM      6  H   UNK A   0       5.229  -4.833  23.054  0.00  0.00    +0.184 HD
ATOM      7  O   UNK A   0       8.158  -5.865  22.736  0.00  0.00    -0.251 OA
BRANCH   5   8
ATOM      8  O   UNK A   0       5.728  -6.458  21.909  0.00  0.00    -0.294 OA
ATOM      9  H   UNK A   0       6.172  -7.282  22.205  0.00  0.00    +0.241 HD
ENDBRANCH   5   8
ENDBRANCH   1   2
BRANCH   1  10
ATOM     10  C   PHE A   1       9.319  -4.770  25.721  0.00  0.00    +0.326 C 
ATOM     11  OXT PHE A   1       9.117  -4.630  26.921  0.00  0.00    -0.249 OA
BRANCH  10  12
ATOM     12  O   PHE A   1      10.130  -5.740  25.240  0.00  0.00    -0.479 OA
ATOM     13  H   PHE A   1      11.003  -5.787  25.697  0.00  0.00    +0.295 HD
ENDBRANCH  10  12
ENDBRANCH   1  10
BRANCH   1  14
ATOM     14  CB  PHE A   1       8.727  -2.360  25.082  0.00  0.00    +0.069 C 
BRANCH  14  15
ATOM     15  CG  PHE A   1       9.218  -1.390  24.026  0.00  0.00    -0.045 A 
ATOM     16  CD2 PHE A   1       8.952  -1.655  22.673  0.00  0.00    +0.004 A 
ATOM     17  CE2 PHE A   1       9.346  -0.757  21.680  0.00  0.00    +0.000 A 
ATOM     18  CZ  PHE A   1      10.016   0.414  22.024  0.00  0.00    +0.000 A 
ATOM     19  CE1 PHE A   1      10.319   0.672  23.357  0.00  0.00    +0.000 A 
ATOM     20  CD1 PHE A   1       9.939  -0.232  24.351  0.00  0.00    +0.004 A 
ENDBRANCH  14  15
ENDBRANCH   1  14
TORSDOF 6
ENDMDL
MODEL 3
REMARK VINA RESULT:      -5.6      2.552      4.984
REMARK  Name = 
REMARK  6 active torsions:
REMARK  status: ('A' for Active; 'I' for Inactive)
REMARK    1  A    between atoms: CA_2  and  CB_3
REMARK    2  A    between atoms: CA_2  and  N_10
REMARK    3  A    between atoms: CA_2  and  C_15
REMARK    4  A    between atoms: CB_3  and  CG_4
REMARK    5  A    between atoms: N_13  and  O_14
REMARK    6  A    between atoms: C_15  and  O_16
REMARK                            x       y       z     vdW  Elec       q    Type
REMARK                         _______ _______ _______ _____ _____    ______ ____
ROOT
ATOM      1  CA  PHE A   1       8.905  -2.682  23.097  0.00  0.00    +0.187 C 
ENDROOT
BRANCH   1   2
ATOM      2  N   PHE A   1       8.725  -2.878  24.541  0.00  0.00    -0.284 N 
ATOM      3  H   PHE A   1       8.335  -2.111  25.071  0.00  0.00    +0.151 HD
ATOM      4  C   UNK A   0       8.940  -4.064  25.173  0.00  0.00    +0.323 C 
ATOM      5  N   UNK A   0       8.680  -4.035  26.516  0.00  0.00    -0.181 N 
ATOM      6  H   UNK A   0       7.936  -3.437  26.857  0.00  0.00    +0.184 HD
ATOM      7  O   UNK A   0       9.305  -5.076  24.580  0.00  0.00    -0.251 OA
BRANCH   5   8
ATOM      8  O   UNK A   0       8.713  -5.313  27.136  0.00  0.00    -0.294 OA
ATOM      9  H   UNK A   0       8.926  -5.099  28.070  0.00  0.00    +0.241 HD
ENDBRANCH   5   8
ENDBRANCH   1   2
BRANCH   1  10
ATOM     10  C   PHE A   1       9.942  -1.584  22.811  0.00  0.00    +0.326 C 
ATOM     11  OXT PHE A   1      10.334  -0.803  23.669  0.00  0.00    -0.249 OA
BRANCH  10  12
ATOM     12  O   PHE A   1      10.374  -1.516  21.531  0.00  0.00    -0.479 OA
ATOM     13  H   PHE A   1      10.665  -0.613  21.260  0.00  0.00    +0.295 HD
ENDBRANCH  10  12
ENDBRANCH   1  10
BRANCH   1  14
ATOM     14  CB  PHE A   1       7.593  -2.479  22.314  0.00  0.00    +0.069 C 
BRANCH  14  15
ATOM     15  CG  PHE A   1       6.585  -3.605  22.431  0.00  0.00    -0.045 A 
ATOM     16  CD2 PHE A   1       6.923  -4.882  21.957  0.00  0.00    +0.004 A 
ATOM     17  CE2 PHE A   1       6.037  -5.952  22.095  0.00  0.00    +0.000 A 
ATOM     18  CZ  PHE A   1       4.800  -5.759  22.703  0.00  0.00    +0.000 A 
ATOM     19  CE1 PHE A   1       4.436  -4.491  23.145  0.00  0.00    +0.000 A 
ATOM     20  CD1 PHE A   1       5.315  -3.416  22.995  0.00  0.00    +0.004 A 
ENDBRANCH  14  15
ENDBRANCH   1  14
TORSDOF 6
ENDMDL
MODEL 4
REMARK VINA RESULT:      -5.6      2.230      3.799
REMARK  Name = 
REMARK  6 active torsions:
REMARK  status: ('A' for Active; 'I' for Inactive)
REMARK    1  A    between atoms: CA_2  and  CB_3
REMARK    2  A    between atoms: CA_2  and  N_10
REMARK    3  A    between atoms: CA_2  and  C_15
REMARK    4  A    between atoms: CB_3  and  CG_4
REMARK    5  A    between atoms: N_13  and  O_14
REMARK    6  A    between atoms: C_15  and  O_16
REMARK                            x       y       z     vdW  Elec       q    Type
REMARK                         _______ _______ _______ _____ _____    ______ ____
ROOT
ATOM      1  CA  PHE A   1       8.351  -4.352  24.426  0.00  0.00    +0.187 C 
ENDROOT
BRANCH   1   2
ATOM      2  N   PHE A   1       7.221  -5.222  24.075  0.00  0.00    -0.284 N 
ATOM      3  H   PHE A   1       6.651  -5.574  24.831  0.00  0.00    +0.151 HD
ATOM      4  C   UNK A   0       6.836  -5.478  22.794  0.00  0.00    +0.323 C 
ATOM      5  N   UNK A   0       5.739  -6.288  22.694  0.00  0.00    -0.181 N 
ATOM      6  H   UNK A   0       5.023  -6.232  23.408  0.00  0.00    +0.184 HD
ATOM      7  O   UNK A   0       7.409  -4.995  21.820  0.00  0.00    -0.251 OA
BRANCH   5   8
ATOM      8  O   UNK A   0       5.221  -6.394  21.375  0.00  0.00    -0.294 OA
ATOM      9  H   UNK A   0       5.997  -6.174  20.816  0.00  0.00    +0.241 HD
ENDBRANCH   5   8
ENDBRANCH   1   2
BRANCH   1  10
ATOM     10  C   PHE A   1       9.163  -4.940  25.591  0.00  0.00    +0.326 C 
ATOM     11  OXT PHE A   1       8.873  -4.746  26.766  0.00  0.00    -0.249 OA
BRANCH  10  12
ATOM     12  O   PHE A   1      10.246  -5.665  25.232  0.00  0.00    -0.479 OA
ATOM     13  H   PHE A   1      11.094  -5.162  25.284  0.00  0.00    +0.295 HD
ENDBRANCH  10  12
ENDBRANCH   1  10
BRANCH   1  14
ATOM     14  CB  PHE A   1       7.970  -2.875  24.652  0.00  0.00    +0.069 C 
BRANCH  14  15
ATOM     15  CG  PHE A   1       8.716  -1.872  23.795  0.00  0.00    -0.045 A 
ATOM     16  CD2 PHE A   1       9.634  -1.000  24.401  0.00  0.00    +0.004 A 
ATOM     17  CE2 PHE A   1      10.375  -0.099  23.635  0.00  0.00    +0.000 A 
ATOM     18  CZ  PHE A   1      10.204  -0.053  22.254  0.00  0.00    +0.000 A 
ATOM     19  CE1 PHE A   1       9.271  -0.885  21.644  0.00  0.00    +0.000 A 
ATOM     20  CD1 PHE A   1       8.518  -1.778  22.410  0.00  0.00    +0.004 A 
ENDBRANCH  14  15
ENDBRANCH   1  14
TORSDOF 6
ENDMDL
MODEL 5
REMARK VINA RESULT:      -5.5      1.950      2.596
REMARK  Name = 
REMARK  6 active torsions:
REMARK  status: ('A' for Active; 'I' for Inactive)
REMARK    1  A    between atoms: CA_2  and  CB_3
REMARK    2  A    between atoms: CA_2  and  N_10
REMARK    3  A    between atoms: CA_2  and  C_15
REMARK    4  A    between atoms: CB_3  and  CG_4
REMARK    5  A    between atoms: N_13  and  O_14
REMARK    6  A    between atoms: C_15  and  O_16
REMARK                            x       y       z     vdW  Elec       q    Type
REMARK                         _______ _______ _______ _____ _____    ______ ____
ROOT
ATOM      1  CA  PHE A   1       6.469  -4.291  23.439  0.00  0.00    +0.187 C 
ENDROOT
BRANCH   1   2
ATOM      2  N   PHE A   1       7.423  -4.795  24.436  0.00  0.00    -0.284 N 
ATOM      3  H   PHE A   1       8.407  -4.663  24.248  0.00  0.00    +0.151 HD
ATOM      4  C   UNK A   0       7.051  -5.315  25.638  0.00  0.00    +0.323 C 
ATOM      5  N   UNK A   0       8.101  -5.694  26.428  0.00  0.00    -0.181 N 
ATOM      6  H   UNK A   0       8.965  -5.167  26.379  0.00  0.00    +0.184 HD
ATOM      7  O   UNK A   0       5.877  -5.404  25.988  0.00  0.00    -0.251 OA
BRANCH   5   8
ATOM      8  O   UNK A   0       7.725  -6.050  27.751  0.00  0.00    -0.294 OA
ATOM      9  H   UNK A   0       6.985  -6.678  27.608  0.00  0.00    +0.241 HD
ENDBRANCH   5   8
ENDBRANCH   1   2
BRANCH   1  10
ATOM     10  C   PHE A   1       6.635  -5.019  22.095  0.00  0.00    +0.326 C 
ATOM     11  OXT PHE A   1       7.416  -5.949  21.936  0.00  0.00    -0.249 OA
BRANCH  10  12
ATOM     12  O   PHE A   1       5.877  -4.541  21.082  0.00  0.00    -0.479 OA
ATOM     13  H   PHE A   1       4.985  -4.959  21.025  0.00  0.00    +0.295 HD
ENDBRANCH  10  12
ENDBRANCH   1  10
BRANCH   1  14
ATOM     14  CB  PHE A   1       6.460  -2.757  23.287  0.00  0.00    +0.069 C 
BRANCH  14  15
ATOM     15  CG  PHE A   1       7.819  -2.089  23.344  0.00  0.00    -0.045 A 
ATOM     16  CD2 PHE A   1       8.618  -2.058  22.189  0.00  0.00    +0.004 A 
ATOM     17  CE2 PHE A   1       9.853  -1.407  22.194  0.00  0.00    +0.000 A 
ATOM     18  CZ  PHE A   1      10.309  -0.785  23.352  0.00  0.00    +0.000 A 
ATOM     19  CE1 PHE A   1       9.546  -0.840  24.514  0.00  0.00    +0.000 A 
ATOM     20  CD1 PHE A   1       8.317  -1.503  24.516  0.00  0.00    +0.004 A 
ENDBRANCH  14  15
ENDBRANCH   1  14
TORSDOF 6
ENDMDL
MODEL 6
REMARK VINA RESULT:      -5.5      4.525      6.075
REMARK  Name = 
REMARK  6 active torsions:
REMARK  status: ('A' for Active; 'I' for Inactive)
REMARK    1  A    between atoms: CA_2  and  CB_3
REMARK    2  A    between atoms: CA_2  and  N_10
REMARK    3  A    between atoms: CA_2  and  C_15
REMARK    4  A    between atoms: CB_3  and  CG_4
REMARK    5  A    between atoms: N_13  and  O_14
REMARK    6  A    between atoms: C_15  and  O_16
REMARK                            x       y       z     vdW  Elec       q    Type
REMARK                         _______ _______ _______ _____ _____    ______ ____
ROOT
ATOM      1  CA  PHE A   1       6.426  -5.461  27.476  0.00  0.00    +0.187 C 
ENDROOT
BRANCH   1   2
ATOM      2  N   PHE A   1       7.611  -5.986  26.786  0.00  0.00    -0.284 N 
ATOM      3  H   PHE A   1       7.639  -6.978  26.598  0.00  0.00    +0.151 HD
ATOM      4  C   UNK A   0       8.603  -5.199  26.286  0.00  0.00    +0.323 C 
ATOM      5  N   UNK A   0       9.597  -5.891  25.652  0.00  0.00    -0.181 N 
ATOM      6  H   UNK A   0       9.359  -6.739  25.151  0.00  0.00    +0.184 HD
ATOM      7  O   UNK A   0       8.585  -3.973  26.373  0.00  0.00    -0.251 OA
BRANCH   5   8
ATOM      8  O   UNK A   0      10.524  -5.064  24.963  0.00  0.00    -0.294 OA
ATOM      9  H   UNK A   0      11.208  -4.885  25.644  0.00  0.00    +0.241 HD
ENDBRANCH   5   8
ENDBRANCH   1   2
BRANCH   1  10
ATOM     10  C   PHE A   1       6.267  -6.096  28.867  0.00  0.00    +0.326 C 
ATOM     11  OXT PHE A   1       6.042  -5.437  29.875  0.00  0.00    -0.249 OA
BRANCH  10  12
ATOM     12  O   PHE A   1       6.423  -7.439  28.910  0.00  0.00    -0.479 OA
ATOM     13  H   PHE A   1       7.240  -7.726  29.382  0.00  0.00    +0.295 HD
ENDBRANCH  10  12
ENDBRANCH   1  10
BRANCH   1  14
ATOM     14  CB  PHE A   1       5.129  -5.517  26.645  0.00  0.00    +0.069 C 
BRANCH  14  15
ATOM     15  CG  PHE A   1       5.223  -4.928  25.251  0.00  0.00    -0.045 A 
ATOM     16  CD2 PHE A   1       5.241  -5.789  24.142  0.00  0.00    +0.004 A 
ATOM     17  CE2 PHE A   1       5.277  -5.278  22.843  0.00  0.00    +0.000 A 
ATOM     18  CZ  PHE A   1       5.301  -3.902  22.636  0.00  0.00    +0.000 A 
ATOM     19  CE1 PHE A   1       5.322  -3.038  23.726  0.00  0.00    +0.000 A 
ATOM     20  CD1 PHE A   1       5.301  -3.547  25.026  0.00  0.00    +0.004 A 
ENDBRANCH  14  15
ENDBRANCH   1  14
TORSDOF 6
ENDMDL
MODEL 7
REMARK VINA RESULT:      -5.4      2.668      5.734
REMARK  Name = 
REMARK  6 active torsions:
REMARK  status: ('A' for Active; 'I' for Inactive)
REMARK    1  A    between atoms: CA_2  and  CB_3
REMARK    2  A    between atoms: CA_2  and  N_10
REMARK    3  A    between atoms: CA_2  and  C_15
REMARK    4  A    between atoms: CB_3  and  CG_4
REMARK    5  A    between atoms: N_13  and  O_14
REMARK    6  A    between atoms: C_15  and  O_16
REMARK                            x       y       z     vdW  Elec       q    Type
REMARK                         _______ _______ _______ _____ _____    ______ ____
ROOT
ATOM      1  CA  PHE A   1       8.664  -3.272  24.952  0.00  0.00    +0.187 C 
ENDROOT
BRANCH   1   2
ATOM      2  N   PHE A   1       9.405  -2.920  23.733  0.00  0.00    -0.284 N 
ATOM      3  H   PHE A   1       9.894  -3.662  23.254  0.00  0.00    +0.151 HD
ATOM      4  C   UNK A   0       9.368  -1.686  23.160  0.00  0.00    +0.323 C 
ATOM      5  N   UNK A   0      10.105  -1.583  22.012  0.00  0.00    -0.181 N 
ATOM      6  H   UNK A   0      10.182  -2.392  21.407  0.00  0.00    +0.184 HD
ATOM      7  O   UNK A   0       8.705  -0.759  23.620  0.00  0.00    -0.251 OA
BRANCH   5   8
ATOM      8  O   UNK A   0       9.909  -0.363  21.311  0.00  0.00    -0.294 OA
ATOM      9  H   UNK A   0       9.809  -0.658  20.380  0.00  0.00    +0.241 HD
ENDBRANCH   5   8
ENDBRANCH   1   2
BRANCH   1  10
ATOM     10  C   PHE A   1       9.369  -4.400  25.723  0.00  0.00    +0.326 C 
ATOM     11  OXT PHE A   1       9.155  -4.628  26.907  0.00  0.00    -0.249 OA
BRANCH  10  12
ATOM     12  O   PHE A   1      10.273  -5.110  25.010  0.00  0.00    -0.479 OA
ATOM     13  H   PHE A   1      11.172  -4.703  24.996  0.00  0.00    +0.295 HD
ENDBRANCH  10  12
ENDBRANCH   1  10
BRANCH   1  14
ATOM     14  CB  PHE A   1       7.166  -3.553  24.726  0.00  0.00    +0.069 C 
BRANCH  14  15
ATOM     15  CG  PHE A   1       6.825  -4.264  23.431  0.00  0.00    -0.045 A 
ATOM     16  CD2 PHE A   1       6.168  -3.556  22.411  0.00  0.00    +0.004 A 
ATOM     17  CE2 PHE A   1       5.885  -4.166  21.188  0.00  0.00    +0.000 A 
ATOM     18  CZ  PHE A   1       6.248  -5.492  20.969  0.00  0.00    +0.000 A 
ATOM     19  CE1 PHE A   1       6.867  -6.216  21.983  0.00  0.00    +0.000 A 
ATOM     20  CD1 PHE A   1       7.138  -5.613  23.213  0.00  0.00    +0.004 A 
ENDBRANCH  14  15
ENDBRANCH   1  14
TORSDOF 6
ENDMDL
MODEL 8
REMARK VINA RESULT:      -5.4      2.363      2.918
REMARK  Name = 
REMARK  6 active torsions:
REMARK  status: ('A' for Active; 'I' for Inactive)
REMARK    1  A    between atoms: CA_2  and  CB_3
REMARK    2  A    between atoms: CA_2  and  N_10
REMARK    3  A    between atoms: CA_2  and  C_15
REMARK    4  A    between atoms: CB_3  and  CG_4
REMARK    5  A    between atoms: N_13  and  O_14
REMARK    6  A    between atoms: C_15  and  O_16
REMARK                            x       y       z     vdW  Elec       q    Type
REMARK                         _______ _______ _______ _____ _____    ______ ____
ROOT
ATOM      1  CA  PHE A   1       8.185  -2.338  22.760  0.00  0.00    +0.187 C 
ENDROOT
BRANCH   1   2
ATOM      2  N   PHE A   1       7.429  -3.348  22.008  0.00  0.00    -0.284 N 
ATOM      3  H   PHE A   1       7.161  -3.119  21.061  0.00  0.00    +0.151 HD
ATOM      4  C   UNK A   0       7.181  -4.603  22.471  0.00  0.00    +0.323 C 
ATOM      5  N   UNK A   0       6.489  -5.394  21.595  0.00  0.00    -0.181 N 
ATOM      6  H   UNK A   0       6.640  -5.270  20.601  0.00  0.00    +0.184 HD
ATOM      7  O   UNK A   0       7.574  -4.997  23.567  0.00  0.00    -0.251 OA
BRANCH   5   8
ATOM      8  O   UNK A   0       6.402  -6.755  21.993  0.00  0.00    -0.294 OA
ATOM      9  H   UNK A   0       5.950  -6.701  22.863  0.00  0.00    +0.241 HD
ENDBRANCH   5   8
ENDBRANCH   1   2
BRANCH   1  10
ATOM     10  C   PHE A   1       7.242  -1.404  23.536  0.00  0.00    +0.326 C 
ATOM     11  OXT PHE A   1       7.240  -1.329  24.759  0.00  0.00    -0.249 OA
BRANCH  10  12
ATOM     12  O   PHE A   1       6.386  -0.685  22.774  0.00  0.00    -0.479 OA
ATOM     13  H   PHE A   1       6.200  -1.095  21.896  0.00  0.00    +0.295 HD
ENDBRANCH  10  12
ENDBRANCH   1  10
BRANCH   1  14
ATOM     14  CB  PHE A   1       9.228  -1.571  21.924  0.00  0.00    +0.069 C 
BRANCH  14  15
ATOM     15  CG  PHE A   1       9.725  -0.275  22.534  0.00  0.00    -0.045 A 
ATOM     16  CD2 PHE A   1      10.389  -0.309  23.771  0.00  0.00    +0.004 A 
ATOM     17  CE2 PHE A   1      10.904   0.859  24.337  0.00  0.00    +0.000 A 
ATOM     18  CZ  PHE A   1      10.757   2.076  23.678  0.00  0.00    +0.000 A 
ATOM     19  CE1 PHE A   1      10.070   2.130  22.470  0.00  0.00    +0.000 A 
ATOM     20  CD1 PHE A   1       9.541   0.966  21.909  0.00  0.00    +0.004 A 
ENDBRANCH  14  15
ENDBRANCH   1  14
TORSDOF 6
ENDMDL
MODEL 9
REMARK VINA RESULT:      -5.3      1.675      2.181
REMARK  Name = 
REMARK  6 active torsions:
REMARK  status: ('A' for Active; 'I' for Inactive)
REMARK    1  A    between atoms: CA_2  and  CB_3
REMARK    2  A    between atoms: CA_2  and  N_10
REMARK    3  A    between atoms: CA_2  and  C_15
REMARK    4  A    between atoms: CB_3  and  CG_4
REMARK    5  A    between atoms: N_13  and  O_14
REMARK    6  A    between atoms: C_15  and  O_16
REMARK                            x       y       z     vdW  Elec       q    Type
REMARK                         _______ _______ _______ _____ _____    ______ ____
ROOT
ATOM      1  CA  PHE A   1       9.403  -1.652  24.053  0.00  0.00    +0.187 C 
ENDROOT
BRANCH   1   2
ATOM      2  N   PHE A   1       9.772  -3.027  24.414  0.00  0.00    -0.284 N 
ATOM      3  H   PHE A   1      10.716  -3.324  24.210  0.00  0.00    +0.151 HD
ATOM      4  C   UNK A   0       8.959  -3.868  25.109  0.00  0.00    +0.323 C 
ATOM      5  N   UNK A   0       9.513  -5.092  25.368  0.00  0.00    -0.181 N 
ATOM      6  H   UNK A   0      10.513  -5.152  25.524  0.00  0.00    +0.184 HD
ATOM      7  O   UNK A   0       7.839  -3.541  25.494  0.00  0.00    -0.251 OA
BRANCH   5   8
ATOM      8  O   UNK A   0       8.748  -5.893  26.257  0.00  0.00    -0.294 OA
ATOM      9  H   UNK A   0       8.494  -6.660  25.699  0.00  0.00    +0.241 HD
ENDBRANCH   5   8
ENDBRANCH   1   2
BRANCH   1  10
ATOM     10  C   PHE A   1       9.238  -1.503  22.532  0.00  0.00    +0.326 C 
ATOM     11  OXT PHE A   1       8.152  -1.316  21.997  0.00  0.00    -0.249 OA
BRANCH  10  12
ATOM     12  O   PHE A   1      10.378  -1.623  21.813  0.00  0.00    -0.479 OA
ATOM     13  H   PHE A   1      10.939  -0.811  21.824  0.00  0.00    +0.295 HD
ENDBRANCH  10  12
ENDBRANCH   1  10
BRANCH   1  14
ATOM     14  CB  PHE A   1      10.313  -0.568  24.662  0.00  0.00    +0.069 C 
BRANCH  14  15
ATOM     15  CG  PHE A   1       9.811   0.856  24.525  0.00  0.00    -0.045 A 
ATOM     16  CD2 PHE A   1      10.586   1.792  23.821  0.00  0.00    +0.004 A 
ATOM     17  CE2 PHE A   1      10.129   3.098  23.633  0.00  0.00    +0.000 A 
ATOM     18  CZ  PHE A   1       8.896   3.487  24.151  0.00  0.00    +0.000 A 
ATOM     19  CE1 PHE A   1       8.136   2.581  24.881  0.00  0.00    +0.000 A 
ATOM     20  CD1 PHE A   1       8.597   1.278  25.083  0.00  0.00    +0.004 A 
ENDBRANCH  14  15
ENDBRANCH   1  14
TORSDOF 6
ENDMDL
