MODEL 1
REMARK VINA RESULT:      -5.5      0.000      0.000
REMARK  Name = 
REMARK  16 active torsions:
REMARK  status: ('A' for Active; 'I' for Inactive)
REMARK    1  A    between atoms: C_2  and  O_3
REMARK    2  A    between atoms: C_2  and  C_4
REMARK    3  A    between atoms: C_2  and  C_8
REMARK    4  A    between atoms: C_4  and  C_5
REMARK    5  A    between atoms: C_5  and  O_6
REMARK    6  A    between atoms: N_10  and  C_11
REMARK    7  A    between atoms: C_11  and  C_13
REMARK    8  A    between atoms: C_11  and  C_17
REMARK    9  A    between atoms: C_13  and  C_14
REMARK   10  A    between atoms: C_14  and  C_15
REMARK   11  A    between atoms: C_14  and  C_16
REMARK   12  A    between atoms: N_19  and  C_20
REMARK   13  A    between atoms: C_20  and  C_21
REMARK   14  A    between atoms: C_21  and  C_22
REMARK   15  A    between atoms: C_22  and  C_23
REMARK   16  A    between atoms: C_22  and  C_24
REMARK                            x       y       z     vdW  Elec       q    Type
REMARK                         _______ _______ _______ _____ _____    ______ ____
ROOT
ATOM      1  C   UNL     1       7.484  -2.084  25.139  0.00  0.00    +0.159 C 
ENDROOT
BRANCH   1   3
ATOM      2  C   UNL     1       5.350  -2.936  24.152  0.00  0.00    +0.243 C 
ATOM      3  N   UNL     1       6.725  -2.918  24.207  0.00  0.00    -0.302 N 
ATOM      4  H   UNL     1       7.284  -3.545  23.633  0.00  0.00    +0.150 HD
ATOM      5  O   UNL     1       4.644  -2.212  24.843  0.00  0.00    -0.273 OA
BRANCH   2   6
ATOM      6  C   UNL     1       4.782  -3.922  23.115  0.00  0.00    +0.210 C 
BRANCH   6   7
ATOM      7  O   UNL     1       5.213  -3.618  21.780  0.00  0.00    -0.382 OA
ATOM      8  H   UNL     1       6.190  -3.643  21.770  0.00  0.00    +0.210 HD
ENDBRANCH   6   7
BRANCH   6   9
ATOM      9  C   UNL     1       5.232  -5.341  23.430  0.00  0.00    +0.161 C 
BRANCH   9  10
ATOM     10  C   UNL     1       6.232  -5.882  22.443  0.00  0.00    +0.308 C 
ATOM     11  O   UNL     1       7.434  -5.675  22.543  0.00  0.00    -0.251 OA
BRANCH  10  12
ATOM     12  O   UNL     1       5.702  -6.517  21.377  0.00  0.00    -0.481 OA
ATOM     13  H   UNL     1       4.854  -6.114  21.066  0.00  0.00    +0.295 HD
ENDBRANCH  10  12
ENDBRANCH   9  10
ENDBRANCH   6   9
ENDBRANCH   2   6
ENDBRANCH   1   3
BRANCH   1  14
ATOM     14  C   UNL     1       8.302  -1.136  24.239  0.00  0.00    +0.233 C 
ATOM     15  N   UNL     1       9.662  -1.153  24.451  0.00  0.00    -0.314 N 
ATOM     16  H   UNL     1      10.033  -1.642  25.255  0.00  0.00    +0.149 HD
ATOM     17  O   UNL     1       7.759  -0.439  23.382  0.00  0.00    -0.274 OA
BRANCH  15  18
ATOM     18  C   UNL     1      10.572  -0.348  23.663  0.00  0.00    +0.104 C 
BRANCH  18  19
ATOM     19  C   UNL     1      10.939   0.969  24.349  0.00  0.00    +0.022 C 
BRANCH  19  20
ATOM     20  C   UNL     1      10.390   2.236  23.663  0.00  0.00    -0.016 C 
ATOM     21  C   UNL     1       9.150   2.732  24.412  0.00  0.00    +0.007 C 
ATOM     22  C   UNL     1      10.042   2.001  22.191  0.00  0.00    +0.007 C 
ENDBRANCH  19  20
ENDBRANCH  18  19
ENDBRANCH  15  18
ENDBRANCH   1  14
BRANCH   1  23
ATOM     23  C   UNL     1       8.386  -2.962  26.030  0.00  0.00    +0.034 C 
BRANCH  23  24
ATOM     24  C   UNL     1       8.362  -4.479  25.744  0.00  0.00    -0.015 C 
ATOM     25  C   UNL     1       7.715  -5.229  26.914  0.00  0.00    +0.007 C 
ATOM     26  C   UNL     1       9.748  -5.067  25.471  0.00  0.00    +0.007 C 
ENDBRANCH  23  24
ENDBRANCH   1  23
TORSDOF 12
ENDMDL
MODEL 2
REMARK VINA RESULT:      -5.5      2.386      3.949
REMARK  Name = 
REMARK  16 active torsions:
REMARK  status: ('A' for Active; 'I' for Inactive)
REMARK    1  A    between atoms: C_2  and  O_3
REMARK    2  A    between atoms: C_2  and  C_4
REMARK    3  A    between atoms: C_2  and  C_8
REMARK    4  A    between atoms: C_4  and  C_5
REMARK    5  A    between atoms: C_5  and  O_6
REMARK    6  A    between atoms: N_10  and  C_11
REMARK    7  A    between atoms: C_11  and  C_13
REMARK    8  A    between atoms: C_11  and  C_17
REMARK    9  A    between atoms: C_13  and  C_14
REMARK   10  A    between atoms: C_14  and  C_15
REMARK   11  A    between atoms: C_14  and  C_16
REMARK   12  A    between atoms: N_19  and  C_20
REMARK   13  A    between atoms: C_20  and  C_21
REMARK   14  A    between atoms: C_21  and  C_22
REMARK   15  A    between atoms: C_22  and  C_23
REMARK   16  A    between atoms: C_22  and  C_24
REMARK                            x       y       z     vdW  Elec       q    Type
REMARK                         _______ _______ _______ _____ _____    ______ ____
ROOT
ATOM      1  C   UNL     1       8.256  -2.989  23.160  0.00  0.00    +0.159 C 
ENDROOT
BRANCH   1   3
ATOM      2  C   UNL     1       8.501  -4.895  24.759  0.00  0.00    +0.243 C 
ATOM      3  N   UNL     1       8.201  -3.578  24.498  0.00  0.00    -0.302 N 
ATOM      4  H   UNL     1       7.857  -2.961  25.230  0.00  0.00    +0.150 HD
ATOM      5  O   UNL     1       8.897  -5.674  23.900  0.00  0.00    -0.273 OA
BRANCH   2   6
ATOM      6  C   UNL     1       8.334  -5.290  26.237  0.00  0.00    +0.210 C 
BRANCH   6   7
ATOM      7  O   UNL     1       9.398  -4.789  27.061  0.00  0.00    -0.382 OA
ATOM      8  H   UNL     1      10.238  -4.943  26.586  0.00  0.00    +0.210 HD
ENDBRANCH   6   7
BRANCH   6   9
ATOM      9  C   UNL     1       7.028  -4.737  26.789  0.00  0.00    +0.161 C 
BRANCH   9  10
ATOM     10  C   UNL     1       6.354  -5.665  27.766  0.00  0.00    +0.308 C 
ATOM     11  O   UNL     1       6.469  -5.540  28.977  0.00  0.00    -0.251 OA
BRANCH  10  12
ATOM     12  O   UNL     1       5.705  -6.710  27.212  0.00  0.00    -0.481 OA
ATOM     13  H   UNL     1       5.645  -7.494  27.812  0.00  0.00    +0.295 HD
ENDBRANCH  10  12
ENDBRANCH   9  10
ENDBRANCH   6   9
ENDBRANCH   2   6
ENDBRANCH   1   3
BRANCH   1  14
ATOM     14  C   UNL     1       9.385  -1.941  23.240  0.00  0.00    +0.233 C 
ATOM     15  N   UNL     1       9.358  -1.133  24.354  0.00  0.00    -0.314 N 
ATOM     16  H   UNL     1       8.550  -1.152  24.962  0.00  0.00    +0.149 HD
ATOM     17  O   UNL     1      10.252  -1.866  22.369  0.00  0.00    -0.274 OA
BRANCH  15  18
ATOM     18  C   UNL     1      10.369  -0.124  24.595  0.00  0.00    +0.104 C 
BRANCH  18  19
ATOM     19  C   UNL     1       9.807   1.297  24.544  0.00  0.00    +0.022 C 
BRANCH  19  20
ATOM     20  C   UNL     1      10.390   2.189  23.430  0.00  0.00    -0.016 C 
ATOM     21  C   UNL     1       9.942   3.637  23.640  0.00  0.00    +0.007 C 
ATOM     22  C   UNL     1       9.982   1.722  22.031  0.00  0.00    +0.007 C 
ENDBRANCH  19  20
ENDBRANCH  18  19
ENDBRANCH  15  18
ENDBRANCH   1  14
BRANCH   1  23
ATOM     23  C   UNL     1       6.898  -2.354  22.798  0.00  0.00    +0.034 C 
BRANCH  23  24
ATOM     24  C   UNL     1       5.817  -3.312  22.254  0.00  0.00    -0.015 C 
ATOM     25  C   UNL     1       4.841  -3.699  23.370  0.00  0.00    +0.007 C 
ATOM     26  C   UNL     1       6.393  -4.582  21.624  0.00  0.00    +0.007 C 
ENDBRANCH  23  24
ENDBRANCH   1  23
TORSDOF 12
ENDMDL
MODEL 3
REMARK VINA RESULT:      -5.4      2.290      3.971
REMARK  Name = 
REMARK  16 active torsions:
REMARK  status: ('A' for Active; 'I' for Inactive)
REMARK    1  A    between atoms: C_2  and  O_3
REMARK    2  A    between atoms: C_2  and  C_4
REMARK    3  A    between atoms: C_2  and  C_8
REMARK    4  A    between atoms: C_4  and  C_5
REMARK    5  A    between atoms: C_5  and  O_6
REMARK    6  A    between atoms: N_10  and  C_11
REMARK    7  A    between atoms: C_11  and  C_13
REMARK    8  A    between atoms: C_11  and  C_17
REMARK    9  A    between atoms: C_13  and  C_14
REMARK   10  A    between atoms: C_14  and  C_15
REMARK   11  A    between atoms: C_14  and  C_16
REMARK   12  A    between atoms: N_19  and  C_20
REMARK   13  A    between atoms: C_20  and  C_21
REMARK   14  A    between atoms: C_21  and  C_22
REMARK   15  A    between atoms: C_22  and  C_23
REMARK   16  A    between atoms: C_22  and  C_24
REMARK                            x       y       z     vdW  Elec       q    Type
REMARK                         _______ _______ _______ _____ _____    ______ ____
ROOT
ATOM      1  C   UNL     1       8.130  -2.748  22.665  0.00  0.00    +0.159 C 
ENDROOT
BRANCH   1   3
ATOM      2  C   UNL     1       8.280  -4.898  23.933  0.00  0.00    +0.243 C 
ATOM      3  N   UNL     1       8.545  -3.553  23.813  0.00  0.00    -0.302 N 
ATOM      4  H   UNL     1       8.995  -3.035  24.565  0.00  0.00    +0.150 HD
ATOM      5  O   UNL     1       7.722  -5.550  23.059  0.00  0.00    -0.273 OA
BRANCH   2   6
ATOM      6  C   UNL     1       8.786  -5.517  25.249  0.00  0.00    +0.210 C 
BRANCH   6   7
ATOM      7  O   UNL     1      10.217  -5.480  25.356  0.00  0.00    -0.382 OA
ATOM      8  H   UNL     1      10.532  -6.401  25.448  0.00  0.00    +0.210 HD
ENDBRANCH   6   7
BRANCH   6   9
ATOM      9  C   UNL     1       8.217  -4.764  26.442  0.00  0.00    +0.161 C 
BRANCH   9  10
ATOM     10  C   UNL     1       6.992  -5.416  27.029  0.00  0.00    +0.308 C 
ATOM     11  O   UNL     1       5.886  -5.318  26.517  0.00  0.00    -0.251 OA
BRANCH  10  12
ATOM     12  O   UNL     1       7.179  -6.024  28.219  0.00  0.00    -0.481 OA
ATOM     13  H   UNL     1       7.040  -5.421  28.990  0.00  0.00    +0.295 HD
ENDBRANCH  10  12
ENDBRANCH   9  10
ENDBRANCH   6   9
ENDBRANCH   2   6
ENDBRANCH   1   3
BRANCH   1  14
ATOM     14  C   UNL     1       9.251  -1.703  22.492  0.00  0.00    +0.233 C 
ATOM     15  N   UNL     1       8.859  -0.506  21.939  0.00  0.00    -0.314 N 
ATOM     16  H   UNL     1       7.932  -0.423  21.540  0.00  0.00    +0.149 HD
ATOM     17  O   UNL     1      10.405  -1.937  22.854  0.00  0.00    -0.274 OA
BRANCH  15  18
ATOM     18  C   UNL     1       9.784   0.591  21.745  0.00  0.00    +0.104 C 
BRANCH  18  19
ATOM     19  C   UNL     1       9.266   1.908  22.323  0.00  0.00    +0.022 C 
BRANCH  19  20
ATOM     20  C   UNL     1       9.933   2.349  23.641  0.00  0.00    -0.016 C 
ATOM     21  C   UNL     1      11.024   3.382  23.347  0.00  0.00    +0.007 C 
ATOM     22  C   UNL     1      10.533   1.174  24.415  0.00  0.00    +0.007 C 
ENDBRANCH  19  20
ENDBRANCH  18  19
ENDBRANCH  15  18
ENDBRANCH   1  14
BRANCH   1  23
ATOM     23  C   UNL     1       6.761  -2.092  22.938  0.00  0.00    +0.034 C 
BRANCH  23  24
ATOM     24  C   UNL     1       6.515  -1.598  24.379  0.00  0.00    -0.015 C 
ATOM     25  C   UNL     1       5.247  -2.243  24.952  0.00  0.00    +0.007 C 
ATOM     26  C   UNL     1       6.401  -0.076  24.489  0.00  0.00    +0.007 C 
ENDBRANCH  23  24
ENDBRANCH   1  23
TORSDOF 12
ENDMDL
MODEL 4
REMARK VINA RESULT:      -5.4      2.232      3.928
REMARK  Name = 
REMARK  16 active torsions:
REMARK  status: ('A' for Active; 'I' for Inactive)
REMARK    1  A    between atoms: C_2  and  O_3
REMARK    2  A    between atoms: C_2  and  C_4
REMARK    3  A    between atoms: C_2  and  C_8
REMARK    4  A    between atoms: C_4  and  C_5
REMARK    5  A    between atoms: C_5  and  O_6
REMARK    6  A    between atoms: N_10  and  C_11
REMARK    7  A    between atoms: C_11  and  C_13
REMARK    8  A    between atoms: C_11  and  C_17
REMARK    9  A    between atoms: C_13  and  C_14
REMARK   10  A    between atoms: C_14  and  C_15
REMARK   11  A    between atoms: C_14  and  C_16
REMARK   12  A    between atoms: N_19  and  C_20
REMARK   13  A    between atoms: C_20  and  C_21
REMARK   14  A    between atoms: C_21  and  C_22
REMARK   15  A    between atoms: C_22  and  C_23
REMARK   16  A    between atoms: C_22  and  C_24
REMARK                            x       y       z     vdW  Elec       q    Type
REMARK                         _______ _______ _______ _____ _____    ______ ____
ROOT
ATOM      1  C   UNL     1       7.528  -3.329  22.685  0.00  0.00    +0.159 C 
ENDROOT
BRANCH   1   3
ATOM      2  C   UNL     1       8.818  -3.640  24.804  0.00  0.00    +0.243 C 
ATOM      3  N   UNL     1       7.625  -3.481  24.136  0.00  0.00    -0.302 N 
ATOM      4  H   UNL     1       6.736  -3.528  24.628  0.00  0.00    +0.150 HD
ATOM      5  O   UNL     1       9.907  -3.610  24.243  0.00  0.00    -0.273 OA
BRANCH   2   6
ATOM      6  C   UNL     1       8.661  -3.818  26.325  0.00  0.00    +0.210 C 
BRANCH   6   7
ATOM      7  O   UNL     1       7.662  -2.946  26.876  0.00  0.00    -0.382 OA
ATOM      8  H   UNL     1       8.081  -2.076  27.031  0.00  0.00    +0.210 HD
ENDBRANCH   6   7
BRANCH   6   9
ATOM      9  C   UNL     1       8.253  -5.247  26.652  0.00  0.00    +0.161 C 
BRANCH   9  10
ATOM     10  C   UNL     1       6.822  -5.369  27.104  0.00  0.00    +0.308 C 
ATOM     11  O   UNL     1       5.880  -5.311  26.326  0.00  0.00    -0.251 OA
BRANCH  10  12
ATOM     12  O   UNL     1       6.644  -5.435  28.440  0.00  0.00    -0.481 OA
ATOM     13  H   UNL     1       5.733  -5.718  28.698  0.00  0.00    +0.295 HD
ENDBRANCH  10  12
ENDBRANCH   9  10
ENDBRANCH   6   9
ENDBRANCH   2   6
ENDBRANCH   1   3
BRANCH   1  14
ATOM     14  C   UNL     1       7.853  -1.843  22.424  0.00  0.00    +0.233 C 
ATOM     15  N   UNL     1       9.073  -1.604  21.835  0.00  0.00    -0.314 N 
ATOM     16  H   UNL     1       9.740  -2.360  21.748  0.00  0.00    +0.149 HD
ATOM     17  O   UNL     1       7.052  -0.953  22.709  0.00  0.00    -0.274 OA
BRANCH  15  18
ATOM     18  C   UNL     1       9.511  -0.267  21.491  0.00  0.00    +0.104 C 
BRANCH  18  19
ATOM     19  C   UNL     1      10.177   0.455  22.663  0.00  0.00    +0.022 C 
BRANCH  19  20
ATOM     20  C   UNL     1       9.518   1.788  23.067  0.00  0.00    -0.016 C 
ATOM     21  C   UNL     1       8.540   2.232  21.976  0.00  0.00    +0.007 C 
ATOM     22  C   UNL     1      10.542   2.896  23.321  0.00  0.00    +0.007 C 
ENDBRANCH  19  20
ENDBRANCH  18  19
ENDBRANCH  15  18
ENDBRANCH   1  14
BRANCH   1  23
ATOM     23  C   UNL     1       6.114  -3.707  22.200  0.00  0.00    +0.034 C 
BRANCH  23  24
ATOM     24  C   UNL     1       5.878  -5.196  21.873  0.00  0.00    -0.015 C 
ATOM     25  C   UNL     1       4.977  -5.837  22.935  0.00  0.00    +0.007 C 
ATOM     26  C   UNL     1       7.172  -6.004  21.754  0.00  0.00    +0.007 C 
ENDBRANCH  23  24
ENDBRANCH   1  23
TORSDOF 12
ENDMDL
MODEL 5
REMARK VINA RESULT:      -5.4      2.277      4.411
REMARK  Name = 
REMARK  16 active torsions:
REMARK  status: ('A' for Active; 'I' for Inactive)
REMARK    1  A    between atoms: C_2  and  O_3
REMARK    2  A    between atoms: C_2  and  C_4
REMARK    3  A    between atoms: C_2  and  C_8
REMARK    4  A    between atoms: C_4  and  C_5
REMARK    5  A    between atoms: C_5  and  O_6
REMARK    6  A    between atoms: N_10  and  C_11
REMARK    7  A    between atoms: C_11  and  C_13
REMARK    8  A    between atoms: C_11  and  C_17
REMARK    9  A    between atoms: C_13  and  C_14
REMARK   10  A    between atoms: C_14  and  C_15
REMARK   11  A    between atoms: C_14  and  C_16
REMARK   12  A    between atoms: N_19  and  C_20
REMARK   13  A    between atoms: C_20  and  C_21
REMARK   14  A    between atoms: C_21  and  C_22
REMARK   15  A    between atoms: C_22  and  C_23
REMARK   16  A    between atoms: C_22  and  C_24
REMARK                            x       y       z     vdW  Elec       q    Type
REMARK                         _______ _______ _______ _____ _____    ______ ____
ROOT
ATOM      1  C   UNL     1       5.382  -4.264  23.804  0.00  0.00    +0.159 C 
ENDROOT
BRANCH   1   3
ATOM      2  C   UNL     1       6.449  -5.171  25.875  0.00  0.00    +0.243 C 
ATOM      3  N   UNL     1       6.312  -4.181  24.930  0.00  0.00    -0.302 N 
ATOM      4  H   UNL     1       6.816  -3.301  25.012  0.00  0.00    +0.150 HD
ATOM      5  O   UNL     1       5.843  -6.235  25.822  0.00  0.00    -0.273 OA
BRANCH   2   6
ATOM      6  C   UNL     1       7.463  -4.837  26.984  0.00  0.00    +0.210 C 
BRANCH   6   7
ATOM      7  O   UNL     1       8.018  -6.015  27.590  0.00  0.00    -0.382 OA
ATOM      8  H   UNL     1       8.681  -6.382  26.972  0.00  0.00    +0.210 HD
ENDBRANCH   6   7
BRANCH   6   9
ATOM      9  C   UNL     1       8.619  -4.025  26.417  0.00  0.00    +0.161 C 
BRANCH   9  10
ATOM     10  C   UNL     1       9.423  -4.773  25.386  0.00  0.00    +0.308 C 
ATOM     11  O   UNL     1       9.225  -4.653  24.185  0.00  0.00    -0.251 OA
BRANCH  10  12
ATOM     12  O   UNL     1      10.302  -5.669  25.882  0.00  0.00    -0.481 OA
ATOM     13  H   UNL     1      10.058  -5.996  26.783  0.00  0.00    +0.295 HD
ENDBRANCH  10  12
ENDBRANCH   9  10
ENDBRANCH   6   9
ENDBRANCH   2   6
ENDBRANCH   1   3
BRANCH   1  14
ATOM     14  C   UNL     1       6.025  -3.400  22.700  0.00  0.00    +0.233 C 
ATOM     15  N   UNL     1       7.191  -2.763  23.057  0.00  0.00    -0.314 N 
ATOM     16  H   UNL     1       7.478  -2.759  24.027  0.00  0.00    +0.149 HD
ATOM     17  O   UNL     1       5.525  -3.319  21.577  0.00  0.00    -0.274 OA
BRANCH  15  18
ATOM     18  C   UNL     1       7.936  -1.945  22.123  0.00  0.00    +0.104 C 
BRANCH  18  19
ATOM     19  C   UNL     1       9.310  -1.540  22.659  0.00  0.00    +0.022 C 
BRANCH  19  20
ATOM     20  C   UNL     1       9.447  -0.054  23.046  0.00  0.00    -0.016 C 
ATOM     21  C   UNL     1       9.653   0.790  21.785  0.00  0.00    +0.007 C 
ATOM     22  C   UNL     1      10.597   0.193  24.024  0.00  0.00    +0.007 C 
ENDBRANCH  19  20
ENDBRANCH  18  19
ENDBRANCH  15  18
ENDBRANCH   1  14
BRANCH   1  23
ATOM     23  C   UNL     1       3.992  -3.738  24.218  0.00  0.00    +0.034 C 
BRANCH  23  24
ATOM     24  C   UNL     1       2.814  -4.723  24.064  0.00  0.00    -0.015 C 
ATOM     25  C   UNL     1       2.332  -5.193  25.442  0.00  0.00    +0.007 C 
ATOM     26  C   UNL     1       3.150  -5.943  23.204  0.00  0.00    +0.007 C 
ENDBRANCH  23  24
ENDBRANCH   1  23
TORSDOF 12
ENDMDL
MODEL 6
REMARK VINA RESULT:      -5.3      1.934      6.207
REMARK  Name = 
REMARK  16 active torsions:
REMARK  status: ('A' for Active; 'I' for Inactive)
REMARK    1  A    between atoms: C_2  and  O_3
REMARK    2  A    between atoms: C_2  and  C_4
REMARK    3  A    between atoms: C_2  and  C_8
REMARK    4  A    between atoms: C_4  and  C_5
REMARK    5  A    between atoms: C_5  and  O_6
REMARK    6  A    between atoms: N_10  and  C_11
REMARK    7  A    between atoms: C_11  and  C_13
REMARK    8  A    between atoms: C_11  and  C_17
REMARK    9  A    between atoms: C_13  and  C_14
REMARK   10  A    between atoms: C_14  and  C_15
REMARK   11  A    between atoms: C_14  and  C_16
REMARK   12  A    between atoms: N_19  and  C_20
REMARK   13  A    between atoms: C_20  and  C_21
REMARK   14  A    between atoms: C_21  and  C_22
REMARK   15  A    between atoms: C_22  and  C_23
REMARK   16  A    between atoms: C_22  and  C_24
REMARK                            x       y       z     vdW  Elec       q    Type
REMARK                         _______ _______ _______ _____ _____    ______ ____
ROOT
ATOM      1  C   UNL     1       8.552  -2.977  23.890  0.00  0.00    +0.159 C 
ENDROOT
BRANCH   1   3
ATOM      2  C   UNL     1       9.791  -1.091  22.814  0.00  0.00    +0.243 C 
ATOM      3  N   UNL     1       8.728  -1.566  23.546  0.00  0.00    -0.302 N 
ATOM      4  H   UNL     1       8.037  -0.934  23.944  0.00  0.00    +0.150 HD
ATOM      5  O   UNL     1      10.654  -1.819  22.338  0.00  0.00    -0.273 OA
BRANCH   2   6
ATOM      6  C   UNL     1       9.776   0.435  22.614  0.00  0.00    +0.210 C 
BRANCH   6   7
ATOM      7  O   UNL     1       9.503   0.805  21.254  0.00  0.00    -0.382 OA
ATOM      8  H   UNL     1      10.156   0.349  20.686  0.00  0.00    +0.210 HD
ENDBRANCH   6   7
BRANCH   6   9
ATOM      9  C   UNL     1       8.705   1.074  23.486  0.00  0.00    +0.161 C 
BRANCH   9  10
ATOM     10  C   UNL     1       7.440   1.398  22.734  0.00  0.00    +0.308 C 
ATOM     11  O   UNL     1       7.182   2.526  22.338  0.00  0.00    -0.251 OA
BRANCH  10  12
ATOM     12  O   UNL     1       6.560   0.381  22.625  0.00  0.00    -0.481 OA
ATOM     13  H   UNL     1       5.621   0.684  22.569  0.00  0.00    +0.295 HD
ENDBRANCH  10  12
ENDBRANCH   9  10
ENDBRANCH   6   9
ENDBRANCH   2   6
ENDBRANCH   1   3
BRANCH   1  14
ATOM     14  C   UNL     1       7.511  -3.500  22.879  0.00  0.00    +0.233 C 
ATOM     15  N   UNL     1       7.377  -4.869  22.828  0.00  0.00    -0.314 N 
ATOM     16  H   UNL     1       8.046  -5.452  23.315  0.00  0.00    +0.149 HD
ATOM     17  O   UNL     1       6.842  -2.727  22.192  0.00  0.00    -0.274 OA
BRANCH  15  18
ATOM     18  C   UNL     1       6.417  -5.515  21.957  0.00  0.00    +0.104 C 
BRANCH  18  19
ATOM     19  C   UNL     1       5.140  -5.927  22.690  0.00  0.00    +0.022 C 
BRANCH  19  20
ATOM     20  C   UNL     1       5.120  -5.601  24.196  0.00  0.00    -0.016 C 
ATOM     21  C   UNL     1       4.624  -6.818  24.981  0.00  0.00    +0.007 C 
ATOM     22  C   UNL     1       4.245  -4.388  24.521  0.00  0.00    +0.007 C 
ENDBRANCH  19  20
ENDBRANCH  18  19
ENDBRANCH  15  18
ENDBRANCH   1  14
BRANCH   1  23
ATOM     23  C   UNL     1       8.066  -3.117  25.347  0.00  0.00    +0.034 C 
BRANCH  23  24
ATOM     24  C   UNL     1       8.766  -4.195  26.201  0.00  0.00    -0.015 C 
ATOM     25  C   UNL     1       9.852  -4.900  25.381  0.00  0.00    +0.007 C 
ATOM     26  C   UNL     1       7.802  -5.240  26.768  0.00  0.00    +0.007 C 
ENDBRANCH  23  24
ENDBRANCH   1  23
TORSDOF 12
ENDMDL
MODEL 7
REMARK VINA RESULT:      -5.2      2.895      6.911
REMARK  Name = 
REMARK  16 active torsions:
REMARK  status: ('A' for Active; 'I' for Inactive)
REMARK    1  A    between atoms: C_2  and  O_3
REMARK    2  A    between atoms: C_2  and  C_4
REMARK    3  A    between atoms: C_2  and  C_8
REMARK    4  A    between atoms: C_4  and  C_5
REMARK    5  A    between atoms: C_5  and  O_6
REMARK    6  A    between atoms: N_10  and  C_11
REMARK    7  A    between atoms: C_11  and  C_13
REMARK    8  A    between atoms: C_11  and  C_17
REMARK    9  A    between atoms: C_13  and  C_14
REMARK   10  A    between atoms: C_14  and  C_15
REMARK   11  A    between atoms: C_14  and  C_16
REMARK   12  A    between atoms: N_19  and  C_20
REMARK   13  A    between atoms: C_20  and  C_21
REMARK   14  A    between atoms: C_21  and  C_22
REMARK   15  A    between atoms: C_22  and  C_23
REMARK   16  A    between atoms: C_22  and  C_24
REMARK                            x       y       z     vdW  Elec       q    Type
REMARK                         _______ _______ _______ _____ _____    ______ ____
ROOT
ATOM      1  C   UNL     1       9.354  -1.042  24.659  0.00  0.00    +0.159 C 
ENDROOT
BRANCH   1   3
ATOM      2  C   UNL     1      10.472   1.072  23.930  0.00  0.00    +0.243 C 
ATOM      3  N   UNL     1       9.397   0.214  23.910  0.00  0.00    -0.302 N 
ATOM      4  H   UNL     1       8.541   0.453  23.414  0.00  0.00    +0.150 HD
ATOM      5  O   UNL     1      11.511   0.829  24.532  0.00  0.00    -0.273 OA
BRANCH   2   6
ATOM      6  C   UNL     1      10.267   2.347  23.092  0.00  0.00    +0.210 C 
BRANCH   6   7
ATOM      7  O   UNL     1      10.073   2.060  21.698  0.00  0.00    -0.382 OA
ATOM      8  H   UNL     1       9.111   2.063  21.525  0.00  0.00    +0.210 HD
ENDBRANCH   6   7
BRANCH   6   9
ATOM      9  C   UNL     1       9.041   3.108  23.577  0.00  0.00    +0.161 C 
BRANCH   9  10
ATOM     10  C   UNL     1       7.902   3.093  22.592  0.00  0.00    +0.308 C 
ATOM     11  O   UNL     1       7.243   2.088  22.364  0.00  0.00    -0.251 OA
BRANCH  10  12
ATOM     12  O   UNL     1       7.729   4.236  21.895  0.00  0.00    -0.481 OA
ATOM     13  H   UNL     1       7.131   4.880  22.348  0.00  0.00    +0.295 HD
ENDBRANCH  10  12
ENDBRANCH   9  10
ENDBRANCH   6   9
ENDBRANCH   2   6
ENDBRANCH   1   3
BRANCH   1  14
ATOM     14  C   UNL     1       9.187  -2.134  23.582  0.00  0.00    +0.233 C 
ATOM     15  N   UNL     1       7.911  -2.631  23.443  0.00  0.00    -0.314 N 
ATOM     16  H   UNL     1       7.206  -2.388  24.126  0.00  0.00    +0.149 HD
ATOM     17  O   UNL     1      10.138  -2.503  22.892  0.00  0.00    -0.274 OA
BRANCH  15  18
ATOM     18  C   UNL     1       7.582  -3.634  22.451  0.00  0.00    +0.104 C 
BRANCH  18  19
ATOM     19  C   UNL     1       7.549  -5.048  23.032  0.00  0.00    +0.022 C 
BRANCH  19  20
ATOM     20  C   UNL     1       6.464  -5.970  22.440  0.00  0.00    -0.016 C 
ATOM     21  C   UNL     1       6.259  -5.640  20.959  0.00  0.00    +0.007 C 
ATOM     22  C   UNL     1       5.131  -5.858  23.182  0.00  0.00    +0.007 C 
ENDBRANCH  19  20
ENDBRANCH  18  19
ENDBRANCH  15  18
ENDBRANCH   1  14
BRANCH   1  23
ATOM     23  C   UNL     1       8.181  -1.028  25.659  0.00  0.00    +0.034 C 
BRANCH  23  24
ATOM     24  C   UNL     1       7.307   0.244  25.673  0.00  0.00    -0.015 C 
ATOM     25  C   UNL     1       7.149   0.764  27.107  0.00  0.00    +0.007 C 
ATOM     26  C   UNL     1       5.923   0.038  25.054  0.00  0.00    +0.007 C 
ENDBRANCH  23  24
ENDBRANCH   1  23
TORSDOF 12
ENDMDL
MODEL 8
REMARK VINA RESULT:      -5.2      1.862      6.225
REMARK  Name = 
REMARK  16 active torsions:
REMARK  status: ('A' for Active; 'I' for Inactive)
REMARK    1  A    between atoms: C_2  and  O_3
REMARK    2  A    between atoms: C_2  and  C_4
REMARK    3  A    between atoms: C_2  and  C_8
REMARK    4  A    between atoms: C_4  and  C_5
REMARK    5  A    between atoms: C_5  and  O_6
REMARK    6  A    between atoms: N_10  and  C_11
REMARK    7  A    between atoms: C_11  and  C_13
REMARK    8  A    between atoms: C_11  and  C_17
REMARK    9  A    between atoms: C_13  and  C_14
REMARK   10  A    between atoms: C_14  and  C_15
REMARK   11  A    between atoms: C_14  and  C_16
REMARK   12  A    between atoms: N_19  and  C_20
REMARK   13  A    between atoms: C_20  and  C_21
REMARK   14  A    between atoms: C_21  and  C_22
REMARK   15  A    between atoms: C_22  and  C_23
REMARK   16  A    between atoms: C_22  and  C_24
REMARK                            x       y       z     vdW  Elec       q    Type
REMARK                         _______ _______ _______ _____ _____    ______ ____
ROOT
ATOM      1  C   UNL     1       9.097  -2.821  24.508  0.00  0.00    +0.159 C 
ENDROOT
BRANCH   1   3
ATOM      2  C   UNL     1       8.950  -0.351  24.868  0.00  0.00    +0.243 C 
ATOM      3  N   UNL     1       9.651  -1.468  24.474  0.00  0.00    -0.302 N 
ATOM      4  H   UNL     1      10.583  -1.390  24.072  0.00  0.00    +0.150 HD
ATOM      5  O   UNL     1       7.819  -0.403  25.336  0.00  0.00    -0.273 OA
BRANCH   2   6
ATOM      6  C   UNL     1       9.732   0.964  24.705  0.00  0.00    +0.210 C 
BRANCH   6   7
ATOM      7  O   UNL     1      11.134   0.744  24.487  0.00  0.00    -0.382 OA
ATOM      8  H   UNL     1      11.600   0.953  25.320  0.00  0.00    +0.210 HD
ENDBRANCH   6   7
BRANCH   6   9
ATOM      9  C   UNL     1       9.201   1.752  23.516  0.00  0.00    +0.161 C 
BRANCH   9  10
ATOM     10  C   UNL     1       9.871   1.392  22.216  0.00  0.00    +0.308 C 
ATOM     11  O   UNL     1       9.987   0.235  21.835  0.00  0.00    -0.251 OA
BRANCH  10  12
ATOM     12  O   UNL     1      10.434   2.424  21.554  0.00  0.00    -0.481 OA
ATOM     13  H   UNL     1      10.493   2.274  20.578  0.00  0.00    +0.295 HD
ENDBRANCH  10  12
ENDBRANCH   9  10
ENDBRANCH   6   9
ENDBRANCH   2   6
ENDBRANCH   1   3
BRANCH   1  14
ATOM     14  C   UNL     1       7.994  -2.820  23.431  0.00  0.00    +0.233 C 
ATOM     15  N   UNL     1       6.713  -2.996  23.901  0.00  0.00    -0.314 N 
ATOM     16  H   UNL     1       6.571  -3.265  24.866  0.00  0.00    +0.149 HD
ATOM     17  O   UNL     1       8.262  -2.649  22.241  0.00  0.00    -0.274 OA
BRANCH  15  18
ATOM     18  C   UNL     1       5.563  -2.983  23.021  0.00  0.00    +0.104 C 
BRANCH  18  19
ATOM     19  C   UNL     1       4.795  -4.305  23.034  0.00  0.00    +0.022 C 
BRANCH  19  20
ATOM     20  C   UNL     1       5.627  -5.538  23.440  0.00  0.00    -0.016 C 
ATOM     21  C   UNL     1       6.335  -6.111  22.210  0.00  0.00    +0.007 C 
ATOM     22  C   UNL     1       4.779  -6.626  24.100  0.00  0.00    +0.007 C 
ENDBRANCH  19  20
ENDBRANCH  18  19
ENDBRANCH  15  18
ENDBRANCH   1  14
BRANCH   1  23
ATOM     23  C   UNL     1       8.539  -3.135  25.911  0.00  0.00    +0.034 C 
BRANCH  23  24
ATOM     24  C   UNL     1       8.723  -4.583  26.412  0.00  0.00    -0.015 C 
ATOM     25  C   UNL     1       9.387  -5.440  25.328  0.00  0.00    +0.007 C 
ATOM     26  C   UNL     1       7.414  -5.246  26.849  0.00  0.00    +0.007 C 
ENDBRANCH  23  24
ENDBRANCH   1  23
TORSDOF 12
ENDMDL
MODEL 9
REMARK VINA RESULT:      -5.2      2.262      6.703
REMARK  Name = 
REMARK  16 active torsions:
REMARK  status: ('A' for Active; 'I' for Inactive)
REMARK    1  A    between atoms: C_2  and  O_3
REMARK    2  A    between atoms: C_2  and  C_4
REMARK    3  A    between atoms: C_2  and  C_8
REMARK    4  A    between atoms: C_4  and  C_5
REMARK    5  A    between atoms: C_5  and  O_6
REMARK    6  A    between atoms: N_10  and  C_11
REMARK    7  A    between atoms: C_11  and  C_13
REMARK    8  A    between atoms: C_11  and  C_17
REMARK    9  A    between atoms: C_13  and  C_14
REMARK   10  A    between atoms: C_14  and  C_15
REMARK   11  A    between atoms: C_14  and  C_16
REMARK   12  A    between atoms: N_19  and  C_20
REMARK   13  A    between atoms: C_20  and  C_21
REMARK   14  A    between atoms: C_21  and  C_22
REMARK   15  A    between atoms: C_22  and  C_23
REMARK   16  A    between atoms: C_22  and  C_24
REMARK                            x       y       z     vdW  Elec       q    Type
REMARK                         _______ _______ _______ _____ _____    ______ ____
ROOT
ATOM      1  C   UNL     1       8.643  -1.436  24.041  0.00  0.00    +0.159 C 
ENDROOT
BRANCH   1   3
ATOM      2  C   UNL     1       9.533   0.094  22.275  0.00  0.00    +0.243 C 
ATOM      3  N   UNL     1       9.087  -0.129  23.558  0.00  0.00    -0.302 N 
ATOM      4  H   UNL     1       9.109   0.608  24.259  0.00  0.00    +0.150 HD
ATOM      5  O   UNL     1       9.542  -0.773  21.410  0.00  0.00    -0.273 OA
BRANCH   2   6
ATOM      6  C   UNL     1       9.981   1.544  22.016  0.00  0.00    +0.210 C 
BRANCH   6   7
ATOM      7  O   UNL     1       8.913   2.365  21.519  0.00  0.00    -0.382 OA
ATOM      8  H   UNL     1       8.409   1.836  20.869  0.00  0.00    +0.210 HD
ENDBRANCH   6   7
BRANCH   6   9
ATOM      9  C   UNL     1      10.489   2.180  23.301  0.00  0.00    +0.161 C 
BRANCH   9  10
ATOM     10  C   UNL     1       9.583   3.262  23.828  0.00  0.00    +0.308 C 
ATOM     11  O   UNL     1       8.596   3.019  24.509  0.00  0.00    -0.251 OA
BRANCH  10  12
ATOM     12  O   UNL     1       9.872   4.510  23.405  0.00  0.00    -0.481 OA
ATOM     13  H   UNL     1       9.347   4.783  22.613  0.00  0.00    +0.295 HD
ENDBRANCH  10  12
ENDBRANCH   9  10
ENDBRANCH   6   9
ENDBRANCH   2   6
ENDBRANCH   1   3
BRANCH   1  14
ATOM     14  C   UNL     1       7.209  -1.589  23.495  0.00  0.00    +0.233 C 
ATOM     15  N   UNL     1       7.024  -2.625  22.609  0.00  0.00    -0.314 N 
ATOM     16  H   UNL     1       7.830  -3.119  22.247  0.00  0.00    +0.149 HD
ATOM     17  O   UNL     1       6.302  -0.839  23.859  0.00  0.00    -0.274 OA
BRANCH  15  18
ATOM     18  C   UNL     1       5.729  -2.924  22.035  0.00  0.00    +0.104 C 
BRANCH  18  19
ATOM     19  C   UNL     1       5.029  -4.090  22.735  0.00  0.00    +0.022 C 
BRANCH  19  20
ATOM     20  C   UNL     1       5.973  -5.145  23.344  0.00  0.00    -0.016 C 
ATOM     21  C   UNL     1       6.347  -6.179  22.279  0.00  0.00    +0.007 C 
ATOM     22  C   UNL     1       5.358  -5.853  24.554  0.00  0.00    +0.007 C 
ENDBRANCH  19  20
ENDBRANCH  18  19
ENDBRANCH  15  18
ENDBRANCH   1  14
BRANCH   1  23
ATOM     23  C   UNL     1       8.686  -1.480  25.582  0.00  0.00    +0.034 C 
BRANCH  23  24
ATOM     24  C   UNL     1       8.530  -2.871  26.232  0.00  0.00    -0.015 C 
ATOM     25  C   UNL     1       9.060  -3.959  25.291  0.00  0.00    +0.007 C 
ATOM     26  C   UNL     1       7.087  -3.200  26.624  0.00  0.00    +0.007 C 
ENDBRANCH  23  24
ENDBRANCH   1  23
TORSDOF 12
ENDMDL
