MODEL 1
REMARK VINA RESULT:      -5.6      0.000      0.000
REMARK  Name = 
REMARK  6 active torsions:
REMARK  status: ('A' for Active; 'I' for Inactive)
REMARK    1  A    between atoms: O_1  and  C_2
REMARK    2  A    between atoms: C_5  and  C_15
REMARK    3  A    between atoms: C_8  and  O_10
REMARK    4  A    between atoms: O_10  and  S_11
REMARK    5  A    between atoms: S_11  and  O_12
REMARK    6  A    between atoms: C_15  and  O_16
REMARK                            x       y       z     vdW  Elec       q    Type
REMARK                         _______ _______ _______ _____ _____    ______ ____
ROOT
ATOM      1  C   UNL     1       9.018  -0.592  24.789  0.00  0.00    +0.176 C 
ATOM      2  C   UNL     1       9.753  -0.338  23.457  0.00  0.00    +0.221 C 
ATOM      3  C   UNL     1      10.158  -1.636  22.736  0.00  0.00    +0.266 C 
ATOM      4  O   UNL     1      10.422  -2.777  23.552  0.00  0.00    -0.483 OA
ATOM      5  C   UNL     1       9.441  -3.013  24.493  0.00  0.00    +0.203 C 
ATOM      6  C   UNL     1       8.780  -2.025  25.109  0.00  0.00    +0.059 C 
ENDROOT
BRANCH   1   7
ATOM      7  O   UNL     1       9.749  -0.018  25.875  0.00  0.00    -0.385 OA
ATOM      8  H   UNL     1       9.884  -0.702  26.552  0.00  0.00    +0.210 HD
ENDBRANCH   1   7
BRANCH   5   9
ATOM      9  C   UNL     1       9.136  -4.432  24.849  0.00  0.00    +0.372 C 
ATOM     10  O   UNL     1       8.020  -4.898  24.987  0.00  0.00    -0.242 OA
BRANCH   9  11
ATOM     11  O   UNL     1      10.275  -5.150  24.964  0.00  0.00    -0.475 OA
ATOM     12  H   UNL     1      10.905  -4.709  25.573  0.00  0.00    +0.296 HD
ENDBRANCH   9  11
ENDBRANCH   5   9
BRANCH   2  13
ATOM     13  O   UNL     1       8.868   0.417  22.612  0.00  0.00    -0.206 OA
BRANCH  13  14
ATOM     14  S   UNL     1       9.011   2.028  22.554  0.00  0.00    +0.208 S 
ATOM     15  O   UNL     1       9.407   2.505  23.857  0.00  0.00    -0.118 OA
ATOM     16  O   UNL     1       7.856   2.554  21.863  0.00  0.00    -0.118 OA
BRANCH  14  17
ATOM     17  O   UNL     1      10.253   2.230  21.552  0.00  0.00    -0.231 OA
ATOM     18  H   UNL     1      10.203   1.531  20.866  0.00  0.00    +0.247 HD
ENDBRANCH  14  17
ENDBRANCH  13  14
ENDBRANCH   2  13
TORSDOF 6
ENDMDL
MODEL 2
REMARK VINA RESULT:      -5.6      2.407      5.723
REMARK  Name = 
REMARK  6 active torsions:
REMARK  status: ('A' for Active; 'I' for Inactive)
REMARK    1  A    between atoms: O_1  and  C_2
REMARK    2  A    between atoms: C_5  and  C_15
REMARK    3  A    between atoms: C_8  and  O_10
REMARK    4  A    between atoms: O_10  and  S_11
REMARK    5  A    between atoms: S_11  and  O_12
REMARK    6  A    between atoms: C_15  and  O_16
REMARK                            x       y       z     vdW  Elec       q    Type
REMARK                         _______ _______ _______ _____ _____    ______ ____
ROOT
ATOM      1  C   UNL     1       7.880  -1.570  23.366  0.00  0.00    +0.176 C 
ATOM      2  C   UNL     1       9.171  -2.358  23.063  0.00  0.00    +0.221 C 
ATOM      3  C   UNL     1      10.246  -1.507  22.364  0.00  0.00    +0.266 C 
ATOM      4  O   UNL     1       9.789  -0.435  21.538  0.00  0.00    -0.483 OA
ATOM      5  C   UNL     1       8.842   0.359  22.150  0.00  0.00    +0.203 C 
ATOM      6  C   UNL     1       7.922  -0.132  22.988  0.00  0.00    +0.059 C 
ENDROOT
BRANCH   1   7
ATOM      7  O   UNL     1       6.768  -2.166  22.695  0.00  0.00    -0.385 OA
ATOM      8  H   UNL     1       6.893  -3.131  22.689  0.00  0.00    +0.210 HD
ENDBRANCH   1   7
BRANCH   5   9
ATOM      9  C   UNL     1       8.838   1.819  21.831  0.00  0.00    +0.372 C 
ATOM     10  O   UNL     1       7.854   2.535  21.828  0.00  0.00    -0.242 OA
BRANCH   9  11
ATOM     11  O   UNL     1      10.092   2.256  21.578  0.00  0.00    -0.475 OA
ATOM     12  H   UNL     1      10.757   1.652  21.970  0.00  0.00    +0.296 HD
ENDBRANCH   9  11
ENDBRANCH   5   9
BRANCH   2  13
ATOM     13  O   UNL     1       9.689  -2.838  24.316  0.00  0.00    -0.206 OA
BRANCH  13  14
ATOM     14  S   UNL     1       9.094  -4.205  24.947  0.00  0.00    +0.208 S 
ATOM     15  O   UNL     1       8.158  -4.778  24.012  0.00  0.00    -0.118 OA
ATOM     16  O   UNL     1       8.740  -3.943  26.324  0.00  0.00    -0.118 OA
BRANCH  14  17
ATOM     17  O   UNL     1      10.391  -5.155  25.000  0.00  0.00    -0.231 OA
ATOM     18  H   UNL     1      10.698  -5.295  24.079  0.00  0.00    +0.247 HD
ENDBRANCH  14  17
ENDBRANCH  13  14
ENDBRANCH   2  13
TORSDOF 6
ENDMDL
MODEL 3
REMARK VINA RESULT:      -5.3      2.838      6.131
REMARK  Name = 
REMARK  6 active torsions:
REMARK  status: ('A' for Active; 'I' for Inactive)
REMARK    1  A    between atoms: O_1  and  C_2
REMARK    2  A    between atoms: C_5  and  C_15
REMARK    3  A    between atoms: C_8  and  O_10
REMARK    4  A    between atoms: O_10  and  S_11
REMARK    5  A    between atoms: S_11  and  O_12
REMARK    6  A    between atoms: C_15  and  O_16
REMARK                            x       y       z     vdW  Elec       q    Type
REMARK                         _______ _______ _______ _____ _____    ______ ____
ROOT
ATOM      1  C   UNL     1       8.777   1.400  22.376  0.00  0.00    +0.176 C 
ATOM      2  C   UNL     1       9.998   0.668  22.972  0.00  0.00    +0.221 C 
ATOM      3  C   UNL     1      10.816   1.547  23.933  0.00  0.00    +0.266 C 
ATOM      4  O   UNL     1      10.808   2.955  23.692  0.00  0.00    -0.483 OA
ATOM      5  C   UNL     1       9.542   3.467  23.502  0.00  0.00    +0.203 C 
ATOM      6  C   UNL     1       8.575   2.787  22.874  0.00  0.00    +0.059 C 
ENDROOT
BRANCH   1   7
ATOM      7  O   UNL     1       8.882   1.457  20.952  0.00  0.00    -0.385 OA
ATOM      8  H   UNL     1       8.000   1.305  20.572  0.00  0.00    +0.210 HD
ENDBRANCH   1   7
BRANCH   5   9
ATOM      9  C   UNL     1       9.262   4.850  23.995  0.00  0.00    +0.372 C 
ATOM     10  O   UNL     1       9.043   5.153  25.154  0.00  0.00    -0.242 OA
BRANCH   9  11
ATOM     11  O   UNL     1       9.320   5.740  22.979  0.00  0.00    -0.475 OA
ATOM     12  H   UNL     1       9.319   6.659  23.319  0.00  0.00    +0.296 HD
ENDBRANCH   9  11
ENDBRANCH   5   9
BRANCH   2  13
ATOM     13  O   UNL     1       9.508  -0.482  23.683  0.00  0.00    -0.206 OA
BRANCH  13  14
ATOM     14  S   UNL     1       9.442  -1.912  22.928  0.00  0.00    +0.208 S 
ATOM     15  O   UNL     1       8.088  -2.140  22.485  0.00  0.00    -0.118 OA
ATOM     16  O   UNL     1      10.158  -2.875  23.733  0.00  0.00    -0.118 OA
BRANCH  14  17
ATOM     17  O   UNL     1      10.355  -1.660  21.628  0.00  0.00    -0.231 OA
ATOM     18  H   UNL     1      11.196  -2.148  21.752  0.00  0.00    +0.247 HD
ENDBRANCH  14  17
ENDBRANCH  13  14
ENDBRANCH   2  13
TORSDOF 6
ENDMDL
MODEL 4
REMARK VINA RESULT:      -5.3      2.873      5.959
REMARK  Name = 
REMARK  6 active torsions:
REMARK  status: ('A' for Active; 'I' for Inactive)
REMARK    1  A    between atoms: O_1  and  C_2
REMARK    2  A    between atoms: C_5  and  C_15
REMARK    3  A    between atoms: C_8  and  O_10
REMARK    4  A    between atoms: O_10  and  S_11
REMARK    5  A    between atoms: S_11  and  O_12
REMARK    6  A    between atoms: C_15  and  O_16
REMARK                            x       y       z     vdW  Elec       q    Type
REMARK                         _______ _______ _______ _____ _____    ______ ____
ROOT
ATOM      1  C   UNL     1       9.321  -1.724  21.938  0.00  0.00    +0.176 C 
ATOM      2  C   UNL     1       8.032  -2.151  22.668  0.00  0.00    +0.221 C 
ATOM      3  C   UNL     1       7.121  -0.964  23.026  0.00  0.00    +0.266 C 
ATOM      4  O   UNL     1       7.756   0.293  23.262  0.00  0.00    -0.483 OA
ATOM      5  C   UNL     1       8.664   0.637  22.282  0.00  0.00    +0.203 C 
ATOM      6  C   UNL     1       9.429  -0.267  21.658  0.00  0.00    +0.059 C 
ENDROOT
BRANCH   1   7
ATOM      7  O   UNL     1      10.470  -2.109  22.696  0.00  0.00    -0.385 OA
ATOM      8  H   UNL     1      10.842  -1.315  23.116  0.00  0.00    +0.210 HD
ENDBRANCH   1   7
BRANCH   5   9
ATOM      9  C   UNL     1       8.810   2.084  21.937  0.00  0.00    +0.372 C 
ATOM     10  O   UNL     1       7.923   2.916  22.004  0.00  0.00    -0.242 OA
BRANCH   9  11
ATOM     11  O   UNL     1      10.081   2.361  21.569  0.00  0.00    -0.475 OA
ATOM     12  H   UNL     1      10.602   2.686  22.332  0.00  0.00    +0.296 HD
ENDBRANCH   9  11
ENDBRANCH   5   9
BRANCH   2  13
ATOM     13  O   UNL     1       7.320  -3.049  21.799  0.00  0.00    -0.206 OA
BRANCH  13  14
ATOM     14  S   UNL     1       6.508  -4.294  22.440  0.00  0.00    +0.208 S 
ATOM     15  O   UNL     1       5.103  -4.123  22.161  0.00  0.00    -0.118 OA
ATOM     16  O   UNL     1       7.004  -4.509  23.780  0.00  0.00    -0.118 OA
BRANCH  14  17
ATOM     17  O   UNL     1       7.040  -5.539  21.571  0.00  0.00    -0.231 OA
ATOM     18  H   UNL     1       7.867  -5.261  21.122  0.00  0.00    +0.247 HD
ENDBRANCH  14  17
ENDBRANCH  13  14
ENDBRANCH   2  13
TORSDOF 6
ENDMDL
MODEL 5
REMARK VINA RESULT:      -5.2      2.363      5.785
REMARK  Name = 
REMARK  6 active torsions:
REMARK  status: ('A' for Active; 'I' for Inactive)
REMARK    1  A    between atoms: O_1  and  C_2
REMARK    2  A    between atoms: C_5  and  C_15
REMARK    3  A    between atoms: C_8  and  O_10
REMARK    4  A    between atoms: O_10  and  S_11
REMARK    5  A    between atoms: S_11  and  O_12
REMARK    6  A    between atoms: C_15  and  O_16
REMARK                            x       y       z     vdW  Elec       q    Type
REMARK                         _______ _______ _______ _____ _____    ______ ____
ROOT
ATOM      1  C   UNL     1       9.519  -0.963  22.456  0.00  0.00    +0.176 C 
ATOM      2  C   UNL     1       9.739  -1.491  23.888  0.00  0.00    +0.221 C 
ATOM      3  C   UNL     1      10.119  -0.384  24.887  0.00  0.00    +0.266 C 
ATOM      4  O   UNL     1      10.825   0.743  24.369  0.00  0.00    -0.483 OA
ATOM      5  C   UNL     1      10.249   1.271  23.232  0.00  0.00    +0.203 C 
ATOM      6  C   UNL     1       9.653   0.511  22.306  0.00  0.00    +0.059 C 
ENDROOT
BRANCH   1   7
ATOM      7  O   UNL     1      10.441  -1.579  21.554  0.00  0.00    -0.385 OA
ATOM      8  H   UNL     1      11.237  -1.023  21.500  0.00  0.00    +0.210 HD
ENDBRANCH   1   7
BRANCH   5   9
ATOM      9  C   UNL     1      10.329   2.750  23.026  0.00  0.00    +0.372 C 
ATOM     10  O   UNL     1      11.242   3.463  23.399  0.00  0.00    -0.242 OA
BRANCH   9  11
ATOM     11  O   UNL     1       9.258   3.193  22.332  0.00  0.00    -0.475 OA
ATOM     12  H   UNL     1       9.525   3.863  21.668  0.00  0.00    +0.296 HD
ENDBRANCH   9  11
ENDBRANCH   5   9
BRANCH   2  13
ATOM     13  O   UNL     1       8.513  -2.112  24.313  0.00  0.00    -0.206 OA
BRANCH  13  14
ATOM     14  S   UNL     1       8.447  -3.723  24.452  0.00  0.00    +0.208 S 
ATOM     15  O   UNL     1       7.474  -4.061  25.462  0.00  0.00    -0.118 OA
ATOM     16  O   UNL     1       9.803  -4.224  24.496  0.00  0.00    -0.118 OA
BRANCH  14  17
ATOM     17  O   UNL     1       7.859  -4.171  23.024  0.00  0.00    -0.231 OA
ATOM     18  H   UNL     1       8.428  -3.779  22.328  0.00  0.00    +0.247 HD
ENDBRANCH  14  17
ENDBRANCH  13  14
ENDBRANCH   2  13
TORSDOF 6
ENDMDL
MODEL 6
REMARK VINA RESULT:      -5.2      3.489      4.756
REMARK  Name = 
REMARK  6 active torsions:
REMARK  status: ('A' for Active; 'I' for Inactive)
REMARK    1  A    between atoms: O_1  and  C_2
REMARK    2  A    between atoms: C_5  and  C_15
REMARK    3  A    between atoms: C_8  and  O_10
REMARK    4  A    between atoms: O_10  and  S_11
REMARK    5  A    between atoms: S_11  and  O_12
REMARK    6  A    between atoms: C_15  and  O_16
REMARK                            x       y       z     vdW  Elec       q    Type
REMARK                         _______ _______ _______ _____ _____    ______ ____
ROOT
ATOM      1  C   UNL     1       7.607  -4.539  23.788  0.00  0.00    +0.176 C 
ATOM      2  C   UNL     1       7.708  -3.609  22.562  0.00  0.00    +0.221 C 
ATOM      3  C   UNL     1       6.439  -3.620  21.692  0.00  0.00    +0.266 C 
ATOM      4  O   UNL     1       5.670  -4.822  21.681  0.00  0.00    -0.483 OA
ATOM      5  C   UNL     1       5.415  -5.318  22.942  0.00  0.00    +0.203 C 
ATOM      6  C   UNL     1       6.298  -5.228  23.944  0.00  0.00    +0.059 C 
ENDROOT
BRANCH   1   7
ATOM      7  O   UNL     1       8.625  -5.542  23.733  0.00  0.00    -0.385 OA
ATOM      8  H   UNL     1       8.568  -6.082  24.540  0.00  0.00    +0.210 HD
ENDBRANCH   1   7
BRANCH   5   9
ATOM      9  C   UNL     1       4.109  -6.006  23.176  0.00  0.00    +0.372 C 
ATOM     10  O   UNL     1       3.015  -5.551  22.897  0.00  0.00    -0.242 OA
BRANCH   9  11
ATOM     11  O   UNL     1       4.305  -7.230  23.713  0.00  0.00    -0.475 OA
ATOM     12  H   UNL     1       4.553  -7.879  23.021  0.00  0.00    +0.296 HD
ENDBRANCH   9  11
ENDBRANCH   5   9
BRANCH   2  13
ATOM     13  O   UNL     1       7.937  -2.276  23.049  0.00  0.00    -0.206 OA
BRANCH  13  14
ATOM     14  S   UNL     1       9.402  -1.609  22.874  0.00  0.00    +0.208 S 
ATOM     15  O   UNL     1      10.402  -2.610  23.152  0.00  0.00    -0.118 OA
ATOM     16  O   UNL     1       9.392  -0.328  23.544  0.00  0.00    -0.118 OA
BRANCH  14  17
ATOM     17  O   UNL     1       9.449  -1.281  21.300  0.00  0.00    -0.231 OA
ATOM     18  H   UNL     1       8.638  -0.778  21.074  0.00  0.00    +0.247 HD
ENDBRANCH  14  17
ENDBRANCH  13  14
ENDBRANCH   2  13
TORSDOF 6
ENDMDL
MODEL 7
REMARK VINA RESULT:      -5.1      3.327      6.477
REMARK  Name = 
REMARK  6 active torsions:
REMARK  status: ('A' for Active; 'I' for Inactive)
REMARK    1  A    between atoms: O_1  and  C_2
REMARK    2  A    between atoms: C_5  and  C_15
REMARK    3  A    between atoms: C_8  and  O_10
REMARK    4  A    between atoms: O_10  and  S_11
REMARK    5  A    between atoms: S_11  and  O_12
REMARK    6  A    between atoms: C_15  and  O_16
REMARK                            x       y       z     vdW  Elec       q    Type
REMARK                         _______ _______ _______ _____ _____    ______ ____
ROOT
ATOM      1  C   UNL     1       7.234  -3.786  25.256  0.00  0.00    +0.176 C 
ATOM      2  C   UNL     1       8.087  -4.909  25.880  0.00  0.00    +0.221 C 
ATOM      3  C   UNL     1       9.596  -4.724  25.639  0.00  0.00    +0.266 C 
ATOM      4  O   UNL     1       9.983  -4.037  24.449  0.00  0.00    -0.483 OA
ATOM      5  C   UNL     1       9.297  -2.857  24.253  0.00  0.00    +0.203 C 
ATOM      6  C   UNL     1       8.011  -2.706  24.592  0.00  0.00    +0.059 C 
ENDROOT
BRANCH   1   7
ATOM      7  O   UNL     1       6.330  -4.330  24.291  0.00  0.00    -0.385 OA
ATOM      8  H   UNL     1       6.267  -5.290  24.435  0.00  0.00    +0.210 HD
ENDBRANCH   1   7
BRANCH   5   9
ATOM      9  C   UNL     1      10.023  -1.721  23.608  0.00  0.00    +0.372 C 
ATOM     10  O   UNL     1      10.300  -0.666  24.148  0.00  0.00    -0.242 OA
BRANCH   9  11
ATOM     11  O   UNL     1      10.368  -2.035  22.339  0.00  0.00    -0.475 OA
ATOM     12  H   UNL     1      11.171  -1.543  22.065  0.00  0.00    +0.296 HD
ENDBRANCH   9  11
ENDBRANCH   5   9
BRANCH   2  13
ATOM     13  O   UNL     1       7.830  -4.912  27.295  0.00  0.00    -0.206 OA
BRANCH  13  14
ATOM     14  S   UNL     1       6.488  -5.624  27.855  0.00  0.00    +0.208 S 
ATOM     15  O   UNL     1       5.514  -4.603  28.156  0.00  0.00    -0.118 OA
ATOM     16  O   UNL     1       6.883  -6.617  28.828  0.00  0.00    -0.118 OA
BRANCH  14  17
ATOM     17  O   UNL     1       5.970  -6.445  26.573  0.00  0.00    -0.231 OA
ATOM     18  H   UNL     1       6.521  -7.251  26.489  0.00  0.00    +0.247 HD
ENDBRANCH  14  17
ENDBRANCH  13  14
ENDBRANCH   2  13
TORSDOF 6
ENDMDL
MODEL 8
REMARK VINA RESULT:      -5.0      2.902      5.330
REMARK  Name = 
REMARK  6 active torsions:
REMARK  status: ('A' for Active; 'I' for Inactive)
REMARK    1  A    between atoms: O_1  and  C_2
REMARK    2  A    between atoms: C_5  and  C_15
REMARK    3  A    between atoms: C_8  and  O_10
REMARK    4  A    between atoms: O_10  and  S_11
REMARK    5  A    between atoms: S_11  and  O_12
REMARK    6  A    between atoms: C_15  and  O_16
REMARK                            x       y       z     vdW  Elec       q    Type
REMARK                         _______ _______ _______ _____ _____    ______ ____
ROOT
ATOM      1  C   UNL     1       7.336  -1.452  23.578  0.00  0.00    +0.176 C 
ATOM      2  C   UNL     1       7.871  -2.097  22.282  0.00  0.00    +0.221 C 
ATOM      3  C   UNL     1       9.286  -1.619  21.911  0.00  0.00    +0.266 C 
ATOM      4  O   UNL     1       9.654  -0.302  22.322  0.00  0.00    -0.483 OA
ATOM      5  C   UNL     1       9.371  -0.045  23.647  0.00  0.00    +0.203 C 
ATOM      6  C   UNL     1       8.291  -0.541  24.263  0.00  0.00    +0.059 C 
ENDROOT
BRANCH   1   7
ATOM      7  O   UNL     1       6.144  -0.713  23.306  0.00  0.00    -0.385 OA
ATOM      8  H   UNL     1       5.437  -1.046  23.886  0.00  0.00    +0.210 HD
ENDBRANCH   1   7
BRANCH   5   9
ATOM      9  C   UNL     1      10.300   0.849  24.403  0.00  0.00    +0.372 C 
ATOM     10  O   UNL     1      10.848   1.838  23.951  0.00  0.00    -0.242 OA
BRANCH   9  11
ATOM     11  O   UNL     1      10.428   0.432  25.682  0.00  0.00    -0.475 OA
ATOM     12  H   UNL     1       9.754  -0.247  25.896  0.00  0.00    +0.296 HD
ENDBRANCH   9  11
ENDBRANCH   5   9
BRANCH   2  13
ATOM     13  O   UNL     1       7.890  -3.520  22.484  0.00  0.00    -0.206 OA
BRANCH  13  14
ATOM     14  S   UNL     1       6.565  -4.387  22.146  0.00  0.00    +0.208 S 
ATOM     15  O   UNL     1       5.772  -3.663  21.182  0.00  0.00    -0.118 OA
ATOM     16  O   UNL     1       6.011  -4.860  23.394  0.00  0.00    -0.118 OA
BRANCH  14  17
ATOM     17  O   UNL     1       7.175  -5.683  21.416  0.00  0.00    -0.231 OA
ATOM     18  H   UNL     1       8.153  -5.616  21.451  0.00  0.00    +0.247 HD
ENDBRANCH  14  17
ENDBRANCH  13  14
ENDBRANCH   2  13
TORSDOF 6
ENDMDL
MODEL 9
REMARK VINA RESULT:      -4.9      3.220      6.299
REMARK  Name = 
REMARK  6 active torsions:
REMARK  status: ('A' for Active; 'I' for Inactive)
REMARK    1  A    between atoms: O_1  and  C_2
REMARK    2  A    between atoms: C_5  and  C_15
REMARK    3  A    between atoms: C_8  and  O_10
REMARK    4  A    between atoms: O_10  and  S_11
REMARK    5  A    between atoms: S_11  and  O_12
REMARK    6  A    between atoms: C_15  and  O_16
REMARK                            x       y       z     vdW  Elec       q    Type
REMARK                         _______ _______ _______ _____ _____    ______ ____
ROOT
ATOM      1  C   UNL     1       7.252  -3.991  23.151  0.00  0.00    +0.176 C 
ATOM      2  C   UNL     1       7.688  -4.654  24.474  0.00  0.00    +0.221 C 
ATOM      3  C   UNL     1       8.957  -4.023  25.075  0.00  0.00    +0.266 C 
ATOM      4  O   UNL     1       9.891  -3.448  24.160  0.00  0.00    -0.483 OA
ATOM      5  C   UNL     1       9.303  -2.608  23.238  0.00  0.00    +0.203 C 
ATOM      6  C   UNL     1       8.088  -2.837  22.726  0.00  0.00    +0.059 C 
ENDROOT
BRANCH   1   7
ATOM      7  O   UNL     1       7.259  -4.950  22.092  0.00  0.00    -0.385 OA
ATOM      8  H   UNL     1       7.584  -5.796  22.444  0.00  0.00    +0.210 HD
ENDBRANCH   1   7
BRANCH   5   9
ATOM      9  C   UNL     1      10.080  -1.416  22.779  0.00  0.00    +0.372 C 
ATOM     10  O   UNL     1      10.491  -0.525  23.500  0.00  0.00    -0.242 OA
BRANCH   9  11
ATOM     11  O   UNL     1      10.300  -1.474  21.447  0.00  0.00    -0.475 OA
ATOM     12  H   UNL     1      10.173  -0.594  21.034  0.00  0.00    +0.296 HD
ENDBRANCH   9  11
ENDBRANCH   5   9
BRANCH   2  13
ATOM     13  O   UNL     1       6.602  -4.514  25.406  0.00  0.00    -0.206 OA
BRANCH  13  14
ATOM     14  S   UNL     1       5.548  -5.729  25.585  0.00  0.00    +0.208 S 
ATOM     15  O   UNL     1       5.953  -6.530  26.715  0.00  0.00    -0.118 OA
ATOM     16  O   UNL     1       5.308  -6.307  24.282  0.00  0.00    -0.118 OA
BRANCH  14  17
ATOM     17  O   UNL     1       4.194  -4.958  25.981  0.00  0.00    -0.231 OA
ATOM     18  H   UNL     1       3.464  -5.613  25.981  0.00  0.00    +0.247 HD
ENDBRANCH  14  17
ENDBRANCH  13  14
ENDBRANCH   2  13
TORSDOF 6
ENDMDL
