MODEL 1
REMARK VINA RESULT:      -3.5      0.000      0.000
REMARK  Name = 
REMARK  6 active torsions:
REMARK  status: ('A' for Active; 'I' for Inactive)
REMARK    1  A    between atoms: CG2_1  and  CB_2
REMARK    2  A    between atoms: CB_2  and  OG1_4
REMARK    3  A    between atoms: CB_2  and  CA_5
REMARK    4  A    between atoms: CA_5  and  N_7
REMARK    5  A    between atoms: CA_5  and  C_8
REMARK    6  A    between atoms: C_8  and  O_9
REMARK                            x       y       z     vdW  Elec       q    Type
REMARK                         _______ _______ _______ _____ _____    ______ ____
ROOT
ATOM      1  CA  THR A   1       9.688   0.518  23.184  0.00  0.00    +0.189 C 
ENDROOT
BRANCH   1   2
ATOM      2  N   THR A   1      10.645   1.211  24.079  0.00  0.00    -0.316 NA
ATOM      3  H1  THR A   1      11.003   2.030  23.574  0.00  0.00    +0.119 HD
ATOM      4  H2  THR A   1      10.154   1.574  24.893  0.00  0.00    +0.119 HD
ENDBRANCH   1   2
BRANCH   1   6
ATOM      5  CG2 THR A   1       9.764  -2.030  23.384  0.00  0.00    +0.040 C 
ATOM      6  CB  THR A   1      10.286  -0.799  22.644  0.00  0.00    +0.139 C 
BRANCH   6   7
ATOM      7  OG1 THR A   1       9.930  -0.933  21.253  0.00  0.00    -0.390 OA
ATOM      8  HG1 THR A   1       9.625  -1.852  21.121  0.00  0.00    +0.210 HD
ENDBRANCH   6   7
ENDBRANCH   1   6
BRANCH   1   9
ATOM      9  C   THR A   1       9.269   1.481  22.047  0.00  0.00    +0.324 C 
ATOM     10  OXT THR A   1       8.143   1.503  21.564  0.00  0.00    -0.249 OA
BRANCH   9  11
ATOM     11  O   THR A   1      10.274   2.230  21.534  0.00  0.00    -0.479 OA
ATOM     12  H   THR A   1      10.951   1.671  21.079  0.00  0.00    +0.295 HD
ENDBRANCH   9  11
ENDBRANCH   1   9
TORSDOF 5
ENDMDL
MODEL 2
REMARK VINA RESULT:      -3.5      5.843      6.624
REMARK  Name = 
REMARK  6 active torsions:
REMARK  status: ('A' for Active; 'I' for Inactive)
REMARK    1  A    between atoms: CG2_1  and  CB_2
REMARK    2  A    between atoms: CB_2  and  OG1_4
REMARK    3  A    between atoms: CB_2  and  CA_5
REMARK    4  A    between atoms: CA_5  and  N_7
REMARK    5  A    between atoms: CA_5  and  C_8
REMARK    6  A    between atoms: C_8  and  O_9
REMARK                            x       y       z     vdW  Elec       q    Type
REMARK                         _______ _______ _______ _____ _____    ______ ____
ROOT
ATOM      1  CA  THR A   1       8.095  -4.619  25.997  0.00  0.00    +0.189 C 
ENDROOT
BRANCH   1   2
ATOM      2  N   THR A   1       8.146  -5.590  27.115  0.00  0.00    -0.316 NA
ATOM      3  H1  THR A   1       7.402  -5.339  27.777  0.00  0.00    +0.119 HD
ATOM      4  H2  THR A   1       7.917  -6.521  26.773  0.00  0.00    +0.119 HD
ENDBRANCH   1   2
BRANCH   1   6
ATOM      5  CG2 THR A   1       6.017  -3.622  24.888  0.00  0.00    +0.040 C 
ATOM      6  CB  THR A   1       6.869  -4.875  25.094  0.00  0.00    +0.139 C 
BRANCH   6   7
ATOM      7  OG1 THR A   1       7.329  -5.316  23.802  0.00  0.00    -0.390 OA
ATOM      8  HG1 THR A   1       6.550  -5.341  23.211  0.00  0.00    +0.210 HD
ENDBRANCH   6   7
ENDBRANCH   1   6
BRANCH   1   9
ATOM      9  C   THR A   1       9.425  -4.683  25.209  0.00  0.00    +0.324 C 
ATOM     10  OXT THR A   1       9.802  -3.796  24.451  0.00  0.00    -0.249 OA
BRANCH   9  11
ATOM     11  O   THR A   1      10.101  -5.850  25.324  0.00  0.00    -0.479 OA
ATOM     12  H   THR A   1       9.619  -6.596  24.891  0.00  0.00    +0.295 HD
ENDBRANCH   9  11
ENDBRANCH   1   9
TORSDOF 5
ENDMDL
MODEL 3
REMARK VINA RESULT:      -3.5      1.864      2.120
REMARK  Name = 
REMARK  6 active torsions:
REMARK  status: ('A' for Active; 'I' for Inactive)
REMARK    1  A    between atoms: CG2_1  and  CB_2
REMARK    2  A    between atoms: CB_2  and  OG1_4
REMARK    3  A    between atoms: CB_2  and  CA_5
REMARK    4  A    between atoms: CA_5  and  N_7
REMARK    5  A    between atoms: CA_5  and  C_8
REMARK    6  A    between atoms: C_8  and  O_9
REMARK                            x       y       z     vdW  Elec       q    Type
REMARK                         _______ _______ _______ _____ _____    ______ ____
ROOT
ATOM      1  CA  THR A   1      10.111  -0.012  22.186  0.00  0.00    +0.189 C 
ENDROOT
BRANCH   1   2
ATOM      2  N   THR A   1       9.629  -1.087  21.288  0.00  0.00    -0.316 NA
ATOM      3  H1  THR A   1       8.658  -1.298  21.550  0.00  0.00    +0.119 HD
ATOM      4  H2  THR A   1       9.594  -0.746  20.330  0.00  0.00    +0.119 HD
ENDBRANCH   1   2
BRANCH   1   6
ATOM      5  CG2 THR A   1      10.666   0.498  24.629  0.00  0.00    +0.040 C 
ATOM      6  CB  THR A   1       9.854  -0.367  23.666  0.00  0.00    +0.139 C 
BRANCH   6   7
ATOM      7  OG1 THR A   1       8.456  -0.162  23.956  0.00  0.00    -0.390 OA
ATOM      8  HG1 THR A   1       8.335   0.793  24.130  0.00  0.00    +0.210 HD
ENDBRANCH   6   7
ENDBRANCH   1   6
BRANCH   1   9
ATOM      9  C   THR A   1       9.443   1.324  21.780  0.00  0.00    +0.324 C 
ATOM     10  OXT THR A   1       8.249   1.430  21.524  0.00  0.00    -0.249 OA
BRANCH   9  11
ATOM     11  O   THR A   1      10.297   2.361  21.611  0.00  0.00    -0.479 OA
ATOM     12  H   THR A   1      11.103   2.092  21.106  0.00  0.00    +0.295 HD
ENDBRANCH   9  11
ENDBRANCH   1   9
TORSDOF 5
ENDMDL
MODEL 4
REMARK VINA RESULT:      -3.5      1.215      3.057
REMARK  Name = 
REMARK  6 active torsions:
REMARK  status: ('A' for Active; 'I' for Inactive)
REMARK    1  A    between atoms: CG2_1  and  CB_2
REMARK    2  A    between atoms: CB_2  and  OG1_4
REMARK    3  A    between atoms: CB_2  and  CA_5
REMARK    4  A    between atoms: CA_5  and  N_7
REMARK    5  A    between atoms: CA_5  and  C_8
REMARK    6  A    between atoms: C_8  and  O_9
REMARK                            x       y       z     vdW  Elec       q    Type
REMARK                         _______ _______ _______ _____ _____    ______ ____
ROOT
ATOM      1  CA  THR A   1      10.435   0.331  23.194  0.00  0.00    +0.189 C 
ENDROOT
BRANCH   1   2
ATOM      2  N   THR A   1      10.183  -0.053  24.603  0.00  0.00    -0.316 NA
ATOM      3  H1  THR A   1       9.167  -0.133  24.725  0.00  0.00    +0.119 HD
ATOM      4  H2  THR A   1      10.563  -0.981  24.780  0.00  0.00    +0.119 HD
ENDBRANCH   1   2
BRANCH   1   6
ATOM      5  CG2 THR A   1       9.565   2.632  23.889  0.00  0.00    +0.040 C 
ATOM      6  CB  THR A   1       9.598   1.565  22.796  0.00  0.00    +0.139 C 
BRANCH   6   7
ATOM      7  OG1 THR A   1      10.176   2.156  21.615  0.00  0.00    -0.390 OA
ATOM      8  HG1 THR A   1       9.850   3.076  21.564  0.00  0.00    +0.210 HD
ENDBRANCH   6   7
ENDBRANCH   1   6
BRANCH   1   9
ATOM      9  C   THR A   1      10.156  -0.887  22.280  0.00  0.00    +0.324 C 
ATOM     10  OXT THR A   1      10.541  -2.022  22.535  0.00  0.00    -0.249 OA
BRANCH   9  11
ATOM     11  O   THR A   1       9.550  -0.592  21.106  0.00  0.00    -0.479 OA
ATOM     12  H   THR A   1      10.205  -0.346  20.408  0.00  0.00    +0.295 HD
ENDBRANCH   9  11
ENDBRANCH   1   9
TORSDOF 5
ENDMDL
MODEL 5
REMARK VINA RESULT:      -3.4      4.674      6.099
REMARK  Name = 
REMARK  6 active torsions:
REMARK  status: ('A' for Active; 'I' for Inactive)
REMARK    1  A    between atoms: CG2_1  and  CB_2
REMARK    2  A    between atoms: CB_2  and  OG1_4
REMARK    3  A    between atoms: CB_2  and  CA_5
REMARK    4  A    between atoms: CA_5  and  N_7
REMARK    5  A    between atoms: CA_5  and  C_8
REMARK    6  A    between atoms: C_8  and  O_9
REMARK                            x       y       z     vdW  Elec       q    Type
REMARK                         _______ _______ _______ _____ _____    ______ ____
ROOT
ATOM      1  CA  THR A   1       8.354  -4.359  24.601  0.00  0.00    +0.189 C 
ENDROOT
BRANCH   1   2
ATOM      2  N   THR A   1       8.264  -5.403  23.554  0.00  0.00    -0.316 NA
ATOM      3  H1  THR A   1       7.697  -5.024  22.786  0.00  0.00    +0.119 HD
ATOM      4  H2  THR A   1       9.187  -5.578  23.163  0.00  0.00    +0.119 HD
ENDBRANCH   1   2
BRANCH   1   6
ATOM      5  CG2 THR A   1       8.522  -1.826  24.904  0.00  0.00    +0.040 C 
ATOM      6  CB  THR A   1       8.852  -3.022  24.012  0.00  0.00    +0.139 C 
BRANCH   6   7
ATOM      7  OG1 THR A   1      10.285  -3.085  23.867  0.00  0.00    -0.390 OA
ATOM      8  HG1 THR A   1      10.541  -4.026  23.942  0.00  0.00    +0.210 HD
ENDBRANCH   6   7
ENDBRANCH   1   6
BRANCH   1   9
ATOM      9  C   THR A   1       9.261  -4.868  25.748  0.00  0.00    +0.324 C 
ATOM     10  OXT THR A   1       9.078  -4.585  26.926  0.00  0.00    -0.249 OA
BRANCH   9  11
ATOM     11  O   THR A   1      10.352  -5.562  25.348  0.00  0.00    -0.479 OA
ATOM     12  H   THR A   1      10.962  -5.751  26.102  0.00  0.00    +0.295 HD
ENDBRANCH   9  11
ENDBRANCH   1   9
TORSDOF 5
ENDMDL
MODEL 6
REMARK VINA RESULT:      -3.3      2.606      3.247
REMARK  Name = 
REMARK  6 active torsions:
REMARK  status: ('A' for Active; 'I' for Inactive)
REMARK    1  A    between atoms: CG2_1  and  CB_2
REMARK    2  A    between atoms: CB_2  and  OG1_4
REMARK    3  A    between atoms: CB_2  and  CA_5
REMARK    4  A    between atoms: CA_5  and  N_7
REMARK    5  A    between atoms: CA_5  and  C_8
REMARK    6  A    between atoms: C_8  and  O_9
REMARK                            x       y       z     vdW  Elec       q    Type
REMARK                         _______ _______ _______ _____ _____    ______ ____
ROOT
ATOM      1  CA  THR A   1      10.056  -1.791  23.477  0.00  0.00    +0.189 C 
ENDROOT
BRANCH   1   2
ATOM      2  N   THR A   1       9.964  -3.152  24.055  0.00  0.00    -0.316 NA
ATOM      3  H1  THR A   1      10.180  -3.078  25.056  0.00  0.00    +0.119 HD
ATOM      4  H2  THR A   1       9.005  -3.487  23.997  0.00  0.00    +0.119 HD
ENDBRANCH   1   2
BRANCH   1   6
ATOM      5  CG2 THR A   1      10.716   0.350  24.710  0.00  0.00    +0.040 C 
ATOM      6  CB  THR A   1       9.642  -0.720  24.509  0.00  0.00    +0.139 C 
BRANCH   6   7
ATOM      7  OG1 THR A   1       8.445  -0.065  24.043  0.00  0.00    -0.390 OA
ATOM      8  HG1 THR A   1       8.710   0.814  23.708  0.00  0.00    +0.210 HD
ENDBRANCH   6   7
ENDBRANCH   1   6
BRANCH   1   9
ATOM      9  C   THR A   1       9.196  -1.727  22.191  0.00  0.00    +0.324 C 
ATOM     10  OXT THR A   1       8.180  -2.394  22.027  0.00  0.00    -0.249 OA
BRANCH   9  11
ATOM     11  O   THR A   1       9.709  -0.964  21.198  0.00  0.00    -0.479 OA
ATOM     12  H   THR A   1      10.534  -0.499  21.483  0.00  0.00    +0.295 HD
ENDBRANCH   9  11
ENDBRANCH   1   9
TORSDOF 5
ENDMDL
MODEL 7
REMARK VINA RESULT:      -3.3      2.285      2.507
REMARK  Name = 
REMARK  6 active torsions:
REMARK  status: ('A' for Active; 'I' for Inactive)
REMARK    1  A    between atoms: CG2_1  and  CB_2
REMARK    2  A    between atoms: CB_2  and  OG1_4
REMARK    3  A    between atoms: CB_2  and  CA_5
REMARK    4  A    between atoms: CA_5  and  N_7
REMARK    5  A    between atoms: CA_5  and  C_8
REMARK    6  A    between atoms: C_8  and  O_9
REMARK                            x       y       z     vdW  Elec       q    Type
REMARK                         _______ _______ _______ _____ _____    ______ ____
ROOT
ATOM      1  CA  THR A   1      10.170   1.061  22.698  0.00  0.00    +0.189 C 
ENDROOT
BRANCH   1   2
ATOM      2  N   THR A   1      10.105   2.211  21.768  0.00  0.00    -0.316 NA
ATOM      3  H1  THR A   1       9.572   1.913  20.942  0.00  0.00    +0.119 HD
ATOM      4  H2  THR A   1       9.570   2.967  22.191  0.00  0.00    +0.119 HD
ENDBRANCH   1   2
BRANCH   1   6
ATOM      5  CG2 THR A   1       9.795  -1.397  22.100  0.00  0.00    +0.040 C 
ATOM      6  CB  THR A   1       9.148  -0.028  22.308  0.00  0.00    +0.139 C 
BRANCH   6   7
ATOM      7  OG1 THR A   1       8.177  -0.152  23.366  0.00  0.00    -0.390 OA
ATOM      8  HG1 THR A   1       7.297   0.010  22.971  0.00  0.00    +0.210 HD
ENDBRANCH   6   7
ENDBRANCH   1   6
BRANCH   1   9
ATOM      9  C   THR A   1       9.962   1.567  24.146  0.00  0.00    +0.324 C 
ATOM     10  OXT THR A   1       9.402   2.623  24.415  0.00  0.00    -0.249 OA
BRANCH   9  11
ATOM     11  O   THR A   1      10.550   0.814  25.104  0.00  0.00    -0.479 OA
ATOM     12  H   THR A   1       9.899   0.221  25.554  0.00  0.00    +0.295 HD
ENDBRANCH   9  11
ENDBRANCH   1   9
TORSDOF 5
ENDMDL
MODEL 8
REMARK VINA RESULT:      -3.3      2.008      3.009
REMARK  Name = 
REMARK  6 active torsions:
REMARK  status: ('A' for Active; 'I' for Inactive)
REMARK    1  A    between atoms: CG2_1  and  CB_2
REMARK    2  A    between atoms: CB_2  and  OG1_4
REMARK    3  A    between atoms: CB_2  and  CA_5
REMARK    4  A    between atoms: CA_5  and  N_7
REMARK    5  A    between atoms: CA_5  and  C_8
REMARK    6  A    between atoms: C_8  and  O_9
REMARK                            x       y       z     vdW  Elec       q    Type
REMARK                         _______ _______ _______ _____ _____    ______ ____
ROOT
ATOM      1  CA  THR A   1       9.465   0.350  22.989  0.00  0.00    +0.189 C 
ENDROOT
BRANCH   1   2
ATOM      2  N   THR A   1      10.283  -0.866  22.774  0.00  0.00    -0.316 NA
ATOM      3  H1  THR A   1      10.576  -0.872  21.789  0.00  0.00    +0.119 HD
ATOM      4  H2  THR A   1      11.139  -0.807  23.322  0.00  0.00    +0.119 HD
ENDBRANCH   1   2
BRANCH   1   6
ATOM      5  CG2 THR A   1       7.958   1.805  21.524  0.00  0.00    +0.040 C 
ATOM      6  CB  THR A   1       9.339   1.173  21.689  0.00  0.00    +0.139 C 
BRANCH   6   7
ATOM      7  OG1 THR A   1      10.313   2.236  21.718  0.00  0.00    -0.390 OA
ATOM      8  HG1 THR A   1      10.619   2.371  20.799  0.00  0.00    +0.210 HD
ENDBRANCH   6   7
ENDBRANCH   1   6
BRANCH   1   9
ATOM      9  C   THR A   1      10.077   1.174  24.148  0.00  0.00    +0.324 C 
ATOM     10  OXT THR A   1       9.494   2.103  24.694  0.00  0.00    -0.249 OA
BRANCH   9  11
ATOM     11  O   THR A   1      11.363   0.872  24.445  0.00  0.00    -0.479 OA
ATOM     12  H   THR A   1      11.958   1.653  24.328  0.00  0.00    +0.295 HD
ENDBRANCH   9  11
ENDBRANCH   1   9
TORSDOF 5
ENDMDL
MODEL 9
REMARK VINA RESULT:      -3.2      2.358      3.037
REMARK  Name = 
REMARK  6 active torsions:
REMARK  status: ('A' for Active; 'I' for Inactive)
REMARK    1  A    between atoms: CG2_1  and  CB_2
REMARK    2  A    between atoms: CB_2  and  OG1_4
REMARK    3  A    between atoms: CB_2  and  CA_5
REMARK    4  A    between atoms: CA_5  and  N_7
REMARK    5  A    between atoms: CA_5  and  C_8
REMARK    6  A    between atoms: C_8  and  O_9
REMARK                            x       y       z     vdW  Elec       q    Type
REMARK                         _______ _______ _______ _____ _____    ______ ____
ROOT
ATOM      1  CA  THR A   1       8.943   0.387  22.394  0.00  0.00    +0.189 C 
ENDROOT
BRANCH   1   2
ATOM      2  N   THR A   1       9.077   1.168  21.142  0.00  0.00    -0.316 NA
ATOM      3  H1  THR A   1       9.341   0.514  20.396  0.00  0.00    +0.119 HD
ATOM      4  H2  THR A   1       8.172   1.550  20.876  0.00  0.00    +0.119 HD
ENDBRANCH   1   2
BRANCH   1   6
ATOM      5  CG2 THR A   1       9.444   1.784  24.476  0.00  0.00    +0.040 C 
ATOM      6  CB  THR A   1      10.001   0.815  23.433  0.00  0.00    +0.139 C 
BRANCH   6   7
ATOM      7  OG1 THR A   1      10.473  -0.358  24.124  0.00  0.00    -0.390 OA
ATOM      8  HG1 THR A   1      10.637  -0.100  25.052  0.00  0.00    +0.210 HD
ENDBRANCH   6   7
ENDBRANCH   1   6
BRANCH   1   9
ATOM      9  C   THR A   1       9.027  -1.123  22.061  0.00  0.00    +0.324 C 
ATOM     10  OXT THR A   1       8.225  -1.950  22.479  0.00  0.00    -0.249 OA
BRANCH   9  11
ATOM     11  O   THR A   1      10.125  -1.493  21.362  0.00  0.00    -0.479 OA
ATOM     12  H   THR A   1      10.722  -0.724  21.184  0.00  0.00    +0.295 HD
ENDBRANCH   9  11
ENDBRANCH   1   9
TORSDOF 5
ENDMDL
