MODEL 1
REMARK VINA RESULT:      -7.3      0.000      0.000
REMARK  Name = 
REMARK  7 active torsions:
REMARK  status: ('A' for Active; 'I' for Inactive)
REMARK    1  A    between atoms: O_1  and  C_2
REMARK    2  A    between atoms: C_6  and  O_7
REMARK    3  A    between atoms: C_9  and  O_10
REMARK    4  A    between atoms: C_14  and  C_16
REMARK    5  A    between atoms: C_18  and  O_19
REMARK    6  A    between atoms: C_20  and  O_21
REMARK    7  A    between atoms: C_22  and  O_23
REMARK                            x       y       z     vdW  Elec       q    Type
REMARK                         _______ _______ _______ _____ _____    ______ ____
ROOT
ATOM      1  C   UNL     1       8.416  -3.887  26.370  0.00  0.00    +0.164 C 
ATOM      2  C   UNL     1       9.320  -3.806  25.121  0.00  0.00    +0.232 C 
ATOM      3  O   UNL     1       8.942  -4.866  24.208  0.00  0.00    -0.481 OA
ATOM      4  C   UNL     1       7.604  -4.931  23.902  0.00  0.00    +0.132 A 
ATOM      5  C   UNL     1       6.601  -4.341  24.683  0.00  0.00    +0.038 A 
ATOM      6  C   UNL     1       5.286  -4.386  24.202  0.00  0.00    +0.127 A 
ATOM      7  C   UNL     1       4.970  -5.042  23.012  0.00  0.00    +0.091 A 
ATOM      8  C   UNL     1       5.980  -5.655  22.285  0.00  0.00    +0.124 A 
ATOM      9  C   UNL     1       7.295  -5.607  22.722  0.00  0.00    +0.091 A 
ATOM     10  C   UNL     1       6.952  -3.670  25.986  0.00  0.00    +0.078 C 
ENDROOT
BRANCH   2  11
ATOM     11  C   UNL     1       9.368  -2.429  24.450  0.00  0.00    +0.002 A 
ATOM     12  C   UNL     1       9.525  -2.324  23.055  0.00  0.00    +0.056 A 
ATOM     13  C   UNL     1       9.688  -1.075  22.463  0.00  0.00    +0.162 A 
ATOM     14  C   UNL     1       9.670   0.079  23.231  0.00  0.00    +0.201 A 
ATOM     15  C   UNL     1       9.451  -0.001  24.597  0.00  0.00    +0.162 A 
ATOM     16  C   UNL     1       9.279  -1.240  25.206  0.00  0.00    +0.056 A 
BRANCH  13  17
ATOM     17  O   UNL     1       9.895  -0.997  21.116  0.00  0.00    -0.503 OA
ATOM     18  H   UNL     1      10.805  -0.648  21.029  0.00  0.00    +0.292 HD
ENDBRANCH  13  17
BRANCH  14  19
ATOM     19  O   UNL     1       9.880   1.289  22.628  0.00  0.00    -0.501 OA
ATOM     20  H   UNL     1       9.123   1.834  22.923  0.00  0.00    +0.292 HD
ENDBRANCH  14  19
BRANCH  15  21
ATOM     21  O   UNL     1       9.434   1.162  25.313  0.00  0.00    -0.503 OA
ATOM     22  H   UNL     1       8.652   1.676  25.036  0.00  0.00    +0.292 HD
ENDBRANCH  15  21
ENDBRANCH   2  11
BRANCH   1  23
ATOM     23  O   UNL     1       8.557  -5.169  27.008  0.00  0.00    -0.387 OA
ATOM     24  H   UNL     1       8.005  -5.800  26.505  0.00  0.00    +0.210 HD
ENDBRANCH   1  23
BRANCH   8  25
ATOM     25  O   UNL     1       5.723  -6.303  21.113  0.00  0.00    -0.507 OA
ATOM     26  H   UNL     1       5.907  -7.251  21.236  0.00  0.00    +0.292 HD
ENDBRANCH   8  25
BRANCH   6  27
ATOM     27  O   UNL     1       4.239  -3.788  24.847  0.00  0.00    -0.506 OA
ATOM     28  H   UNL     1       3.538  -4.438  25.012  0.00  0.00    +0.292 HD
ENDBRANCH   6  27
TORSDOF 7
ENDMDL
MODEL 2
REMARK VINA RESULT:      -6.9      2.036      5.782
REMARK  Name = 
REMARK  7 active torsions:
REMARK  status: ('A' for Active; 'I' for Inactive)
REMARK    1  A    between atoms: O_1  and  C_2
REMARK    2  A    between atoms: C_6  and  O_7
REMARK    3  A    between atoms: C_9  and  O_10
REMARK    4  A    between atoms: C_14  and  C_16
REMARK    5  A    between atoms: C_18  and  O_19
REMARK    6  A    between atoms: C_20  and  O_21
REMARK    7  A    between atoms: C_22  and  O_23
REMARK                            x       y       z     vdW  Elec       q    Type
REMARK                         _______ _______ _______ _____ _____    ______ ____
ROOT
ATOM      1  C   UNL     1       5.689  -3.994  22.280  0.00  0.00    +0.164 C 
ATOM      2  C   UNL     1       6.976  -4.674  22.797  0.00  0.00    +0.232 C 
ATOM      3  O   UNL     1       8.116  -3.893  22.364  0.00  0.00    -0.481 OA
ATOM      4  C   UNL     1       8.059  -2.553  22.661  0.00  0.00    +0.132 A 
ATOM      5  C   UNL     1       6.870  -1.876  22.962  0.00  0.00    +0.038 A 
ATOM      6  C   UNL     1       6.962  -0.534  23.355  0.00  0.00    +0.127 A 
ATOM      7  C   UNL     1       8.190   0.128  23.394  0.00  0.00    +0.091 A 
ATOM      8  C   UNL     1       9.344  -0.559  23.045  0.00  0.00    +0.124 A 
ATOM      9  C   UNL     1       9.289  -1.894  22.676  0.00  0.00    +0.091 A 
ATOM     10  C   UNL     1       5.548  -2.594  22.878  0.00  0.00    +0.078 C 
ENDROOT
BRANCH   2  11
ATOM     11  C   UNL     1       6.988  -4.968  24.301  0.00  0.00    +0.002 A 
ATOM     12  C   UNL     1       8.145  -4.716  25.064  0.00  0.00    +0.056 A 
ATOM     13  C   UNL     1       8.194  -5.094  26.402  0.00  0.00    +0.162 A 
ATOM     14  C   UNL     1       7.102  -5.695  27.008  0.00  0.00    +0.201 A 
ATOM     15  C   UNL     1       5.932  -5.890  26.290  0.00  0.00    +0.162 A 
ATOM     16  C   UNL     1       5.861  -5.514  24.953  0.00  0.00    +0.056 A 
BRANCH  13  17
ATOM     17  O   UNL     1       9.343  -4.892  27.110  0.00  0.00    -0.503 OA
ATOM     18  H   UNL     1       9.618  -5.789  27.391  0.00  0.00    +0.292 HD
ENDBRANCH  13  17
BRANCH  14  19
ATOM     19  O   UNL     1       7.195  -6.099  28.311  0.00  0.00    -0.501 OA
ATOM     20  H   UNL     1       6.615  -5.476  28.794  0.00  0.00    +0.292 HD
ENDBRANCH  14  19
BRANCH  15  21
ATOM     21  O   UNL     1       4.878  -6.480  26.929  0.00  0.00    -0.503 OA
ATOM     22  H   UNL     1       4.769  -7.378  26.567  0.00  0.00    +0.292 HD
ENDBRANCH  15  21
ENDBRANCH   2  11
BRANCH   1  23
ATOM     23  O   UNL     1       5.714  -3.899  20.845  0.00  0.00    -0.387 OA
ATOM     24  H   UNL     1       5.341  -4.733  20.497  0.00  0.00    +0.210 HD
ENDBRANCH   1  23
BRANCH   8  25
ATOM     25  O   UNL     1      10.568   0.043  23.073  0.00  0.00    -0.507 OA
ATOM     26  H   UNL     1      10.489   0.925  22.669  0.00  0.00    +0.292 HD
ENDBRANCH   8  25
BRANCH   6  27
ATOM     27  O   UNL     1       5.876   0.204  23.735  0.00  0.00    -0.506 OA
ATOM     28  H   UNL     1       6.168   1.007  24.195  0.00  0.00    +0.292 HD
ENDBRANCH   6  27
TORSDOF 7
ENDMDL
MODEL 3
REMARK VINA RESULT:      -6.8      0.537      1.820
REMARK  Name = 
REMARK  7 active torsions:
REMARK  status: ('A' for Active; 'I' for Inactive)
REMARK    1  A    between atoms: O_1  and  C_2
REMARK    2  A    between atoms: C_6  and  O_7
REMARK    3  A    between atoms: C_9  and  O_10
REMARK    4  A    between atoms: C_14  and  C_16
REMARK    5  A    between atoms: C_18  and  O_19
REMARK    6  A    between atoms: C_20  and  O_21
REMARK    7  A    between atoms: C_22  and  O_23
REMARK                            x       y       z     vdW  Elec       q    Type
REMARK                         _______ _______ _______ _____ _____    ______ ____
ROOT
ATOM      1  C   UNL     1       7.816  -3.966  26.597  0.00  0.00    +0.164 C 
ATOM      2  C   UNL     1       8.881  -4.053  25.482  0.00  0.00    +0.232 C 
ATOM      3  O   UNL     1       8.486  -5.086  24.546  0.00  0.00    -0.481 OA
ATOM      4  C   UNL     1       7.205  -4.981  24.060  0.00  0.00    +0.132 A 
ATOM      5  C   UNL     1       6.197  -4.234  24.685  0.00  0.00    +0.038 A 
ATOM      6  C   UNL     1       4.965  -4.119  24.029  0.00  0.00    +0.127 A 
ATOM      7  C   UNL     1       4.724  -4.770  22.819  0.00  0.00    +0.091 A 
ATOM      8  C   UNL     1       5.728  -5.540  22.249  0.00  0.00    +0.124 A 
ATOM      9  C   UNL     1       6.966  -5.653  22.861  0.00  0.00    +0.091 A 
ATOM     10  C   UNL     1       6.461  -3.569  26.012  0.00  0.00    +0.078 C 
ENDROOT
BRANCH   2  11
ATOM     11  C   UNL     1       9.208  -2.721  24.800  0.00  0.00    +0.002 A 
ATOM     12  C   UNL     1       8.971  -1.504  25.468  0.00  0.00    +0.056 A 
ATOM     13  C   UNL     1       9.156  -0.296  24.804  0.00  0.00    +0.162 A 
ATOM     14  C   UNL     1       9.602  -0.272  23.491  0.00  0.00    +0.201 A 
ATOM     15  C   UNL     1       9.904  -1.457  22.840  0.00  0.00    +0.162 A 
ATOM     16  C   UNL     1       9.730  -2.675  23.489  0.00  0.00    +0.056 A 
BRANCH  13  17
ATOM     17  O   UNL     1       8.869   0.871  25.449  0.00  0.00    -0.503 OA
ATOM     18  H   UNL     1       7.999   0.710  25.869  0.00  0.00    +0.292 HD
ENDBRANCH  13  17
BRANCH  14  19
ATOM     19  O   UNL     1       9.730   0.929  22.848  0.00  0.00    -0.501 OA
ATOM     20  H   UNL     1      10.682   1.141  22.930  0.00  0.00    +0.292 HD
ENDBRANCH  14  19
BRANCH  15  21
ATOM     21  O   UNL     1      10.346  -1.385  21.549  0.00  0.00    -0.503 OA
ATOM     22  H   UNL     1      10.036  -2.181  21.079  0.00  0.00    +0.292 HD
ENDBRANCH  15  21
ENDBRANCH   2  11
BRANCH   1  23
ATOM     23  O   UNL     1       7.692  -5.231  27.271  0.00  0.00    -0.387 OA
ATOM     24  H   UNL     1       7.138  -5.080  28.062  0.00  0.00    +0.210 HD
ENDBRANCH   1  23
BRANCH   8  25
ATOM     25  O   UNL     1       5.543  -6.190  21.064  0.00  0.00    -0.507 OA
ATOM     26  H   UNL     1       6.415  -6.392  20.682  0.00  0.00    +0.292 HD
ENDBRANCH   8  25
BRANCH   6  27
ATOM     27  O   UNL     1       3.935  -3.362  24.513  0.00  0.00    -0.506 OA
ATOM     28  H   UNL     1       3.176  -3.931  24.719  0.00  0.00    +0.292 HD
ENDBRANCH   6  27
TORSDOF 7
ENDMDL
MODEL 4
REMARK VINA RESULT:      -6.7      2.233      2.498
REMARK  Name = 
REMARK  7 active torsions:
REMARK  status: ('A' for Active; 'I' for Inactive)
REMARK    1  A    between atoms: O_1  and  C_2
REMARK    2  A    between atoms: C_6  and  O_7
REMARK    3  A    between atoms: C_9  and  O_10
REMARK    4  A    between atoms: C_14  and  C_16
REMARK    5  A    between atoms: C_18  and  O_19
REMARK    6  A    between atoms: C_20  and  O_21
REMARK    7  A    between atoms: C_22  and  O_23
REMARK                            x       y       z     vdW  Elec       q    Type
REMARK                         _______ _______ _______ _____ _____    ______ ____
ROOT
ATOM      1  C   UNL     1       9.463  -4.584  25.791  0.00  0.00    +0.164 C 
ATOM      2  C   UNL     1       9.145  -3.590  24.652  0.00  0.00    +0.232 C 
ATOM      3  O   UNL     1       8.439  -4.299  23.605  0.00  0.00    -0.481 OA
ATOM      4  C   UNL     1       7.342  -5.017  24.015  0.00  0.00    +0.132 A 
ATOM      5  C   UNL     1       7.126  -5.412  25.342  0.00  0.00    +0.038 A 
ATOM      6  C   UNL     1       5.913  -6.043  25.649  0.00  0.00    +0.127 A 
ATOM      7  C   UNL     1       4.970  -6.323  24.659  0.00  0.00    +0.091 A 
ATOM      8  C   UNL     1       5.235  -5.960  23.346  0.00  0.00    +0.124 A 
ATOM      9  C   UNL     1       6.414  -5.311  23.015  0.00  0.00    +0.091 A 
ATOM     10  C   UNL     1       8.171  -5.138  26.393  0.00  0.00    +0.078 C 
ENDROOT
BRANCH   2  11
ATOM     11  C   UNL     1       8.428  -2.311  25.096  0.00  0.00    +0.002 A 
ATOM     12  C   UNL     1       7.522  -1.667  24.231  0.00  0.00    +0.056 A 
ATOM     13  C   UNL     1       6.964  -0.445  24.589  0.00  0.00    +0.162 A 
ATOM     14  C   UNL     1       7.267   0.141  25.808  0.00  0.00    +0.201 A 
ATOM     15  C   UNL     1       8.104  -0.509  26.700  0.00  0.00    +0.162 A 
ATOM     16  C   UNL     1       8.667  -1.736  26.363  0.00  0.00    +0.056 A 
BRANCH  13  17
ATOM     17  O   UNL     1       6.132   0.191  23.713  0.00  0.00    -0.503 OA
ATOM     18  H   UNL     1       6.075  -0.416  22.947  0.00  0.00    +0.292 HD
ENDBRANCH  13  17
BRANCH  14  19
ATOM     19  O   UNL     1       6.741   1.367  26.113  0.00  0.00    -0.501 OA
ATOM     20  H   UNL     1       7.265   1.991  25.571  0.00  0.00    +0.292 HD
ENDBRANCH  14  19
BRANCH  15  21
ATOM     21  O   UNL     1       8.369   0.102  27.893  0.00  0.00    -0.503 OA
ATOM     22  H   UNL     1       8.869  -0.525  28.449  0.00  0.00    +0.292 HD
ENDBRANCH  15  21
ENDBRANCH   2  11
BRANCH   1  23
ATOM     23  O   UNL     1      10.264  -5.672  25.297  0.00  0.00    -0.387 OA
ATOM     24  H   UNL     1       9.663  -6.432  25.166  0.00  0.00    +0.210 HD
ENDBRANCH   1  23
BRANCH   8  25
ATOM     25  O   UNL     1       4.342  -6.205  22.344  0.00  0.00    -0.507 OA
ATOM     26  H   UNL     1       3.902  -7.055  22.523  0.00  0.00    +0.292 HD
ENDBRANCH   8  25
BRANCH   6  27
ATOM     27  O   UNL     1       5.569  -6.411  26.919  0.00  0.00    -0.506 OA
ATOM     28  H   UNL     1       4.653  -6.732  26.933  0.00  0.00    +0.292 HD
ENDBRANCH   6  27
TORSDOF 7
ENDMDL
MODEL 5
REMARK VINA RESULT:      -6.7      2.140      2.816
REMARK  Name = 
REMARK  7 active torsions:
REMARK  status: ('A' for Active; 'I' for Inactive)
REMARK    1  A    between atoms: O_1  and  C_2
REMARK    2  A    between atoms: C_6  and  O_7
REMARK    3  A    between atoms: C_9  and  O_10
REMARK    4  A    between atoms: C_14  and  C_16
REMARK    5  A    between atoms: C_18  and  O_19
REMARK    6  A    between atoms: C_20  and  O_21
REMARK    7  A    between atoms: C_22  and  O_23
REMARK                            x       y       z     vdW  Elec       q    Type
REMARK                         _______ _______ _______ _____ _____    ______ ____
ROOT
ATOM      1  C   UNL     1       9.428  -4.529  25.927  0.00  0.00    +0.164 C 
ATOM      2  C   UNL     1       9.244  -3.634  24.682  0.00  0.00    +0.232 C 
ATOM      3  O   UNL     1       8.569  -4.403  23.657  0.00  0.00    -0.481 OA
ATOM      4  C   UNL     1       7.408  -5.021  24.052  0.00  0.00    +0.132 A 
ATOM      5  C   UNL     1       7.082  -5.276  25.391  0.00  0.00    +0.038 A 
ATOM      6  C   UNL     1       5.818  -5.812  25.668  0.00  0.00    +0.127 A 
ATOM      7  C   UNL     1       4.927  -6.136  24.643  0.00  0.00    +0.091 A 
ATOM      8  C   UNL     1       5.298  -5.915  23.324  0.00  0.00    +0.124 A 
ATOM      9  C   UNL     1       6.532  -5.362  23.020  0.00  0.00    +0.091 A 
ATOM     10  C   UNL     1       8.070  -4.956  26.484  0.00  0.00    +0.078 C 
ENDROOT
BRANCH   2  11
ATOM     11  C   UNL     1       8.574  -2.284  24.955  0.00  0.00    +0.002 A 
ATOM     12  C   UNL     1       8.729  -1.653  26.204  0.00  0.00    +0.056 A 
ATOM     13  C   UNL     1       8.024  -0.489  26.490  0.00  0.00    +0.162 A 
ATOM     14  C   UNL     1       7.186   0.081  25.545  0.00  0.00    +0.201 A 
ATOM     15  C   UNL     1       7.072  -0.489  24.287  0.00  0.00    +0.162 A 
ATOM     16  C   UNL     1       7.773  -1.650  23.980  0.00  0.00    +0.056 A 
BRANCH  13  17
ATOM     17  O   UNL     1       8.145   0.077  27.727  0.00  0.00    -0.503 OA
ATOM     18  H   UNL     1       9.104   0.250  27.823  0.00  0.00    +0.292 HD
ENDBRANCH  13  17
BRANCH  14  19
ATOM     19  O   UNL     1       6.469   1.200  25.871  0.00  0.00    -0.501 OA
ATOM     20  H   UNL     1       7.116   1.929  25.780  0.00  0.00    +0.292 HD
ENDBRANCH  14  19
BRANCH  15  21
ATOM     21  O   UNL     1       6.240   0.111  23.384  0.00  0.00    -0.503 OA
ATOM     22  H   UNL     1       6.789   0.500  22.679  0.00  0.00    +0.292 HD
ENDBRANCH  15  21
ENDBRANCH   2  11
BRANCH   1  23
ATOM     23  O   UNL     1      10.196  -5.700  25.593  0.00  0.00    -0.387 OA
ATOM     24  H   UNL     1      10.961  -5.399  25.065  0.00  0.00    +0.210 HD
ENDBRANCH   1  23
BRANCH   8  25
ATOM     25  O   UNL     1       4.461  -6.209  22.289  0.00  0.00    -0.507 OA
ATOM     26  H   UNL     1       4.315  -5.399  21.769  0.00  0.00    +0.292 HD
ENDBRANCH   8  25
BRANCH   6  27
ATOM     27  O   UNL     1       5.370  -6.039  26.939  0.00  0.00    -0.506 OA
ATOM     28  H   UNL     1       4.978  -6.925  26.997  0.00  0.00    +0.292 HD
ENDBRANCH   6  27
TORSDOF 7
ENDMDL
MODEL 6
REMARK VINA RESULT:      -6.5      1.768      3.649
REMARK  Name = 
REMARK  7 active torsions:
REMARK  status: ('A' for Active; 'I' for Inactive)
REMARK    1  A    between atoms: O_1  and  C_2
REMARK    2  A    between atoms: C_6  and  O_7
REMARK    3  A    between atoms: C_9  and  O_10
REMARK    4  A    between atoms: C_14  and  C_16
REMARK    5  A    between atoms: C_18  and  O_19
REMARK    6  A    between atoms: C_20  and  O_21
REMARK    7  A    between atoms: C_22  and  O_23
REMARK                            x       y       z     vdW  Elec       q    Type
REMARK                         _______ _______ _______ _____ _____    ______ ____
ROOT
ATOM      1  C   UNL     1       6.739  -3.022  22.057  0.00  0.00    +0.164 C 
ATOM      2  C   UNL     1       6.375  -1.903  23.057  0.00  0.00    +0.232 C 
ATOM      3  O   UNL     1       5.810  -2.512  24.244  0.00  0.00    -0.481 OA
ATOM      4  C   UNL     1       6.563  -3.513  24.808  0.00  0.00    +0.132 A 
ATOM      5  C   UNL     1       7.564  -4.211  24.119  0.00  0.00    +0.038 A 
ATOM      6  C   UNL     1       8.334  -5.133  24.841  0.00  0.00    +0.127 A 
ATOM      7  C   UNL     1       8.081  -5.393  26.188  0.00  0.00    +0.091 A 
ATOM      8  C   UNL     1       7.052  -4.718  26.829  0.00  0.00    +0.124 A 
ATOM      9  C   UNL     1       6.289  -3.782  26.149  0.00  0.00    +0.091 A 
ATOM     10  C   UNL     1       7.800  -3.948  22.654  0.00  0.00    +0.078 C 
ENDROOT
BRANCH   2  11
ATOM     11  C   UNL     1       7.511  -0.925  23.369  0.00  0.00    +0.002 A 
ATOM     12  C   UNL     1       8.106  -0.174  22.338  0.00  0.00    +0.056 A 
ATOM     13  C   UNL     1       9.214   0.623  22.604  0.00  0.00    +0.162 A 
ATOM     14  C   UNL     1       9.729   0.713  23.888  0.00  0.00    +0.201 A 
ATOM     15  C   UNL     1       9.116   0.033  24.929  0.00  0.00    +0.162 A 
ATOM     16  C   UNL     1       8.003  -0.764  24.683  0.00  0.00    +0.056 A 
BRANCH  13  17
ATOM     17  O   UNL     1       9.811   1.300  21.580  0.00  0.00    -0.503 OA
ATOM     18  H   UNL     1       9.071   1.560  20.994  0.00  0.00    +0.292 HD
ENDBRANCH  13  17
BRANCH  14  19
ATOM     19  O   UNL     1      10.848   1.467  24.112  0.00  0.00    -0.501 OA
ATOM     20  H   UNL     1      10.774   1.726  25.052  0.00  0.00    +0.292 HD
ENDBRANCH  14  19
BRANCH  15  21
ATOM     21  O   UNL     1       9.653   0.156  26.179  0.00  0.00    -0.503 OA
ATOM     22  H   UNL     1      10.622   0.212  26.088  0.00  0.00    +0.292 HD
ENDBRANCH  15  21
ENDBRANCH   2  11
BRANCH   1  23
ATOM     23  O   UNL     1       5.572  -3.791  21.717  0.00  0.00    -0.387 OA
ATOM     24  H   UNL     1       5.261  -3.470  20.848  0.00  0.00    +0.210 HD
ENDBRANCH   1  23
BRANCH   8  25
ATOM     25  O   UNL     1       6.770  -4.932  28.146  0.00  0.00    -0.507 OA
ATOM     26  H   UNL     1       7.364  -4.378  28.684  0.00  0.00    +0.292 HD
ENDBRANCH   8  25
BRANCH   6  27
ATOM     27  O   UNL     1       9.378  -5.821  24.288  0.00  0.00    -0.506 OA
ATOM     28  H   UNL     1       9.041  -6.519  23.705  0.00  0.00    +0.292 HD
ENDBRANCH   6  27
TORSDOF 7
ENDMDL
MODEL 7
REMARK VINA RESULT:      -6.5      1.973      3.682
REMARK  Name = 
REMARK  7 active torsions:
REMARK  status: ('A' for Active; 'I' for Inactive)
REMARK    1  A    between atoms: O_1  and  C_2
REMARK    2  A    between atoms: C_6  and  O_7
REMARK    3  A    between atoms: C_9  and  O_10
REMARK    4  A    between atoms: C_14  and  C_16
REMARK    5  A    between atoms: C_18  and  O_19
REMARK    6  A    between atoms: C_20  and  O_21
REMARK    7  A    between atoms: C_22  and  O_23
REMARK                            x       y       z     vdW  Elec       q    Type
REMARK                         _______ _______ _______ _____ _____    ______ ____
ROOT
ATOM      1  C   UNL     1       5.673  -1.175  24.509  0.00  0.00    +0.164 C 
ATOM      2  C   UNL     1       6.930  -0.583  25.183  0.00  0.00    +0.232 C 
ATOM      3  O   UNL     1       7.551  -1.616  25.988  0.00  0.00    -0.481 OA
ATOM      4  C   UNL     1       7.796  -2.801  25.338  0.00  0.00    +0.132 A 
ATOM      5  C   UNL     1       7.153  -3.183  24.153  0.00  0.00    +0.038 A 
ATOM      6  C   UNL     1       7.573  -4.366  23.531  0.00  0.00    +0.127 A 
ATOM      7  C   UNL     1       8.563  -5.171  24.097  0.00  0.00    +0.091 A 
ATOM      8  C   UNL     1       9.149  -4.788  25.295  0.00  0.00    +0.124 A 
ATOM      9  C   UNL     1       8.772  -3.610  25.922  0.00  0.00    +0.091 A 
ATOM     10  C   UNL     1       6.059  -2.323  23.575  0.00  0.00    +0.078 C 
ENDROOT
BRANCH   2  11
ATOM     11  C   UNL     1       7.912   0.101  24.227  0.00  0.00    +0.002 A 
ATOM     12  C   UNL     1       9.249   0.315  24.615  0.00  0.00    +0.056 A 
ATOM     13  C   UNL     1      10.105   1.042  23.795  0.00  0.00    +0.162 A 
ATOM     14  C   UNL     1       9.667   1.538  22.577  0.00  0.00    +0.201 A 
ATOM     15  C   UNL     1       8.374   1.281  22.149  0.00  0.00    +0.162 A 
ATOM     16  C   UNL     1       7.504   0.551  22.953  0.00  0.00    +0.056 A 
BRANCH  13  17
ATOM     17  O   UNL     1      11.381   1.286  24.213  0.00  0.00    -0.503 OA
ATOM     18  H   UNL     1      11.289   2.002  24.874  0.00  0.00    +0.292 HD
ENDBRANCH  13  17
BRANCH  14  19
ATOM     19  O   UNL     1      10.517   2.289  21.813  0.00  0.00    -0.501 OA
ATOM     20  H   UNL     1      10.933   1.638  21.212  0.00  0.00    +0.292 HD
ENDBRANCH  14  19
BRANCH  15  21
ATOM     21  O   UNL     1       7.986   1.784  20.939  0.00  0.00    -0.503 OA
ATOM     22  H   UNL     1       7.836   1.034  20.334  0.00  0.00    +0.292 HD
ENDBRANCH  15  21
ENDBRANCH   2  11
BRANCH   1  23
ATOM     23  O   UNL     1       4.751  -1.657  25.502  0.00  0.00    -0.387 OA
ATOM     24  H   UNL     1       5.007  -1.249  26.352  0.00  0.00    +0.210 HD
ENDBRANCH   1  23
BRANCH   8  25
ATOM     25  O   UNL     1      10.124  -5.537  25.884  0.00  0.00    -0.507 OA
ATOM     26  H   UNL     1      10.465  -6.172  25.229  0.00  0.00    +0.292 HD
ENDBRANCH   8  25
BRANCH   6  27
ATOM     27  O   UNL     1       7.063  -4.800  22.340  0.00  0.00    -0.506 OA
ATOM     28  H   UNL     1       6.955  -4.051  21.734  0.00  0.00    +0.292 HD
ENDBRANCH   6  27
TORSDOF 7
ENDMDL
MODEL 8
REMARK VINA RESULT:      -6.5      1.560      2.487
REMARK  Name = 
REMARK  7 active torsions:
REMARK  status: ('A' for Active; 'I' for Inactive)
REMARK    1  A    between atoms: O_1  and  C_2
REMARK    2  A    between atoms: C_6  and  O_7
REMARK    3  A    between atoms: C_9  and  O_10
REMARK    4  A    between atoms: C_14  and  C_16
REMARK    5  A    between atoms: C_18  and  O_19
REMARK    6  A    between atoms: C_20  and  O_21
REMARK    7  A    between atoms: C_22  and  O_23
REMARK                            x       y       z     vdW  Elec       q    Type
REMARK                         _______ _______ _______ _____ _____    ______ ____
ROOT
ATOM      1  C   UNL     1       8.585  -2.321  25.990  0.00  0.00    +0.164 C 
ATOM      2  C   UNL     1       9.397  -2.082  24.698  0.00  0.00    +0.232 C 
ATOM      3  O   UNL     1       9.056  -3.114  23.741  0.00  0.00    -0.481 OA
ATOM      4  C   UNL     1       7.712  -3.281  23.509  0.00  0.00    +0.132 A 
ATOM      5  C   UNL     1       6.713  -2.834  24.384  0.00  0.00    +0.038 A 
ATOM      6  C   UNL     1       5.379  -2.969  23.978  0.00  0.00    +0.127 A 
ATOM      7  C   UNL     1       5.046  -3.577  22.767  0.00  0.00    +0.091 A 
ATOM      8  C   UNL     1       6.058  -4.050  21.943  0.00  0.00    +0.124 A 
ATOM      9  C   UNL     1       7.389  -3.909  22.305  0.00  0.00    +0.091 A 
ATOM     10  C   UNL     1       7.087  -2.215  25.706  0.00  0.00    +0.078 C 
ENDROOT
BRANCH   2  11
ATOM     11  C   UNL     1       9.282  -0.668  24.119  0.00  0.00    +0.002 A 
ATOM     12  C   UNL     1       9.138   0.441  24.975  0.00  0.00    +0.056 A 
ATOM     13  C   UNL     1       8.914   1.707  24.446  0.00  0.00    +0.162 A 
ATOM     14  C   UNL     1       8.860   1.901  23.075  0.00  0.00    +0.201 A 
ATOM     15  C   UNL     1       9.066   0.833  22.216  0.00  0.00    +0.162 A 
ATOM     16  C   UNL     1       9.296  -0.440  22.726  0.00  0.00    +0.056 A 
BRANCH  13  17
ATOM     17  O   UNL     1       8.721   2.760  25.293  0.00  0.00    -0.503 OA
ATOM     18  H   UNL     1       9.504   2.747  25.881  0.00  0.00    +0.292 HD
ENDBRANCH  13  17
BRANCH  14  19
ATOM     19  O   UNL     1       8.592   3.149  22.583  0.00  0.00    -0.501 OA
ATOM     20  H   UNL     1       8.803   3.747  23.328  0.00  0.00    +0.292 HD
ENDBRANCH  14  19
BRANCH  15  21
ATOM     21  O   UNL     1       9.010   1.071  20.871  0.00  0.00    -0.503 OA
ATOM     22  H   UNL     1       9.923   1.085  20.529  0.00  0.00    +0.292 HD
ENDBRANCH  15  21
ENDBRANCH   2  11
BRANCH   1  23
ATOM     23  O   UNL     1       8.877  -3.622  26.531  0.00  0.00    -0.387 OA
ATOM     24  H   UNL     1       8.222  -4.242  26.155  0.00  0.00    +0.210 HD
ENDBRANCH   1  23
BRANCH   8  25
ATOM     25  O   UNL     1       5.784  -4.645  20.747  0.00  0.00    -0.507 OA
ATOM     26  H   UNL     1       6.456  -5.330  20.581  0.00  0.00    +0.292 HD
ENDBRANCH   8  25
BRANCH   6  27
ATOM     27  O   UNL     1       4.327  -2.509  24.721  0.00  0.00    -0.506 OA
ATOM     28  H   UNL     1       4.507  -2.643  25.665  0.00  0.00    +0.292 HD
ENDBRANCH   6  27
TORSDOF 7
ENDMDL
MODEL 9
REMARK VINA RESULT:      -6.4      2.019      5.860
REMARK  Name = 
REMARK  7 active torsions:
REMARK  status: ('A' for Active; 'I' for Inactive)
REMARK    1  A    between atoms: O_1  and  C_2
REMARK    2  A    between atoms: C_6  and  O_7
REMARK    3  A    between atoms: C_9  and  O_10
REMARK    4  A    between atoms: C_14  and  C_16
REMARK    5  A    between atoms: C_18  and  O_19
REMARK    6  A    between atoms: C_20  and  O_21
REMARK    7  A    between atoms: C_22  and  O_23
REMARK                            x       y       z     vdW  Elec       q    Type
REMARK                         _______ _______ _______ _____ _____    ______ ____
ROOT
ATOM      1  C   UNL     1       7.681  -0.666  26.734  0.00  0.00    +0.164 C 
ATOM      2  C   UNL     1       6.893  -1.451  25.663  0.00  0.00    +0.232 C 
ATOM      3  O   UNL     1       6.690  -0.589  24.516  0.00  0.00    -0.481 OA
ATOM      4  C   UNL     1       7.823   0.008  24.020  0.00  0.00    +0.132 A 
ATOM      5  C   UNL     1       9.008   0.153  24.755  0.00  0.00    +0.038 A 
ATOM      6  C   UNL     1      10.127   0.680  24.097  0.00  0.00    +0.127 A 
ATOM      7  C   UNL     1      10.056   1.101  22.769  0.00  0.00    +0.091 A 
ATOM      8  C   UNL     1       8.855   0.987  22.082  0.00  0.00    +0.124 A 
ATOM      9  C   UNL     1       7.737   0.446  22.698  0.00  0.00    +0.091 A 
ATOM     10  C   UNL     1       9.058  -0.270  26.201  0.00  0.00    +0.078 C 
ENDROOT
BRANCH   2  11
ATOM     11  C   UNL     1       7.492  -2.810  25.291  0.00  0.00    +0.002 A 
ATOM     12  C   UNL     1       8.442  -3.422  26.131  0.00  0.00    +0.056 A 
ATOM     13  C   UNL     1       9.072  -4.597  25.733  0.00  0.00    +0.162 A 
ATOM     14  C   UNL     1       8.755  -5.195  24.524  0.00  0.00    +0.201 A 
ATOM     15  C   UNL     1       7.774  -4.644  23.714  0.00  0.00    +0.162 A 
ATOM     16  C   UNL     1       7.129  -3.472  24.097  0.00  0.00    +0.056 A 
BRANCH  13  17
ATOM     17  O   UNL     1      10.030  -5.144  26.536  0.00  0.00    -0.503 OA
ATOM     18  H   UNL     1      10.785  -5.313  25.935  0.00  0.00    +0.292 HD
ENDBRANCH  13  17
BRANCH  14  19
ATOM     19  O   UNL     1       9.424  -6.324  24.137  0.00  0.00    -0.501 OA
ATOM     20  H   UNL     1      10.089  -6.458  24.843  0.00  0.00    +0.292 HD
ENDBRANCH  14  19
BRANCH  15  21
ATOM     21  O   UNL     1       7.489  -5.270  22.534  0.00  0.00    -0.503 OA
ATOM     22  H   UNL     1       8.296  -5.725  22.231  0.00  0.00    +0.292 HD
ENDBRANCH  15  21
ENDBRANCH   2  11
BRANCH   1  23
ATOM     23  O   UNL     1       6.960   0.518  27.119  0.00  0.00    -0.387 OA
ATOM     24  H   UNL     1       6.348   0.260  27.836  0.00  0.00    +0.210 HD
ENDBRANCH   1  23
BRANCH   8  25
ATOM     25  O   UNL     1       8.737   1.378  20.781  0.00  0.00    -0.507 OA
ATOM     26  H   UNL     1       8.990   0.631  20.209  0.00  0.00    +0.292 HD
ENDBRANCH   8  25
BRANCH   6  27
ATOM     27  O   UNL     1      11.349   0.805  24.696  0.00  0.00    -0.506 OA
ATOM     28  H   UNL     1      12.032   0.959  24.024  0.00  0.00    +0.292 HD
ENDBRANCH   6  27
TORSDOF 7
ENDMDL
