MODEL 1
REMARK VINA RESULT:      -5.1      0.000      0.000
REMARK  Name = 
REMARK  9 active torsions:
REMARK  status: ('A' for Active; 'I' for Inactive)
REMARK    1  A    between atoms: O_1  and  C_2
REMARK    2  A    between atoms: C_2  and  C_3
REMARK    3  A    between atoms: C_6  and  O_8
REMARK    4  A    between atoms: O_8  and  P_9
REMARK    5  A    between atoms: P_9  and  O_10
REMARK    6  A    between atoms: P_9  and  O_11
REMARK    7  A    between atoms: C_13  and  O_15
REMARK    8  A    between atoms: C_16  and  O_18
REMARK    9  A    between atoms: C_19  and  O_21
REMARK                            x       y       z     vdW  Elec       q    Type
REMARK                         _______ _______ _______ _____ _____    ______ ____
ROOT
ATOM      1  C   UNL     1       6.347  -4.801  26.071  0.00  0.00    +0.178 C 
ATOM      2  C   UNL     1       7.713  -4.641  26.766  0.00  0.00    +0.177 C 
ATOM      3  C   UNL     1       8.748  -3.887  25.902  0.00  0.00    +0.179 C 
ATOM      4  C   UNL     1       8.749  -4.396  24.457  0.00  0.00    +0.202 C 
ATOM      5  C   UNL     1       7.316  -4.497  23.877  0.00  0.00    +0.293 C 
ATOM      6  O   UNL     1       6.479  -5.275  24.721  0.00  0.00    -0.340 OA
ENDROOT
BRANCH   2   7
ATOM      7  O   UNL     1       8.187  -5.960  27.104  0.00  0.00    -0.386 OA
ATOM      8  H   UNL     1       9.152  -5.917  27.258  0.00  0.00    +0.210 HD
ENDBRANCH   2   7
BRANCH   3   9
ATOM      9  O   UNL     1       8.578  -2.472  25.952  0.00  0.00    -0.386 OA
ATOM     10  H   UNL     1       9.452  -2.047  25.819  0.00  0.00    +0.210 HD
ENDBRANCH   3   9
BRANCH   4  11
ATOM     11  O   UNL     1       9.380  -5.694  24.446  0.00  0.00    -0.384 OA
ATOM     12  H   UNL     1      10.147  -5.614  23.842  0.00  0.00    +0.210 HD
ENDBRANCH   4  11
BRANCH   1  13
ATOM     13  C   UNL     1       5.432  -3.567  26.172  0.00  0.00    +0.190 C 
BRANCH  13  14
ATOM     14  O   UNL     1       5.829  -2.668  27.206  0.00  0.00    -0.392 OA
ATOM     15  H   UNL     1       6.792  -2.781  27.308  0.00  0.00    +0.210 HD
ENDBRANCH  13  14
ENDBRANCH   1  13
BRANCH   5  16
ATOM     16  O   UNL     1       7.419  -5.187  22.640  0.00  0.00    -0.254 OA
BRANCH  16  17
ATOM     17  P   UNL     1       6.052  -5.519  21.895  0.00  0.00    +0.475 P 
ATOM     18  O   UNL     1       6.050  -5.648  20.412  0.00  0.00    -0.227 OA
BRANCH  17  19
ATOM     19  O   UNL     1       5.056  -4.359  22.368  0.00  0.00    -0.303 OA
ATOM     20  H   UNL     1       5.466  -3.864  23.104  0.00  0.00    +0.222 HD
ENDBRANCH  17  19
BRANCH  17  21
ATOM     21  O   UNL     1       5.414  -6.742  22.686  0.00  0.00    -0.303 OA
ATOM     22  H   UNL     1       5.424  -6.572  23.640  0.00  0.00    +0.222 HD
ENDBRANCH  17  21
ENDBRANCH  16  17
ENDBRANCH   5  16
TORSDOF 9
ENDMDL
MODEL 2
REMARK VINA RESULT:      -5.0      2.896      4.856
REMARK  Name = 
REMARK  9 active torsions:
REMARK  status: ('A' for Active; 'I' for Inactive)
REMARK    1  A    between atoms: O_1  and  C_2
REMARK    2  A    between atoms: C_2  and  C_3
REMARK    3  A    between atoms: C_6  and  O_8
REMARK    4  A    between atoms: O_8  and  P_9
REMARK    5  A    between atoms: P_9  and  O_10
REMARK    6  A    between atoms: P_9  and  O_11
REMARK    7  A    between atoms: C_13  and  O_15
REMARK    8  A    between atoms: C_16  and  O_18
REMARK    9  A    between atoms: C_19  and  O_21
REMARK                            x       y       z     vdW  Elec       q    Type
REMARK                         _______ _______ _______ _____ _____    ______ ____
ROOT
ATOM      1  C   UNL     1       9.642  -1.491  24.008  0.00  0.00    +0.178 C 
ATOM      2  C   UNL     1       8.975  -1.094  22.676  0.00  0.00    +0.177 C 
ATOM      3  C   UNL     1       7.475  -1.455  22.617  0.00  0.00    +0.179 C 
ATOM      4  C   UNL     1       7.220  -2.875  23.135  0.00  0.00    +0.202 C 
ATOM      5  C   UNL     1       7.936  -3.137  24.484  0.00  0.00    +0.293 C 
ATOM      6  O   UNL     1       9.322  -2.839  24.392  0.00  0.00    -0.340 OA
ENDROOT
BRANCH   2   7
ATOM      7  O   UNL     1       9.704  -1.741  21.614  0.00  0.00    -0.386 OA
ATOM      8  H   UNL     1       9.371  -2.655  21.515  0.00  0.00    +0.210 HD
ENDBRANCH   2   7
BRANCH   3   9
ATOM      9  O   UNL     1       6.654  -0.505  23.291  0.00  0.00    -0.386 OA
ATOM     10  H   UNL     1       6.994   0.395  23.098  0.00  0.00    +0.210 HD
ENDBRANCH   3   9
BRANCH   4  11
ATOM     11  O   UNL     1       7.694  -3.802  22.136  0.00  0.00    -0.384 OA
ATOM     12  H   UNL     1       7.079  -4.564  22.164  0.00  0.00    +0.210 HD
ENDBRANCH   4  11
BRANCH   1  13
ATOM     13  C   UNL     1       9.424  -0.488  25.155  0.00  0.00    +0.190 C 
BRANCH  13  14
ATOM     14  O   UNL     1      10.525   0.403  25.327  0.00  0.00    -0.392 OA
ATOM     15  H   UNL     1      10.409   1.108  24.663  0.00  0.00    +0.210 HD
ENDBRANCH  13  14
ENDBRANCH   1  13
BRANCH   5  16
ATOM     16  O   UNL     1       7.825  -4.529  24.747  0.00  0.00    -0.254 OA
BRANCH  16  17
ATOM     17  P   UNL     1       8.427  -5.041  26.129  0.00  0.00    +0.475 P 
ATOM     18  O   UNL     1       7.611  -5.952  26.979  0.00  0.00    -0.227 OA
BRANCH  17  19
ATOM     19  O   UNL     1       8.793  -3.699  26.919  0.00  0.00    -0.303 OA
ATOM     20  H   UNL     1       8.071  -3.486  27.543  0.00  0.00    +0.222 HD
ENDBRANCH  17  19
BRANCH  17  21
ATOM     21  O   UNL     1       9.896  -5.552  25.797  0.00  0.00    -0.303 OA
ATOM     22  H   UNL     1      10.236  -6.101  26.520  0.00  0.00    +0.222 HD
ENDBRANCH  17  21
ENDBRANCH  16  17
ENDBRANCH   5  16
TORSDOF 9
ENDMDL
MODEL 3
REMARK VINA RESULT:      -5.0      2.782      4.500
REMARK  Name = 
REMARK  9 active torsions:
REMARK  status: ('A' for Active; 'I' for Inactive)
REMARK    1  A    between atoms: O_1  and  C_2
REMARK    2  A    between atoms: C_2  and  C_3
REMARK    3  A    between atoms: C_6  and  O_8
REMARK    4  A    between atoms: O_8  and  P_9
REMARK    5  A    between atoms: P_9  and  O_10
REMARK    6  A    between atoms: P_9  and  O_11
REMARK    7  A    between atoms: C_13  and  O_15
REMARK    8  A    between atoms: C_16  and  O_18
REMARK    9  A    between atoms: C_19  and  O_21
REMARK                            x       y       z     vdW  Elec       q    Type
REMARK                         _______ _______ _______ _____ _____    ______ ____
ROOT
ATOM      1  C   UNL     1       7.106  -3.963  22.210  0.00  0.00    +0.178 C 
ATOM      2  C   UNL     1       7.075  -5.237  23.077  0.00  0.00    +0.177 C 
ATOM      3  C   UNL     1       7.301  -4.955  24.579  0.00  0.00    +0.179 C 
ATOM      4  C   UNL     1       8.466  -3.984  24.797  0.00  0.00    +0.202 C 
ATOM      5  C   UNL     1       8.368  -2.744  23.873  0.00  0.00    +0.293 C 
ATOM      6  O   UNL     1       8.239  -3.131  22.512  0.00  0.00    -0.340 OA
ENDROOT
BRANCH   2   7
ATOM      7  O   UNL     1       8.078  -6.138  22.565  0.00  0.00    -0.386 OA
ATOM      8  H   UNL     1       8.962  -5.786  22.792  0.00  0.00    +0.210 HD
ENDBRANCH   2   7
BRANCH   3   9
ATOM      9  O   UNL     1       6.120  -4.500  25.236  0.00  0.00    -0.386 OA
ATOM     10  H   UNL     1       6.379  -4.050  26.068  0.00  0.00    +0.210 HD
ENDBRANCH   3   9
BRANCH   4  11
ATOM     11  O   UNL     1       9.692  -4.699  24.536  0.00  0.00    -0.384 OA
ATOM     12  H   UNL     1       9.423  -5.607  24.281  0.00  0.00    +0.210 HD
ENDBRANCH   4  11
BRANCH   1  13
ATOM     13  C   UNL     1       5.786  -3.172  22.191  0.00  0.00    +0.190 C 
BRANCH  13  14
ATOM     14  O   UNL     1       4.656  -3.975  22.527  0.00  0.00    -0.392 OA
ATOM     15  H   UNL     1       4.640  -4.704  21.879  0.00  0.00    +0.210 HD
ENDBRANCH  13  14
ENDBRANCH   1  13
BRANCH   5  16
ATOM     16  O   UNL     1       9.598  -2.042  23.992  0.00  0.00    -0.254 OA
BRANCH  16  17
ATOM     17  P   UNL     1       9.845  -0.860  22.955  0.00  0.00    +0.475 P 
ATOM     18  O   UNL     1      10.669   0.307  23.373  0.00  0.00    -0.227 OA
BRANCH  17  19
ATOM     19  O   UNL     1       8.374  -0.397  22.530  0.00  0.00    -0.303 OA
ATOM     20  H   UNL     1       8.043   0.257  23.177  0.00  0.00    +0.222 HD
ENDBRANCH  17  19
BRANCH  17  21
ATOM     21  O   UNL     1      10.294  -1.561  21.599  0.00  0.00    -0.303 OA
ATOM     22  H   UNL     1      10.279  -0.927  20.867  0.00  0.00    +0.222 HD
ENDBRANCH  17  21
ENDBRANCH  16  17
ENDBRANCH   5  16
TORSDOF 9
ENDMDL
MODEL 4
REMARK VINA RESULT:      -5.0      4.112      4.799
REMARK  Name = 
REMARK  9 active torsions:
REMARK  status: ('A' for Active; 'I' for Inactive)
REMARK    1  A    between atoms: O_1  and  C_2
REMARK    2  A    between atoms: C_2  and  C_3
REMARK    3  A    between atoms: C_6  and  O_8
REMARK    4  A    between atoms: O_8  and  P_9
REMARK    5  A    between atoms: P_9  and  O_10
REMARK    6  A    between atoms: P_9  and  O_11
REMARK    7  A    between atoms: C_13  and  O_15
REMARK    8  A    between atoms: C_16  and  O_18
REMARK    9  A    between atoms: C_19  and  O_21
REMARK                            x       y       z     vdW  Elec       q    Type
REMARK                         _______ _______ _______ _____ _____    ______ ____
ROOT
ATOM      1  C   UNL     1       8.366   0.261  24.027  0.00  0.00    +0.178 C 
ATOM      2  C   UNL     1       9.675   0.828  23.444  0.00  0.00    +0.177 C 
ATOM      3  C   UNL     1       9.831   0.560  21.931  0.00  0.00    +0.179 C 
ATOM      4  C   UNL     1       9.474  -0.888  21.579  0.00  0.00    +0.202 C 
ATOM      5  C   UNL     1       8.131  -1.325  22.217  0.00  0.00    +0.293 C 
ATOM      6  O   UNL     1       8.137  -1.099  23.620  0.00  0.00    -0.340 OA
ENDROOT
BRANCH   2   7
ATOM      7  O   UNL     1      10.768   0.252  24.186  0.00  0.00    -0.386 OA
ATOM      8  H   UNL     1      10.860  -0.688  23.931  0.00  0.00    +0.210 HD
ENDBRANCH   2   7
BRANCH   3   9
ATOM      9  O   UNL     1       9.096   1.483  21.131  0.00  0.00    -0.386 OA
ATOM     10  H   UNL     1       9.688   2.226  20.887  0.00  0.00    +0.210 HD
ENDBRANCH   3   9
BRANCH   4  11
ATOM     11  O   UNL     1      10.544  -1.734  22.049  0.00  0.00    -0.384 OA
ATOM     12  H   UNL     1      11.288  -1.132  22.261  0.00  0.00    +0.210 HD
ENDBRANCH   4  11
BRANCH   1  13
ATOM     13  C   UNL     1       7.130   1.154  23.809  0.00  0.00    +0.190 C 
BRANCH  13  14
ATOM     14  O   UNL     1       5.902   0.449  23.982  0.00  0.00    -0.392 OA
ATOM     15  H   UNL     1       5.637   0.145  23.094  0.00  0.00    +0.210 HD
ENDBRANCH  13  14
ENDBRANCH   1  13
BRANCH   5  16
ATOM     16  O   UNL     1       8.019  -2.728  22.021  0.00  0.00    -0.254 OA
BRANCH  16  17
ATOM     17  P   UNL     1       6.599  -3.377  22.332  0.00  0.00    +0.475 P 
ATOM     18  O   UNL     1       5.978  -4.275  21.320  0.00  0.00    -0.227 OA
BRANCH  17  19
ATOM     19  O   UNL     1       5.653  -2.124  22.639  0.00  0.00    -0.303 OA
ATOM     20  H   UNL     1       5.578  -1.572  21.835  0.00  0.00    +0.222 HD
ENDBRANCH  17  19
BRANCH  17  21
ATOM     21  O   UNL     1       6.711  -3.979  23.800  0.00  0.00    -0.303 OA
ATOM     22  H   UNL     1       7.130  -3.342  24.398  0.00  0.00    +0.222 HD
ENDBRANCH  17  21
ENDBRANCH  16  17
ENDBRANCH   5  16
TORSDOF 9
ENDMDL
MODEL 5
REMARK VINA RESULT:      -4.8      2.862      4.626
REMARK  Name = 
REMARK  9 active torsions:
REMARK  status: ('A' for Active; 'I' for Inactive)
REMARK    1  A    between atoms: O_1  and  C_2
REMARK    2  A    between atoms: C_2  and  C_3
REMARK    3  A    between atoms: C_6  and  O_8
REMARK    4  A    between atoms: O_8  and  P_9
REMARK    5  A    between atoms: P_9  and  O_10
REMARK    6  A    between atoms: P_9  and  O_11
REMARK    7  A    between atoms: C_13  and  O_15
REMARK    8  A    between atoms: C_16  and  O_18
REMARK    9  A    between atoms: C_19  and  O_21
REMARK                            x       y       z     vdW  Elec       q    Type
REMARK                         _______ _______ _______ _____ _____    ______ ____
ROOT
ATOM      1  C   UNL     1       8.164  -3.965  25.090  0.00  0.00    +0.178 C 
ATOM      2  C   UNL     1       7.108  -4.987  24.624  0.00  0.00    +0.177 C 
ATOM      3  C   UNL     1       7.071  -5.164  23.090  0.00  0.00    +0.179 C 
ATOM      4  C   UNL     1       7.107  -3.812  22.369  0.00  0.00    +0.202 C 
ATOM      5  C   UNL     1       8.219  -2.888  22.926  0.00  0.00    +0.293 C 
ATOM      6  O   UNL     1       8.104  -2.744  24.335  0.00  0.00    -0.340 OA
ENDROOT
BRANCH   2   7
ATOM      7  O   UNL     1       5.829  -4.551  25.125  0.00  0.00    -0.386 OA
ATOM      8  H   UNL     1       5.627  -3.671  24.748  0.00  0.00    +0.210 HD
ENDBRANCH   2   7
BRANCH   3   9
ATOM      9  O   UNL     1       8.095  -6.031  22.611  0.00  0.00    -0.386 OA
ATOM     10  H   UNL     1       7.674  -6.823  22.214  0.00  0.00    +0.210 HD
ENDBRANCH   3   9
BRANCH   4  11
ATOM     11  O   UNL     1       5.816  -3.187  22.537  0.00  0.00    -0.384 OA
ATOM     12  H   UNL     1       5.564  -3.341  23.471  0.00  0.00    +0.210 HD
ENDBRANCH   4  11
BRANCH   1  13
ATOM     13  C   UNL     1       9.595  -4.525  25.186  0.00  0.00    +0.190 C 
BRANCH  13  14
ATOM     14  O   UNL     1       9.624  -5.944  25.333  0.00  0.00    -0.392 OA
ATOM     15  H   UNL     1       9.928  -6.299  24.476  0.00  0.00    +0.210 HD
ENDBRANCH  13  14
ENDBRANCH   1  13
BRANCH   5  16
ATOM     16  O   UNL     1       8.012  -1.603  22.357  0.00  0.00    -0.254 OA
BRANCH  16  17
ATOM     17  P   UNL     1       9.303  -0.689  22.176  0.00  0.00    +0.475 P 
ATOM     18  O   UNL     1       9.235   0.486  21.265  0.00  0.00    -0.227 OA
BRANCH  17  19
ATOM     19  O   UNL     1      10.443  -1.709  21.707  0.00  0.00    -0.303 OA
ATOM     20  H   UNL     1      11.179  -1.206  21.305  0.00  0.00    +0.222 HD
ENDBRANCH  17  19
BRANCH  17  21
ATOM     21  O   UNL     1       9.824  -0.382  23.647  0.00  0.00    -0.303 OA
ATOM     22  H   UNL     1       9.998  -1.206  24.125  0.00  0.00    +0.222 HD
ENDBRANCH  17  21
ENDBRANCH  16  17
ENDBRANCH   5  16
TORSDOF 9
ENDMDL
MODEL 6
REMARK VINA RESULT:      -4.7      3.526      5.063
REMARK  Name = 
REMARK  9 active torsions:
REMARK  status: ('A' for Active; 'I' for Inactive)
REMARK    1  A    between atoms: O_1  and  C_2
REMARK    2  A    between atoms: C_2  and  C_3
REMARK    3  A    between atoms: C_6  and  O_8
REMARK    4  A    between atoms: O_8  and  P_9
REMARK    5  A    between atoms: P_9  and  O_10
REMARK    6  A    between atoms: P_9  and  O_11
REMARK    7  A    between atoms: C_13  and  O_15
REMARK    8  A    between atoms: C_16  and  O_18
REMARK    9  A    between atoms: C_19  and  O_21
REMARK                            x       y       z     vdW  Elec       q    Type
REMARK                         _______ _______ _______ _____ _____    ______ ____
ROOT
ATOM      1  C   UNL     1       9.335   0.076  24.760  0.00  0.00    +0.178 C 
ATOM      2  C   UNL     1       9.005   0.609  23.352  0.00  0.00    +0.177 C 
ATOM      3  C   UNL     1       8.148  -0.368  22.519  0.00  0.00    +0.179 C 
ATOM      4  C   UNL     1       8.675  -1.803  22.621  0.00  0.00    +0.202 C 
ATOM      5  C   UNL     1       8.952  -2.215  24.089  0.00  0.00    +0.293 C 
ATOM      6  O   UNL     1       9.811  -1.280  24.727  0.00  0.00    -0.340 OA
ENDROOT
BRANCH   2   7
ATOM      7  O   UNL     1      10.254   0.893  22.691  0.00  0.00    -0.386 OA
ATOM      8  H   UNL     1      10.673   1.662  23.126  0.00  0.00    +0.210 HD
ENDBRANCH   2   7
BRANCH   3   9
ATOM      9  O   UNL     1       6.762  -0.302  22.848  0.00  0.00    -0.386 OA
ATOM     10  H   UNL     1       6.271  -0.912  22.258  0.00  0.00    +0.210 HD
ENDBRANCH   3   9
BRANCH   4  11
ATOM     11  O   UNL     1       9.890  -1.884  21.847  0.00  0.00    -0.384 OA
ATOM     12  H   UNL     1      10.099  -0.965  21.580  0.00  0.00    +0.210 HD
ENDBRANCH   4  11
BRANCH   1  13
ATOM     13  C   UNL     1       8.215   0.278  25.798  0.00  0.00    +0.190 C 
BRANCH  13  14
ATOM     14  O   UNL     1       8.573  -0.193  27.096  0.00  0.00    -0.392 OA
ATOM     15  H   UNL     1       8.141  -1.061  27.198  0.00  0.00    +0.210 HD
ENDBRANCH  13  14
ENDBRANCH   1  13
BRANCH   5  16
ATOM     16  O   UNL     1       9.644  -3.456  24.046  0.00  0.00    -0.254 OA
BRANCH  16  17
ATOM     17  P   UNL     1       9.149  -4.581  25.057  0.00  0.00    +0.475 P 
ATOM     18  O   UNL     1       7.910  -5.343  24.740  0.00  0.00    -0.227 OA
BRANCH  17  19
ATOM     19  O   UNL     1       9.007  -3.817  26.456  0.00  0.00    -0.303 OA
ATOM     20  H   UNL     1       8.194  -4.120  26.907  0.00  0.00    +0.222 HD
ENDBRANCH  17  19
BRANCH  17  21
ATOM     21  O   UNL     1      10.430  -5.467  25.378  0.00  0.00    -0.303 OA
ATOM     22  H   UNL     1      11.011  -5.518  24.604  0.00  0.00    +0.222 HD
ENDBRANCH  17  21
ENDBRANCH  16  17
ENDBRANCH   5  16
TORSDOF 9
ENDMDL
MODEL 7
REMARK VINA RESULT:      -4.7      4.817      6.142
REMARK  Name = 
REMARK  9 active torsions:
REMARK  status: ('A' for Active; 'I' for Inactive)
REMARK    1  A    between atoms: O_1  and  C_2
REMARK    2  A    between atoms: C_2  and  C_3
REMARK    3  A    between atoms: C_6  and  O_8
REMARK    4  A    between atoms: O_8  and  P_9
REMARK    5  A    between atoms: P_9  and  O_10
REMARK    6  A    between atoms: P_9  and  O_11
REMARK    7  A    between atoms: C_13  and  O_15
REMARK    8  A    between atoms: C_16  and  O_18
REMARK    9  A    between atoms: C_19  and  O_21
REMARK                            x       y       z     vdW  Elec       q    Type
REMARK                         _______ _______ _______ _____ _____    ______ ____
ROOT
ATOM      1  C   UNL     1       7.754   1.184  23.741  0.00  0.00    +0.178 C 
ATOM      2  C   UNL     1       8.757   2.351  23.839  0.00  0.00    +0.177 C 
ATOM      3  C   UNL     1      10.144   2.011  23.250  0.00  0.00    +0.179 C 
ATOM      4  C   UNL     1      10.624   0.631  23.711  0.00  0.00    +0.202 C 
ATOM      5  C   UNL     1       9.526  -0.450  23.548  0.00  0.00    +0.293 C 
ATOM      6  O   UNL     1       8.324  -0.056  24.194  0.00  0.00    -0.340 OA
ENDROOT
BRANCH   2   7
ATOM      7  O   UNL     1       8.863   2.720  25.228  0.00  0.00    -0.386 OA
ATOM      8  H   UNL     1       9.068   3.675  25.285  0.00  0.00    +0.210 HD
ENDBRANCH   2   7
BRANCH   3   9
ATOM      9  O   UNL     1      10.180   2.122  21.829  0.00  0.00    -0.386 OA
ATOM     10  H   UNL     1      10.491   3.022  21.594  0.00  0.00    +0.210 HD
ENDBRANCH   3   9
BRANCH   4  11
ATOM     11  O   UNL     1      11.010   0.738  25.098  0.00  0.00    -0.384 OA
ATOM     12  H   UNL     1      11.103  -0.182  25.422  0.00  0.00    +0.210 HD
ENDBRANCH   4  11
BRANCH   1  13
ATOM     13  C   UNL     1       7.066   1.048  22.371  0.00  0.00    +0.190 C 
BRANCH  13  14
ATOM     14  O   UNL     1       7.198   2.219  21.567  0.00  0.00    -0.392 OA
ATOM     15  H   UNL     1       6.607   2.090  20.802  0.00  0.00    +0.210 HD
ENDBRANCH  13  14
ENDBRANCH   1  13
BRANCH   5  16
ATOM     16  O   UNL     1       9.993  -1.617  24.211  0.00  0.00    -0.254 OA
BRANCH  16  17
ATOM     17  P   UNL     1       9.017  -2.875  24.207  0.00  0.00    +0.475 P 
ATOM     18  O   UNL     1       9.596  -4.238  24.353  0.00  0.00    -0.227 OA
BRANCH  17  19
ATOM     19  O   UNL     1       8.211  -2.741  22.832  0.00  0.00    -0.303 OA
ATOM     20  H   UNL     1       7.668  -3.543  22.698  0.00  0.00    +0.222 HD
ENDBRANCH  17  19
BRANCH  17  21
ATOM     21  O   UNL     1       7.848  -2.518  25.225  0.00  0.00    -0.303 OA
ATOM     22  H   UNL     1       8.183  -2.501  26.134  0.00  0.00    +0.222 HD
ENDBRANCH  17  21
ENDBRANCH  16  17
ENDBRANCH   5  16
TORSDOF 9
ENDMDL
MODEL 8
REMARK VINA RESULT:      -4.7      4.398      5.828
REMARK  Name = 
REMARK  9 active torsions:
REMARK  status: ('A' for Active; 'I' for Inactive)
REMARK    1  A    between atoms: O_1  and  C_2
REMARK    2  A    between atoms: C_2  and  C_3
REMARK    3  A    between atoms: C_6  and  O_8
REMARK    4  A    between atoms: O_8  and  P_9
REMARK    5  A    between atoms: P_9  and  O_10
REMARK    6  A    between atoms: P_9  and  O_11
REMARK    7  A    between atoms: C_13  and  O_15
REMARK    8  A    between atoms: C_16  and  O_18
REMARK    9  A    between atoms: C_19  and  O_21
REMARK                            x       y       z     vdW  Elec       q    Type
REMARK                         _______ _______ _______ _____ _____    ______ ____
ROOT
ATOM      1  C   UNL     1       7.069  -1.332  23.166  0.00  0.00    +0.178 C 
ATOM      2  C   UNL     1       7.550  -2.763  23.477  0.00  0.00    +0.177 C 
ATOM      3  C   UNL     1       8.793  -2.800  24.394  0.00  0.00    +0.179 C 
ATOM      4  C   UNL     1       9.850  -1.785  23.946  0.00  0.00    +0.202 C 
ATOM      5  C   UNL     1       9.235  -0.388  23.680  0.00  0.00    +0.293 C 
ATOM      6  O   UNL     1       8.151  -0.473  22.766  0.00  0.00    -0.340 OA
ENDROOT
BRANCH   2   7
ATOM      7  O   UNL     1       7.816  -3.416  22.220  0.00  0.00    -0.386 OA
ATOM      8  H   UNL     1       8.268  -4.265  22.396  0.00  0.00    +0.210 HD
ENDBRANCH   2   7
BRANCH   3   9
ATOM      9  O   UNL     1       8.465  -2.631  25.771  0.00  0.00    -0.386 OA
ATOM     10  H   UNL     1       8.522  -1.677  25.990  0.00  0.00    +0.210 HD
ENDBRANCH   3   9
BRANCH   4  11
ATOM     11  O   UNL     1      10.466  -2.291  22.743  0.00  0.00    -0.384 OA
ATOM     12  H   UNL     1      11.202  -1.677  22.540  0.00  0.00    +0.210 HD
ENDBRANCH   4  11
BRANCH   1  13
ATOM     13  C   UNL     1       6.196  -0.700  24.265  0.00  0.00    +0.190 C 
BRANCH  13  14
ATOM     14  O   UNL     1       5.829   0.648  23.972  0.00  0.00    -0.392 OA
ATOM     15  H   UNL     1       5.418   0.999  24.785  0.00  0.00    +0.210 HD
ENDBRANCH  13  14
ENDBRANCH   1  13
BRANCH   5  16
ATOM     16  O   UNL     1      10.245   0.395  23.058  0.00  0.00    -0.254 OA
BRANCH  16  17
ATOM     17  P   UNL     1       9.899   1.929  22.805  0.00  0.00    +0.475 P 
ATOM     18  O   UNL     1      10.876   2.968  23.230  0.00  0.00    -0.227 OA
BRANCH  17  19
ATOM     19  O   UNL     1       8.490   2.138  23.532  0.00  0.00    -0.303 OA
ATOM     20  H   UNL     1       7.908   2.674  22.957  0.00  0.00    +0.222 HD
ENDBRANCH  17  19
BRANCH  17  21
ATOM     21  O   UNL     1       9.423   2.020  21.290  0.00  0.00    -0.303 OA
ATOM     22  H   UNL     1       8.570   1.574  21.175  0.00  0.00    +0.222 HD
ENDBRANCH  17  21
ENDBRANCH  16  17
ENDBRANCH   5  16
TORSDOF 9
ENDMDL
MODEL 9
REMARK VINA RESULT:      -4.6      5.095      7.005
REMARK  Name = 
REMARK  9 active torsions:
REMARK  status: ('A' for Active; 'I' for Inactive)
REMARK    1  A    between atoms: O_1  and  C_2
REMARK    2  A    between atoms: C_2  and  C_3
REMARK    3  A    between atoms: C_6  and  O_8
REMARK    4  A    between atoms: O_8  and  P_9
REMARK    5  A    between atoms: P_9  and  O_10
REMARK    6  A    between atoms: P_9  and  O_11
REMARK    7  A    between atoms: C_13  and  O_15
REMARK    8  A    between atoms: C_16  and  O_18
REMARK    9  A    between atoms: C_19  and  O_21
REMARK                            x       y       z     vdW  Elec       q    Type
REMARK                         _______ _______ _______ _____ _____    ______ ____
ROOT
ATOM      1  C   UNL     1       9.285  -1.622  23.759  0.00  0.00    +0.178 C 
ATOM      2  C   UNL     1       8.001  -1.740  24.603  0.00  0.00    +0.177 C 
ATOM      3  C   UNL     1       7.136  -0.461  24.574  0.00  0.00    +0.179 C 
ATOM      4  C   UNL     1       7.990   0.797  24.766  0.00  0.00    +0.202 C 
ATOM      5  C   UNL     1       9.240   0.794  23.850  0.00  0.00    +0.293 C 
ATOM      6  O   UNL     1       9.993  -0.399  24.021  0.00  0.00    -0.340 OA
ENDROOT
BRANCH   2   7
ATOM      7  O   UNL     1       8.393  -2.068  25.951  0.00  0.00    -0.386 OA
ATOM      8  H   UNL     1       8.842  -2.937  25.945  0.00  0.00    +0.210 HD
ENDBRANCH   2   7
BRANCH   3   9
ATOM      9  O   UNL     1       6.334  -0.367  23.399  0.00  0.00    -0.386 OA
ATOM     10  H   UNL     1       5.807   0.460  23.446  0.00  0.00    +0.210 HD
ENDBRANCH   3   9
BRANCH   4  11
ATOM     11  O   UNL     1       8.391   0.851  26.151  0.00  0.00    -0.384 OA
ATOM     12  H   UNL     1       8.822   1.723  26.271  0.00  0.00    +0.210 HD
ENDBRANCH   4  11
BRANCH   1  13
ATOM     13  C   UNL     1       9.084  -1.872  22.253  0.00  0.00    +0.190 C 
BRANCH  13  14
ATOM     14  O   UNL     1      10.235  -1.535  21.479  0.00  0.00    -0.392 OA
ATOM     15  H   UNL     1      10.724  -2.368  21.345  0.00  0.00    +0.210 HD
ENDBRANCH  13  14
ENDBRANCH   1  13
BRANCH   5  16
ATOM     16  O   UNL     1      10.064   1.871  24.273  0.00  0.00    -0.254 OA
BRANCH  16  17
ATOM     17  P   UNL     1      10.409   2.973  23.177  0.00  0.00    +0.475 P 
ATOM     18  O   UNL     1      11.612   3.830  23.368  0.00  0.00    -0.227 OA
BRANCH  17  19
ATOM     19  O   UNL     1       9.083   3.863  23.083  0.00  0.00    -0.303 OA
ATOM     20  H   UNL     1       8.648   3.702  22.223  0.00  0.00    +0.222 HD
ENDBRANCH  17  19
BRANCH  17  21
ATOM     21  O   UNL     1      10.319   2.230  21.773  0.00  0.00    -0.303 OA
ATOM     22  H   UNL     1      10.374   1.270  21.893  0.00  0.00    +0.222 HD
ENDBRANCH  17  21
ENDBRANCH  16  17
ENDBRANCH   5  16
TORSDOF 9
ENDMDL
