MODEL 1
REMARK VINA RESULT:      -3.9      0.000      0.000
REMARK  Name = 
REMARK  7 active torsions:
REMARK  status: ('A' for Active; 'I' for Inactive)
REMARK    1  A    between atoms: CD1_1  and  CG_2
REMARK    2  A    between atoms: CG_2  and  CD2_3
REMARK    3  A    between atoms: CG_2  and  CB_4
REMARK    4  A    between atoms: CB_4  and  CA_5
REMARK    5  A    between atoms: CA_5  and  N_7
REMARK    6  A    between atoms: CA_5  and  C_8
REMARK    7  A    between atoms: C_8  and  O_9
REMARK                            x       y       z     vdW  Elec       q    Type
REMARK                         _______ _______ _______ _____ _____    ______ ____
ROOT
ATOM      1  CA  LEU A   1       9.532  -0.639  23.878  0.00  0.00    +0.161 C 
ENDROOT
BRANCH   1   2
ATOM      2  N   LEU A   1       8.914  -1.033  25.182  0.00  0.00    -0.318 NA
ATOM      3  H1  LEU A   1       8.726  -0.176  25.713  0.00  0.00    +0.119 HD
ATOM      4  H2  LEU A   1       7.981  -1.413  24.983  0.00  0.00    +0.119 HD
ENDBRANCH   1   2
BRANCH   1   5
ATOM      5  C   LEU A   1      10.097  -1.910  23.228  0.00  0.00    +0.322 C 
ATOM      6  OXT LEU A   1      10.249  -2.985  23.786  0.00  0.00    -0.249 OA
BRANCH   5   7
ATOM      7  O   LEU A   1      10.408  -1.695  21.920  0.00  0.00    -0.480 OA
ATOM      8  H   LEU A   1      10.132  -2.514  21.438  0.00  0.00    +0.295 HD
ENDBRANCH   5   7
ENDBRANCH   1   5
BRANCH   1   9
ATOM      9  CB  LEU A   1      10.644   0.386  24.144  0.00  0.00    +0.033 C 
BRANCH   9  11
ATOM     10  CD1 LEU A   1      10.005   1.766  22.089  0.00  0.00    +0.007 C 
ATOM     11  CG  LEU A   1      10.398   1.796  23.566  0.00  0.00    -0.015 C 
ATOM     12  CD2 LEU A   1       9.312   2.508  24.378  0.00  0.00    +0.007 C 
ENDBRANCH   9  11
ENDBRANCH   1   9
TORSDOF 5
ENDMDL
MODEL 2
REMARK VINA RESULT:      -3.9      4.126      5.383
REMARK  Name = 
REMARK  7 active torsions:
REMARK  status: ('A' for Active; 'I' for Inactive)
REMARK    1  A    between atoms: CD1_1  and  CG_2
REMARK    2  A    between atoms: CG_2  and  CD2_3
REMARK    3  A    between atoms: CG_2  and  CB_4
REMARK    4  A    between atoms: CB_4  and  CA_5
REMARK    5  A    between atoms: CA_5  and  N_7
REMARK    6  A    between atoms: CA_5  and  C_8
REMARK    7  A    between atoms: C_8  and  O_9
REMARK                            x       y       z     vdW  Elec       q    Type
REMARK                         _______ _______ _______ _____ _____    ______ ____
ROOT
ATOM      1  CA  LEU A   1       8.974  -4.611  26.398  0.00  0.00    +0.161 C 
ENDROOT
BRANCH   1   2
ATOM      2  N   LEU A   1       9.938  -5.471  25.644  0.00  0.00    -0.318 NA
ATOM      3  H1  LEU A   1      10.884  -5.131  25.842  0.00  0.00    +0.119 HD
ATOM      4  H2  LEU A   1       9.916  -6.407  26.066  0.00  0.00    +0.119 HD
ENDBRANCH   1   2
BRANCH   1   5
ATOM      5  C   LEU A   1       7.682  -5.419  26.594  0.00  0.00    +0.322 C 
ATOM      6  OXT LEU A   1       6.777  -5.517  25.781  0.00  0.00    -0.249 OA
BRANCH   5   7
ATOM      7  O   LEU A   1       7.670  -6.038  27.807  0.00  0.00    -0.480 OA
ATOM      8  H   LEU A   1       7.289  -6.937  27.648  0.00  0.00    +0.295 HD
ENDBRANCH   5   7
ENDBRANCH   1   5
BRANCH   1   9
ATOM      9  CB  LEU A   1       8.707  -3.334  25.588  0.00  0.00    +0.033 C 
BRANCH   9  11
ATOM     10  CD1 LEU A   1       7.901  -3.482  23.166  0.00  0.00    +0.007 C 
ATOM     11  CG  LEU A   1       9.110  -3.398  24.099  0.00  0.00    -0.015 C 
ATOM     12  CD2 LEU A   1       9.959  -2.176  23.738  0.00  0.00    +0.007 C 
ENDBRANCH   9  11
ENDBRANCH   1   9
TORSDOF 5
ENDMDL
MODEL 3
REMARK VINA RESULT:      -3.8      5.365      6.245
REMARK  Name = 
REMARK  7 active torsions:
REMARK  status: ('A' for Active; 'I' for Inactive)
REMARK    1  A    between atoms: CD1_1  and  CG_2
REMARK    2  A    between atoms: CG_2  and  CD2_3
REMARK    3  A    between atoms: CG_2  and  CB_4
REMARK    4  A    between atoms: CB_4  and  CA_5
REMARK    5  A    between atoms: CA_5  and  N_7
REMARK    6  A    between atoms: CA_5  and  C_8
REMARK    7  A    between atoms: C_8  and  O_9
REMARK                            x       y       z     vdW  Elec       q    Type
REMARK                         _______ _______ _______ _____ _____    ______ ____
ROOT
ATOM      1  CA  LEU A   1       9.131  -4.539  25.310  0.00  0.00    +0.161 C 
ENDROOT
BRANCH   1   2
ATOM      2  N   LEU A   1       9.829  -5.852  25.146  0.00  0.00    -0.318 NA
ATOM      3  H1  LEU A   1       9.560  -6.450  25.933  0.00  0.00    +0.119 HD
ATOM      4  H2  LEU A   1       9.425  -6.320  24.327  0.00  0.00    +0.119 HD
ENDBRANCH   1   2
BRANCH   1   5
ATOM      5  C   LEU A   1       8.169  -4.667  26.500  0.00  0.00    +0.322 C 
ATOM      6  OXT LEU A   1       7.447  -3.780  26.928  0.00  0.00    -0.249 OA
BRANCH   5   7
ATOM      7  O   LEU A   1       8.208  -5.921  27.029  0.00  0.00    -0.480 OA
ATOM      8  H   LEU A   1       7.756  -6.507  26.372  0.00  0.00    +0.295 HD
ENDBRANCH   5   7
ENDBRANCH   1   5
BRANCH   1   9
ATOM      9  CB  LEU A   1       8.368  -4.217  24.016  0.00  0.00    +0.033 C 
BRANCH   9  11
ATOM     10  CD1 LEU A   1       5.838  -4.421  23.712  0.00  0.00    +0.007 C 
ATOM     11  CG  LEU A   1       7.182  -5.151  23.696  0.00  0.00    -0.015 C 
ATOM     12  CD2 LEU A   1       7.396  -5.814  22.332  0.00  0.00    +0.007 C 
ENDBRANCH   9  11
ENDBRANCH   1   9
TORSDOF 5
ENDMDL
MODEL 4
REMARK VINA RESULT:      -3.7      1.884      2.157
REMARK  Name = 
REMARK  7 active torsions:
REMARK  status: ('A' for Active; 'I' for Inactive)
REMARK    1  A    between atoms: CD1_1  and  CG_2
REMARK    2  A    between atoms: CG_2  and  CD2_3
REMARK    3  A    between atoms: CG_2  and  CB_4
REMARK    4  A    between atoms: CB_4  and  CA_5
REMARK    5  A    between atoms: CA_5  and  N_7
REMARK    6  A    between atoms: CA_5  and  C_8
REMARK    7  A    between atoms: C_8  and  O_9
REMARK                            x       y       z     vdW  Elec       q    Type
REMARK                         _______ _______ _______ _____ _____    ______ ____
ROOT
ATOM      1  CA  LEU A   1      10.146  -1.253  23.012  0.00  0.00    +0.161 C 
ENDROOT
BRANCH   1   2
ATOM      2  N   LEU A   1      10.152  -1.533  21.543  0.00  0.00    -0.318 NA
ATOM      3  H1  LEU A   1      10.617  -0.748  21.075  0.00  0.00    +0.119 HD
ATOM      4  H2  LEU A   1      10.779  -2.329  21.379  0.00  0.00    +0.119 HD
ENDBRANCH   1   2
BRANCH   1   5
ATOM      5  C   LEU A   1       9.345  -2.371  23.697  0.00  0.00    +0.322 C 
ATOM      6  OXT LEU A   1       8.139  -2.364  23.887  0.00  0.00    -0.249 OA
BRANCH   5   7
ATOM      7  O   LEU A   1      10.156  -3.400  24.066  0.00  0.00    -0.480 OA
ATOM      8  H   LEU A   1       9.728  -4.221  23.715  0.00  0.00    +0.295 HD
ENDBRANCH   5   7
ENDBRANCH   1   5
BRANCH   1   9
ATOM      9  CB  LEU A   1       9.499   0.118  23.255  0.00  0.00    +0.033 C 
BRANCH   9  11
ATOM     10  CD1 LEU A   1       8.434   1.589  21.456  0.00  0.00    +0.007 C 
ATOM     11  CG  LEU A   1       9.731   1.167  22.147  0.00  0.00    -0.015 C 
ATOM     12  CD2 LEU A   1      10.430   2.397  22.733  0.00  0.00    +0.007 C 
ENDBRANCH   9  11
ENDBRANCH   1   9
TORSDOF 5
ENDMDL
MODEL 5
REMARK VINA RESULT:      -3.7      5.053      5.856
REMARK  Name = 
REMARK  7 active torsions:
REMARK  status: ('A' for Active; 'I' for Inactive)
REMARK    1  A    between atoms: CD1_1  and  CG_2
REMARK    2  A    between atoms: CG_2  and  CD2_3
REMARK    3  A    between atoms: CG_2  and  CB_4
REMARK    4  A    between atoms: CB_4  and  CA_5
REMARK    5  A    between atoms: CA_5  and  N_7
REMARK    6  A    between atoms: CA_5  and  C_8
REMARK    7  A    between atoms: C_8  and  O_9
REMARK                            x       y       z     vdW  Elec       q    Type
REMARK                         _______ _______ _______ _____ _____    ______ ____
ROOT
ATOM      1  CA  LEU A   1       7.988  -5.228  25.747  0.00  0.00    +0.161 C 
ENDROOT
BRANCH   1   2
ATOM      2  N   LEU A   1       8.157  -5.640  27.175  0.00  0.00    -0.318 NA
ATOM      3  H1  LEU A   1       7.963  -4.823  27.763  0.00  0.00    +0.119 HD
ATOM      4  H2  LEU A   1       7.401  -6.296  27.402  0.00  0.00    +0.119 HD
ENDBRANCH   1   2
BRANCH   1   5
ATOM      5  C   LEU A   1       9.377  -4.869  25.198  0.00  0.00    +0.322 C 
ATOM      6  OXT LEU A   1       9.614  -3.983  24.393  0.00  0.00    -0.249 OA
BRANCH   5   7
ATOM      7  O   LEU A   1      10.339  -5.669  25.736  0.00  0.00    -0.480 OA
ATOM      8  H   LEU A   1      11.172  -5.457  25.246  0.00  0.00    +0.295 HD
ENDBRANCH   5   7
ENDBRANCH   1   5
BRANCH   1   9
ATOM      9  CB  LEU A   1       7.042  -4.021  25.686  0.00  0.00    +0.033 C 
BRANCH   9  11
ATOM     10  CD1 LEU A   1       6.230  -3.283  23.376  0.00  0.00    +0.007 C 
ATOM     11  CG  LEU A   1       5.923  -4.108  24.627  0.00  0.00    -0.015 C 
ATOM     12  CD2 LEU A   1       5.688  -5.571  24.238  0.00  0.00    +0.007 C 
ENDBRANCH   9  11
ENDBRANCH   1   9
TORSDOF 5
ENDMDL
MODEL 6
REMARK VINA RESULT:      -3.6      2.173      2.592
REMARK  Name = 
REMARK  7 active torsions:
REMARK  status: ('A' for Active; 'I' for Inactive)
REMARK    1  A    between atoms: CD1_1  and  CG_2
REMARK    2  A    between atoms: CG_2  and  CD2_3
REMARK    3  A    between atoms: CG_2  and  CB_4
REMARK    4  A    between atoms: CB_4  and  CA_5
REMARK    5  A    between atoms: CA_5  and  N_7
REMARK    6  A    between atoms: CA_5  and  C_8
REMARK    7  A    between atoms: C_8  and  O_9
REMARK                            x       y       z     vdW  Elec       q    Type
REMARK                         _______ _______ _______ _____ _____    ______ ____
ROOT
ATOM      1  CA  LEU A   1       9.802   0.766  21.744  0.00  0.00    +0.161 C 
ENDROOT
BRANCH   1   2
ATOM      2  N   LEU A   1       8.682   1.518  21.098  0.00  0.00    -0.318 NA
ATOM      3  H1  LEU A   1       9.077   2.079  20.338  0.00  0.00    +0.119 HD
ATOM      4  H2  LEU A   1       8.083   0.835  20.619  0.00  0.00    +0.119 HD
ENDBRANCH   1   2
BRANCH   1   5
ATOM      5  C   LEU A   1       9.318  -0.671  21.989  0.00  0.00    +0.322 C 
ATOM      6  OXT LEU A   1       8.265  -0.984  22.522  0.00  0.00    -0.249 OA
BRANCH   5   7
ATOM      7  O   LEU A   1      10.219  -1.579  21.522  0.00  0.00    -0.480 OA
ATOM      8  H   LEU A   1      11.055  -1.413  22.023  0.00  0.00    +0.295 HD
ENDBRANCH   5   7
ENDBRANCH   1   5
BRANCH   1   9
ATOM      9  CB  LEU A   1      10.169   1.457  23.065  0.00  0.00    +0.033 C 
BRANCH   9  11
ATOM     10  CD1 LEU A   1       8.493   1.952  24.932  0.00  0.00    +0.007 C 
ATOM     11  CG  LEU A   1       9.110   2.435  23.618  0.00  0.00    -0.015 C 
ATOM     12  CD2 LEU A   1       9.734   3.819  23.816  0.00  0.00    +0.007 C 
ENDBRANCH   9  11
ENDBRANCH   1   9
TORSDOF 5
ENDMDL
MODEL 7
REMARK VINA RESULT:      -3.6      2.626      4.061
REMARK  Name = 
REMARK  7 active torsions:
REMARK  status: ('A' for Active; 'I' for Inactive)
REMARK    1  A    between atoms: CD1_1  and  CG_2
REMARK    2  A    between atoms: CG_2  and  CD2_3
REMARK    3  A    between atoms: CG_2  and  CB_4
REMARK    4  A    between atoms: CB_4  and  CA_5
REMARK    5  A    between atoms: CA_5  and  N_7
REMARK    6  A    between atoms: CA_5  and  C_8
REMARK    7  A    between atoms: C_8  and  O_9
REMARK                            x       y       z     vdW  Elec       q    Type
REMARK                         _______ _______ _______ _____ _____    ______ ____
ROOT
ATOM      1  CA  LEU A   1       9.198  -0.302  21.747  0.00  0.00    +0.161 C 
ENDROOT
BRANCH   1   2
ATOM      2  N   LEU A   1      10.190  -1.390  21.483  0.00  0.00    -0.318 NA
ATOM      3  H1  LEU A   1       9.790  -2.269  21.824  0.00  0.00    +0.119 HD
ATOM      4  H2  LEU A   1      10.248  -1.519  20.467  0.00  0.00    +0.119 HD
ENDBRANCH   1   2
BRANCH   1   5
ATOM      5  C   LEU A   1       9.967   0.904  22.310  0.00  0.00    +0.322 C 
ATOM      6  OXT LEU A   1      10.557   0.932  23.378  0.00  0.00    -0.249 OA
BRANCH   5   7
ATOM      7  O   LEU A   1       9.921   1.959  21.452  0.00  0.00    -0.480 OA
ATOM      8  H   LEU A   1       8.976   2.035  21.167  0.00  0.00    +0.295 HD
ENDBRANCH   5   7
ENDBRANCH   1   5
BRANCH   1   9
ATOM      9  CB  LEU A   1       8.157  -0.811  22.755  0.00  0.00    +0.033 C 
BRANCH   9  11
ATOM     10  CD1 LEU A   1       8.672  -1.971  24.975  0.00  0.00    +0.007 C 
ATOM     11  CG  LEU A   1       8.512  -2.136  23.462  0.00  0.00    -0.015 C 
ATOM     12  CD2 LEU A   1       7.439  -3.187  23.166  0.00  0.00    +0.007 C 
ENDBRANCH   9  11
ENDBRANCH   1   9
TORSDOF 5
ENDMDL
MODEL 8
REMARK VINA RESULT:      -3.6      2.936      3.949
REMARK  Name = 
REMARK  7 active torsions:
REMARK  status: ('A' for Active; 'I' for Inactive)
REMARK    1  A    between atoms: CD1_1  and  CG_2
REMARK    2  A    between atoms: CG_2  and  CD2_3
REMARK    3  A    between atoms: CG_2  and  CB_4
REMARK    4  A    between atoms: CB_4  and  CA_5
REMARK    5  A    between atoms: CA_5  and  N_7
REMARK    6  A    between atoms: CA_5  and  C_8
REMARK    7  A    between atoms: C_8  and  O_9
REMARK                            x       y       z     vdW  Elec       q    Type
REMARK                         _______ _______ _______ _____ _____    ______ ____
ROOT
ATOM      1  CA  LEU A   1       8.543   0.379  21.911  0.00  0.00    +0.161 C 
ENDROOT
BRANCH   1   2
ATOM      2  N   LEU A   1       9.697  -0.343  21.292  0.00  0.00    -0.318 NA
ATOM      3  H1  LEU A   1      10.403  -0.489  22.020  0.00  0.00    +0.119 HD
ATOM      4  H2  LEU A   1       9.382  -1.291  21.055  0.00  0.00    +0.119 HD
ENDBRANCH   1   2
BRANCH   1   5
ATOM      5  C   LEU A   1       8.817   1.886  21.792  0.00  0.00    +0.322 C 
ATOM      6  OXT LEU A   1       7.979   2.768  21.887  0.00  0.00    -0.249 OA
BRANCH   5   7
ATOM      7  O   LEU A   1      10.138   2.128  21.572  0.00  0.00    -0.480 OA
ATOM      8  H   LEU A   1      10.366   1.648  20.737  0.00  0.00    +0.295 HD
ENDBRANCH   5   7
ENDBRANCH   1   5
BRANCH   1   9
ATOM      9  CB  LEU A   1       8.422  -0.045  23.382  0.00  0.00    +0.033 C 
BRANCH   9  11
ATOM     10  CD1 LEU A   1      10.465   0.217  24.897  0.00  0.00    +0.007 C 
ATOM     11  CG  LEU A   1       9.673  -0.720  23.982  0.00  0.00    -0.015 C 
ATOM     12  CD2 LEU A   1       9.265  -1.977  24.756  0.00  0.00    +0.007 C 
ENDBRANCH   9  11
ENDBRANCH   1   9
TORSDOF 5
ENDMDL
MODEL 9
REMARK VINA RESULT:      -3.6      2.830      4.110
REMARK  Name = 
REMARK  7 active torsions:
REMARK  status: ('A' for Active; 'I' for Inactive)
REMARK    1  A    between atoms: CD1_1  and  CG_2
REMARK    2  A    between atoms: CG_2  and  CD2_3
REMARK    3  A    between atoms: CG_2  and  CB_4
REMARK    4  A    between atoms: CB_4  and  CA_5
REMARK    5  A    between atoms: CA_5  and  N_7
REMARK    6  A    between atoms: CA_5  and  C_8
REMARK    7  A    between atoms: C_8  and  O_9
REMARK                            x       y       z     vdW  Elec       q    Type
REMARK                         _______ _______ _______ _____ _____    ______ ____
ROOT
ATOM      1  CA  LEU A   1       8.856   0.908  22.269  0.00  0.00    +0.161 C 
ENDROOT
BRANCH   1   2
ATOM      2  N   LEU A   1       8.289   1.573  21.055  0.00  0.00    -0.318 NA
ATOM      3  H1  LEU A   1       7.975   0.839  20.412  0.00  0.00    +0.119 HD
ATOM      4  H2  LEU A   1       7.423   2.047  21.335  0.00  0.00    +0.119 HD
ENDBRANCH   1   2
BRANCH   1   5
ATOM      5  C   LEU A   1      10.110   1.691  22.686  0.00  0.00    +0.322 C 
ATOM      6  OXT LEU A   1      10.667   1.611  23.770  0.00  0.00    -0.249 OA
BRANCH   5   7
ATOM      7  O   LEU A   1      10.544   2.496  21.678  0.00  0.00    -0.480 OA
ATOM      8  H   LEU A   1      10.681   1.902  20.898  0.00  0.00    +0.295 HD
ENDBRANCH   5   7
ENDBRANCH   1   5
BRANCH   1   9
ATOM      9  CB  LEU A   1       9.204  -0.547  21.922  0.00  0.00    +0.033 C 
BRANCH   9  11
ATOM     10  CD1 LEU A   1       7.909  -2.711  22.343  0.00  0.00    +0.007 C 
ATOM     11  CG  LEU A   1       8.761  -1.600  22.960  0.00  0.00    -0.015 C 
ATOM     12  CD2 LEU A   1       9.990  -2.207  23.642  0.00  0.00    +0.007 C 
ENDBRANCH   9  11
ENDBRANCH   1   9
TORSDOF 5
ENDMDL
