MODEL 1
REMARK VINA RESULT:      -8.0      0.000      0.000
REMARK  Name = 
REMARK  6 active torsions:
REMARK  status: ('A' for Active; 'I' for Inactive)
REMARK    1  A    between atoms: C_5  and  C_6
REMARK    2  A    between atoms: C_7  and  S_8
REMARK    3  A    between atoms: S_8  and  N_11
REMARK    4  A    between atoms: N_14  and  C_15
REMARK    5  A    between atoms: C_15  and  C_16
REMARK    6  A    between atoms: N_19  and  C_22
REMARK                            x       y       z     vdW  Elec       q    Type
REMARK                         _______ _______ _______ _____ _____    ______ ____
ROOT
ATOM      1  N   UNL     1       8.906  -3.149  25.115  0.00  0.00    -0.167 NA
ATOM      2  C   UNL     1       8.086  -2.163  25.877  0.00  0.00    +0.205 C 
ATOM      3  C   UNL     1       7.231  -1.146  25.129  0.00  0.00    +0.231 C 
ATOM      4  O   UNL     1       6.652  -0.246  25.743  0.00  0.00    -0.274 OA
ATOM      5  N   UNL     1       7.236  -1.202  23.736  0.00  0.00    -0.299 N 
ATOM      6  C   UNL     1       7.697  -2.429  23.098  0.00  0.00    +0.125 C 
ATOM      7  C   UNL     1       9.036  -2.858  23.670  0.00  0.00    +0.129 C 
ENDROOT
BRANCH   1   8
ATOM      8  S   UNL     1       8.708  -4.780  25.557  0.00  0.00    +0.055 S 
ATOM      9  O   UNL     1       9.292  -5.563  24.495  0.00  0.00    -0.153 OA
ATOM     10  O   UNL     1       9.193  -4.912  26.915  0.00  0.00    -0.153 OA
BRANCH   8  12
ATOM     11  C   UNL     1       6.384  -5.383  24.424  0.00  0.00    +0.028 C 
ATOM     12  C   UNL     1       6.988  -5.013  25.566  0.00  0.00    +0.153 C 
BRANCH  11  17
ATOM     13 CL   UNL     1       0.685  -6.946  23.457  0.00  0.00    -0.084 Cl
ATOM     14  C   UNL     1       2.303  -6.473  23.799  0.00  0.00    +0.041 A 
ATOM     15  C   UNL     1       3.143  -7.338  24.494  0.00  0.00    +0.020 A 
ATOM     16  C   UNL     1       4.470  -6.976  24.738  0.00  0.00    +0.009 A 
ATOM     17  C   UNL     1       4.966  -5.740  24.296  0.00  0.00    -0.024 A 
ATOM     18  C   UNL     1       4.105  -4.876  23.604  0.00  0.00    +0.009 A 
ATOM     19  C   UNL     1       2.776  -5.239  23.363  0.00  0.00    +0.020 A 
ENDBRANCH  11  17
ENDBRANCH   8  12
ENDBRANCH   1   8
BRANCH   5  20
ATOM     20  C   UNL     1       7.351   0.069  23.022  0.00  0.00    +0.111 C 
BRANCH  20  21
ATOM     21  C   UNL     1       8.714   0.342  22.363  0.00  0.00    +0.009 C 
ATOM     22  C   UNL     1       9.820   0.459  23.433  0.00  0.00    +0.024 C 
ATOM     23  C   UNL     1       9.693   1.733  24.274  0.00  0.00    +0.105 C 
ATOM     24  N   UNL     1       9.599   2.895  23.387  0.00  0.00    -0.330 N 
ATOM     25  C   UNL     1       8.528   2.872  22.384  0.00  0.00    +0.105 C 
ATOM     26  C   UNL     1       8.700   1.623  21.519  0.00  0.00    +0.024 C 
BRANCH  24  27
ATOM     27  C   UNL     1      10.348   4.039  23.599  0.00  0.00    +0.033 A 
ATOM     28  C   UNL     1       9.787   5.189  24.162  0.00  0.00    +0.043 A 
ATOM     29  C   UNL     1      10.591   6.290  24.432  0.00  0.00    +0.112 A 
ATOM     30  N   UNL     1      11.911   6.340  24.179  0.00  0.00    -0.263 NA
ATOM     31  C   UNL     1      12.445   5.236  23.623  0.00  0.00    +0.112 A 
ATOM     32  C   UNL     1      11.718   4.094  23.318  0.00  0.00    +0.043 A 
ENDBRANCH  24  27
ENDBRANCH  20  21
ENDBRANCH   5  20
TORSDOF 6
ENDMDL
MODEL 2
REMARK VINA RESULT:      -7.8      1.556      1.911
REMARK  Name = 
REMARK  6 active torsions:
REMARK  status: ('A' for Active; 'I' for Inactive)
REMARK    1  A    between atoms: C_5  and  C_6
REMARK    2  A    between atoms: C_7  and  S_8
REMARK    3  A    between atoms: S_8  and  N_11
REMARK    4  A    between atoms: N_14  and  C_15
REMARK    5  A    between atoms: C_15  and  C_16
REMARK    6  A    between atoms: N_19  and  C_22
REMARK                            x       y       z     vdW  Elec       q    Type
REMARK                         _______ _______ _______ _____ _____    ______ ____
ROOT
ATOM      1  N   UNL     1       7.735  -4.408  25.942  0.00  0.00    -0.167 NA
ATOM      2  C   UNL     1       8.509  -3.273  26.521  0.00  0.00    +0.205 C 
ATOM      3  C   UNL     1       8.591  -1.947  25.773  0.00  0.00    +0.231 C 
ATOM      4  O   UNL     1       9.332  -1.047  26.178  0.00  0.00    -0.274 OA
ATOM      5  N   UNL     1       7.901  -1.847  24.566  0.00  0.00    -0.299 N 
ATOM      6  C   UNL     1       6.845  -2.813  24.294  0.00  0.00    +0.125 C 
ATOM      7  C   UNL     1       7.343  -4.229  24.525  0.00  0.00    +0.129 C 
ENDROOT
BRANCH   1   8
ATOM      8  S   UNL     1       6.588  -5.129  26.972  0.00  0.00    +0.055 S 
ATOM      9  O   UNL     1       7.318  -6.045  27.814  0.00  0.00    -0.153 OA
ATOM     10  O   UNL     1       5.812  -4.056  27.557  0.00  0.00    -0.153 OA
BRANCH   8  12
ATOM     11  C   UNL     1       4.250  -5.722  25.862  0.00  0.00    +0.028 C 
ATOM     12  C   UNL     1       5.558  -6.027  25.900  0.00  0.00    +0.153 C 
BRANCH  11  17
ATOM     13 CL   UNL     1       0.622  -8.095  21.733  0.00  0.00    -0.084 Cl
ATOM     14  C   UNL     1       1.607  -7.403  22.960  0.00  0.00    +0.041 A 
ATOM     15  C   UNL     1       2.082  -8.201  23.996  0.00  0.00    +0.020 A 
ATOM     16  C   UNL     1       2.917  -7.653  24.973  0.00  0.00    +0.009 A 
ATOM     17  C   UNL     1       3.276  -6.297  24.927  0.00  0.00    -0.024 A 
ATOM     18  C   UNL     1       2.784  -5.505  23.881  0.00  0.00    +0.009 A 
ATOM     19  C   UNL     1       1.946  -6.054  22.904  0.00  0.00    +0.020 A 
ENDBRANCH  11  17
ENDBRANCH   8  12
ENDBRANCH   1   8
BRANCH   5  20
ATOM     20  C   UNL     1       8.606  -1.216  23.451  0.00  0.00    +0.111 C 
BRANCH  20  21
ATOM     21  C   UNL     1       7.928   0.028  22.852  0.00  0.00    +0.009 C 
ATOM     22  C   UNL     1       8.833   0.678  21.783  0.00  0.00    +0.024 C 
ATOM     23  C   UNL     1      10.075   1.340  22.388  0.00  0.00    +0.105 C 
ATOM     24  N   UNL     1       9.666   2.255  23.458  0.00  0.00    -0.330 N 
ATOM     25  C   UNL     1       8.853   1.684  24.536  0.00  0.00    +0.105 C 
ATOM     26  C   UNL     1       7.592   1.074  23.922  0.00  0.00    +0.024 C 
BRANCH  24  27
ATOM     27  C   UNL     1      10.174   3.538  23.555  0.00  0.00    +0.033 A 
ATOM     28  C   UNL     1       9.386   4.608  23.990  0.00  0.00    +0.043 A 
ATOM     29  C   UNL     1       9.953   5.867  24.150  0.00  0.00    +0.112 A 
ATOM     30  N   UNL     1      11.246   6.147  23.903  0.00  0.00    -0.263 NA
ATOM     31  C   UNL     1      11.998   5.118  23.470  0.00  0.00    +0.112 A 
ATOM     32  C   UNL     1      11.515   3.831  23.280  0.00  0.00    +0.043 A 
ENDBRANCH  24  27
ENDBRANCH  20  21
ENDBRANCH   5  20
TORSDOF 6
ENDMDL
MODEL 3
REMARK VINA RESULT:      -7.6      1.799      1.994
REMARK  Name = 
REMARK  6 active torsions:
REMARK  status: ('A' for Active; 'I' for Inactive)
REMARK    1  A    between atoms: C_5  and  C_6
REMARK    2  A    between atoms: C_7  and  S_8
REMARK    3  A    between atoms: S_8  and  N_11
REMARK    4  A    between atoms: N_14  and  C_15
REMARK    5  A    between atoms: C_15  and  C_16
REMARK    6  A    between atoms: N_19  and  C_22
REMARK                            x       y       z     vdW  Elec       q    Type
REMARK                         _______ _______ _______ _____ _____    ______ ____
ROOT
ATOM      1  N   UNL     1       8.526  -3.280  23.882  0.00  0.00    -0.167 NA
ATOM      2  C   UNL     1       8.411  -2.410  25.088  0.00  0.00    +0.205 C 
ATOM      3  C   UNL     1       7.554  -1.150  25.039  0.00  0.00    +0.231 C 
ATOM      4  O   UNL     1       7.556  -0.358  25.985  0.00  0.00    -0.274 OA
ATOM      5  N   UNL     1       6.883  -0.876  23.849  0.00  0.00    -0.299 N 
ATOM      6  C   UNL     1       6.697  -1.963  22.897  0.00  0.00    +0.125 C 
ATOM      7  C   UNL     1       8.012  -2.673  22.633  0.00  0.00    +0.129 C 
ENDROOT
BRANCH   1   8
ATOM      8  S   UNL     1       8.204  -4.933  24.123  0.00  0.00    +0.055 S 
ATOM      9  O   UNL     1       7.594  -5.411  22.906  0.00  0.00    -0.153 OA
ATOM     10  O   UNL     1       9.426  -5.534  24.615  0.00  0.00    -0.153 OA
BRANCH   8  12
ATOM     11  C   UNL     1       5.924  -5.703  25.245  0.00  0.00    +0.028 C 
ATOM     12  C   UNL     1       7.030  -4.956  25.402  0.00  0.00    +0.153 C 
BRANCH  11  17
ATOM     13 CL   UNL     1       1.637  -7.000  29.219  0.00  0.00    -0.084 Cl
ATOM     14  C   UNL     1       2.878  -6.565  28.111  0.00  0.00    +0.041 A 
ATOM     15  C   UNL     1       4.209  -6.818  28.431  0.00  0.00    +0.020 A 
ATOM     16  C   UNL     1       5.217  -6.505  27.516  0.00  0.00    +0.009 A 
ATOM     17  C   UNL     1       4.904  -5.927  26.277  0.00  0.00    -0.024 A 
ATOM     18  C   UNL     1       3.559  -5.672  25.973  0.00  0.00    +0.009 A 
ATOM     19  C   UNL     1       2.550  -5.984  26.890  0.00  0.00    +0.020 A 
ENDBRANCH  11  17
ENDBRANCH   8  12
ENDBRANCH   1   8
BRANCH   5  20
ATOM     20  C   UNL     1       6.924   0.505  23.368  0.00  0.00    +0.111 C 
BRANCH  20  21
ATOM     21  C   UNL     1       8.053   0.832  22.375  0.00  0.00    +0.009 C 
ATOM     22  C   UNL     1       9.431   0.700  23.059  0.00  0.00    +0.024 C 
ATOM     23  C   UNL     1       9.683   1.803  24.091  0.00  0.00    +0.105 C 
ATOM     24  N   UNL     1       9.447   3.111  23.473  0.00  0.00    -0.330 N 
ATOM     25  C   UNL     1       8.133   3.321  22.858  0.00  0.00    +0.105 C 
ATOM     26  C   UNL     1       7.919   2.245  21.793  0.00  0.00    +0.024 C 
BRANCH  24  27
ATOM     27  C   UNL     1      10.335   4.161  23.626  0.00  0.00    +0.033 A 
ATOM     28  C   UNL     1       9.948   5.370  24.213  0.00  0.00    +0.043 A 
ATOM     29  C   UNL     1      10.889   6.372  24.421  0.00  0.00    +0.112 A 
ATOM     30  N   UNL     1      12.187   6.268  24.082  0.00  0.00    -0.263 NA
ATOM     31  C   UNL     1      12.552   5.110  23.502  0.00  0.00    +0.112 A 
ATOM     32  C   UNL     1      11.681   4.059  23.255  0.00  0.00    +0.043 A 
ENDBRANCH  24  27
ENDBRANCH  20  21
ENDBRANCH   5  20
TORSDOF 6
ENDMDL
MODEL 4
REMARK VINA RESULT:      -7.5      2.206      3.080
REMARK  Name = 
REMARK  6 active torsions:
REMARK  status: ('A' for Active; 'I' for Inactive)
REMARK    1  A    between atoms: C_5  and  C_6
REMARK    2  A    between atoms: C_7  and  S_8
REMARK    3  A    between atoms: S_8  and  N_11
REMARK    4  A    between atoms: N_14  and  C_15
REMARK    5  A    between atoms: C_15  and  C_16
REMARK    6  A    between atoms: N_19  and  C_22
REMARK                            x       y       z     vdW  Elec       q    Type
REMARK                         _______ _______ _______ _____ _____    ______ ____
ROOT
ATOM      1  N   UNL     1       8.022  -3.423  24.766  0.00  0.00    -0.167 NA
ATOM      2  C   UNL     1       8.999  -3.293  23.647  0.00  0.00    +0.205 C 
ATOM      3  C   UNL     1       9.756  -1.985  23.445  0.00  0.00    +0.231 C 
ATOM      4  O   UNL     1      10.467  -1.825  22.449  0.00  0.00    -0.274 OA
ATOM      5  N   UNL     1       9.512  -0.955  24.350  0.00  0.00    -0.299 N 
ATOM      6  C   UNL     1       8.899  -1.293  25.629  0.00  0.00    +0.125 C 
ATOM      7  C   UNL     1       7.660  -2.144  25.420  0.00  0.00    +0.129 C 
ENDROOT
BRANCH   1   8
ATOM      8  S   UNL     1       8.225  -4.774  25.779  0.00  0.00    +0.055 S 
ATOM      9  O   UNL     1       9.199  -5.622  25.136  0.00  0.00    -0.153 OA
ATOM     10  O   UNL     1       8.463  -4.269  27.115  0.00  0.00    -0.153 OA
BRANCH   8  12
ATOM     11  C   UNL     1       5.866  -5.352  24.707  0.00  0.00    +0.028 C 
ATOM     12  C   UNL     1       6.676  -5.558  25.760  0.00  0.00    +0.153 C 
BRANCH  11  17
ATOM     13 CL   UNL     1       0.852  -8.370  23.440  0.00  0.00    -0.084 Cl
ATOM     14  C   UNL     1       2.254  -7.463  23.850  0.00  0.00    +0.041 A 
ATOM     15  C   UNL     1       3.012  -7.828  24.958  0.00  0.00    +0.020 A 
ATOM     16  C   UNL     1       4.176  -7.120  25.271  0.00  0.00    +0.009 A 
ATOM     17  C   UNL     1       4.586  -6.035  24.482  0.00  0.00    -0.024 A 
ATOM     18  C   UNL     1       3.807  -5.675  23.373  0.00  0.00    +0.009 A 
ATOM     19  C   UNL     1       2.641  -6.383  23.061  0.00  0.00    +0.020 A 
ENDBRANCH  11  17
ENDBRANCH   8  12
ENDBRANCH   1   8
BRANCH   5  20
ATOM     20  C   UNL     1       9.329   0.386  23.795  0.00  0.00    +0.111 C 
BRANCH  20  21
ATOM     21  C   UNL     1       8.123   0.560  22.856  0.00  0.00    +0.009 C 
ATOM     22  C   UNL     1       8.465   1.538  21.711  0.00  0.00    +0.024 C 
ATOM     23  C   UNL     1       8.611   2.983  22.196  0.00  0.00    +0.105 C 
ATOM     24  N   UNL     1       7.423   3.361  22.967  0.00  0.00    -0.330 N 
ATOM     25  C   UNL     1       7.079   2.504  24.106  0.00  0.00    +0.105 C 
ATOM     26  C   UNL     1       6.884   1.076  23.598  0.00  0.00    +0.024 C 
BRANCH  24  27
ATOM     27  C   UNL     1       6.769   4.562  22.759  0.00  0.00    +0.033 A 
ATOM     28  C   UNL     1       7.431   5.677  22.234  0.00  0.00    +0.043 A 
ATOM     29  C   UNL     1       6.722   6.841  21.965  0.00  0.00    +0.112 A 
ATOM     30  N   UNL     1       5.402   6.987  22.185  0.00  0.00    -0.263 NA
ATOM     31  C   UNL     1       4.771   5.917  22.704  0.00  0.00    +0.112 A 
ATOM     32  C   UNL     1       5.400   4.717  23.005  0.00  0.00    +0.043 A 
ENDBRANCH  24  27
ENDBRANCH  20  21
ENDBRANCH   5  20
TORSDOF 6
ENDMDL
MODEL 5
REMARK VINA RESULT:      -7.3      3.980     10.218
REMARK  Name = 
REMARK  6 active torsions:
REMARK  status: ('A' for Active; 'I' for Inactive)
REMARK    1  A    between atoms: C_5  and  C_6
REMARK    2  A    between atoms: C_7  and  S_8
REMARK    3  A    between atoms: S_8  and  N_11
REMARK    4  A    between atoms: N_14  and  C_15
REMARK    5  A    between atoms: C_15  and  C_16
REMARK    6  A    between atoms: N_19  and  C_22
REMARK                            x       y       z     vdW  Elec       q    Type
REMARK                         _______ _______ _______ _____ _____    ______ ____
ROOT
ATOM      1  N   UNL     1       8.397  -2.209  22.819  0.00  0.00    -0.167 NA
ATOM      2  C   UNL     1       7.071  -1.580  23.086  0.00  0.00    +0.205 C 
ATOM      3  C   UNL     1       6.331  -1.886  24.384  0.00  0.00    +0.231 C 
ATOM      4  O   UNL     1       5.181  -1.475  24.557  0.00  0.00    -0.274 OA
ATOM      5  N   UNL     1       6.954  -2.739  25.293  0.00  0.00    -0.299 N 
ATOM      6  C   UNL     1       8.389  -2.954  25.164  0.00  0.00    +0.125 C 
ATOM      7  C   UNL     1       8.749  -3.318  23.735  0.00  0.00    +0.129 C 
ENDROOT
BRANCH   1   8
ATOM      8  S   UNL     1       9.651  -1.145  22.382  0.00  0.00    +0.055 S 
ATOM      9  O   UNL     1      10.884  -1.866  22.581  0.00  0.00    -0.153 OA
ATOM     10  O   UNL     1       9.316  -0.611  21.079  0.00  0.00    -0.153 OA
BRANCH   8  12
ATOM     11  C   UNL     1       9.403   1.400  23.097  0.00  0.00    +0.028 C 
ATOM     12  C   UNL     1       9.542   0.141  23.544  0.00  0.00    +0.153 C 
BRANCH  11  17
ATOM     13 CL   UNL     1       8.200   6.369  26.213  0.00  0.00    -0.084 Cl
ATOM     14  C   UNL     1       8.593   4.924  25.368  0.00  0.00    +0.041 A 
ATOM     15  C   UNL     1       7.947   3.736  25.696  0.00  0.00    +0.020 A 
ATOM     16  C   UNL     1       8.233   2.568  24.984  0.00  0.00    +0.009 A 
ATOM     17  C   UNL     1       9.174   2.577  23.944  0.00  0.00    -0.024 A 
ATOM     18  C   UNL     1       9.821   3.780  23.631  0.00  0.00    +0.009 A 
ATOM     19  C   UNL     1       9.536   4.949  24.345  0.00  0.00    +0.020 A 
ENDBRANCH  11  17
ENDBRANCH   8  12
ENDBRANCH   1   8
BRANCH   5  20
ATOM     20  C   UNL     1       6.122  -3.773  25.907  0.00  0.00    +0.111 C 
BRANCH  20  21
ATOM     21  C   UNL     1       6.337  -5.202  25.379  0.00  0.00    +0.009 C 
ATOM     22  C   UNL     1       5.925  -5.299  23.894  0.00  0.00    +0.024 C 
ATOM     23  C   UNL     1       4.410  -5.188  23.696  0.00  0.00    +0.105 C 
ATOM     24  N   UNL     1       3.733  -6.153  24.566  0.00  0.00    -0.330 N 
ATOM     25  C   UNL     1       4.037  -6.074  25.998  0.00  0.00    +0.105 C 
ATOM     26  C   UNL     1       5.546  -6.240  26.184  0.00  0.00    +0.024 C 
BRANCH  24  27
ATOM     27  C   UNL     1       2.718  -6.969  24.099  0.00  0.00    +0.033 A 
ATOM     28  C   UNL     1       2.082  -6.724  22.878  0.00  0.00    +0.043 A 
ATOM     29  C   UNL     1       1.122  -7.611  22.406  0.00  0.00    +0.112 A 
ATOM     30  N   UNL     1       0.737  -8.722  23.060  0.00  0.00    -0.263 NA
ATOM     31  C   UNL     1       1.339  -8.946  24.243  0.00  0.00    +0.112 A 
ATOM     32  C   UNL     1       2.306  -8.114  24.790  0.00  0.00    +0.043 A 
ENDBRANCH  24  27
ENDBRANCH  20  21
ENDBRANCH   5  20
TORSDOF 6
ENDMDL
MODEL 6
REMARK VINA RESULT:      -7.3      2.211      2.706
REMARK  Name = 
REMARK  6 active torsions:
REMARK  status: ('A' for Active; 'I' for Inactive)
REMARK    1  A    between atoms: C_5  and  C_6
REMARK    2  A    between atoms: C_7  and  S_8
REMARK    3  A    between atoms: S_8  and  N_11
REMARK    4  A    between atoms: N_14  and  C_15
REMARK    5  A    between atoms: C_15  and  C_16
REMARK    6  A    between atoms: N_19  and  C_22
REMARK                            x       y       z     vdW  Elec       q    Type
REMARK                         _______ _______ _______ _____ _____    ______ ____
ROOT
ATOM      1  N   UNL     1       7.236  -4.458  22.287  0.00  0.00    -0.167 NA
ATOM      2  C   UNL     1       8.036  -4.482  23.546  0.00  0.00    +0.205 C 
ATOM      3  C   UNL     1       8.017  -3.279  24.483  0.00  0.00    +0.231 C 
ATOM      4  O   UNL     1       8.772  -3.237  25.458  0.00  0.00    -0.274 OA
ATOM      5  N   UNL     1       7.216  -2.197  24.123  0.00  0.00    -0.299 N 
ATOM      6  C   UNL     1       6.162  -2.417  23.141  0.00  0.00    +0.125 C 
ATOM      7  C   UNL     1       6.711  -3.124  21.916  0.00  0.00    +0.129 C 
ENDROOT
BRANCH   1   8
ATOM      8  S   UNL     1       6.207  -5.789  22.033  0.00  0.00    +0.055 S 
ATOM      9  O   UNL     1       5.574  -5.574  20.754  0.00  0.00    -0.153 OA
ATOM     10  O   UNL     1       6.993  -6.982  22.269  0.00  0.00    -0.153 OA
BRANCH   8  12
ATOM     11  C   UNL     1       4.736  -6.748  24.024  0.00  0.00    +0.028 C 
ATOM     12  C   UNL     1       5.021  -5.656  23.293  0.00  0.00    +0.153 C 
BRANCH  11  17
ATOM     13 CL   UNL     1       0.953  -6.448  28.655  0.00  0.00    -0.084 Cl
ATOM     14  C   UNL     1       2.072  -6.589  27.358  0.00  0.00    +0.041 A 
ATOM     15  C   UNL     1       1.820  -7.485  26.323  0.00  0.00    +0.020 A 
ATOM     16  C   UNL     1       2.705  -7.573  25.245  0.00  0.00    +0.009 A 
ATOM     17  C   UNL     1       3.855  -6.771  25.198  0.00  0.00    -0.024 A 
ATOM     18  C   UNL     1       4.098  -5.878  26.251  0.00  0.00    +0.009 A 
ATOM     19  C   UNL     1       3.213  -5.792  27.331  0.00  0.00    +0.020 A 
ENDBRANCH  11  17
ENDBRANCH   8  12
ENDBRANCH   1   8
BRANCH   5  20
ATOM     20  C   UNL     1       7.800  -0.864  24.267  0.00  0.00    +0.111 C 
BRANCH  20  21
ATOM     21  C   UNL     1       8.770  -0.436  23.152  0.00  0.00    +0.009 C 
ATOM     22  C   UNL     1      10.156  -0.097  23.740  0.00  0.00    +0.024 C 
ATOM     23  C   UNL     1      10.145   1.193  24.566  0.00  0.00    +0.105 C 
ATOM     24  N   UNL     1       9.554   2.274  23.772  0.00  0.00    -0.330 N 
ATOM     25  C   UNL     1       8.211   2.036  23.234  0.00  0.00    +0.105 C 
ATOM     26  C   UNL     1       8.251   0.776  22.370  0.00  0.00    +0.024 C 
BRANCH  24  27
ATOM     27  C   UNL     1      10.141   3.525  23.691  0.00  0.00    +0.033 A 
ATOM     28  C   UNL     1       9.423   4.691  23.976  0.00  0.00    +0.043 A 
ATOM     29  C   UNL     1      10.068   5.922  23.961  0.00  0.00    +0.112 A 
ATOM     30  N   UNL     1      11.373   6.085  23.675  0.00  0.00    -0.263 NA
ATOM     31  C   UNL     1      12.056   4.962  23.386  0.00  0.00    +0.112 A 
ATOM     32  C   UNL     1      11.493   3.694  23.376  0.00  0.00    +0.043 A 
ENDBRANCH  24  27
ENDBRANCH  20  21
ENDBRANCH   5  20
TORSDOF 6
ENDMDL
MODEL 7
REMARK VINA RESULT:      -7.2      2.695      3.422
REMARK  Name = 
REMARK  6 active torsions:
REMARK  status: ('A' for Active; 'I' for Inactive)
REMARK    1  A    between atoms: C_5  and  C_6
REMARK    2  A    between atoms: C_7  and  S_8
REMARK    3  A    between atoms: S_8  and  N_11
REMARK    4  A    between atoms: N_14  and  C_15
REMARK    5  A    between atoms: C_15  and  C_16
REMARK    6  A    between atoms: N_19  and  C_22
REMARK                            x       y       z     vdW  Elec       q    Type
REMARK                         _______ _______ _______ _____ _____    ______ ____
ROOT
ATOM      1  N   UNL     1       8.748  -3.271  24.813  0.00  0.00    -0.167 NA
ATOM      2  C   UNL     1       7.795  -2.220  25.274  0.00  0.00    +0.205 C 
ATOM      3  C   UNL     1       7.879  -0.811  24.696  0.00  0.00    +0.231 C 
ATOM      4  O   UNL     1       7.183   0.095  25.163  0.00  0.00    -0.274 OA
ATOM      5  N   UNL     1       8.848  -0.571  23.725  0.00  0.00    -0.299 N 
ATOM      6  C   UNL     1       9.427  -1.715  23.032  0.00  0.00    +0.125 C 
ATOM      7  C   UNL     1       9.895  -2.762  24.027  0.00  0.00    +0.129 C 
ENDROOT
BRANCH   1   8
ATOM      8  S   UNL     1       8.050  -4.733  24.295  0.00  0.00    +0.055 S 
ATOM      9  O   UNL     1       7.199  -4.404  23.177  0.00  0.00    -0.153 OA
ATOM     10  O   UNL     1       9.130  -5.685  24.138  0.00  0.00    -0.153 OA
BRANCH   8  12
ATOM     11  C   UNL     1       5.784  -5.556  25.408  0.00  0.00    +0.028 C 
ATOM     12  C   UNL     1       7.069  -5.236  25.637  0.00  0.00    +0.153 C 
BRANCH  11  17
ATOM     13 CL   UNL     1       2.054  -7.427  29.702  0.00  0.00    -0.084 Cl
ATOM     14  C   UNL     1       3.126  -6.957  28.443  0.00  0.00    +0.041 A 
ATOM     15  C   UNL     1       2.615  -6.593  27.201  0.00  0.00    +0.020 A 
ATOM     16  C   UNL     1       3.479  -6.169  26.187  0.00  0.00    +0.009 A 
ATOM     17  C   UNL     1       4.864  -6.115  26.406  0.00  0.00    -0.024 A 
ATOM     18  C   UNL     1       5.364  -6.492  27.660  0.00  0.00    +0.009 A 
ATOM     19  C   UNL     1       4.498  -6.918  28.674  0.00  0.00    +0.020 A 
ENDBRANCH  11  17
ENDBRANCH   8  12
ENDBRANCH   1   8
BRANCH   5  20
ATOM     20  C   UNL     1       9.623   0.662  23.853  0.00  0.00    +0.111 C 
BRANCH  20  21
ATOM     21  C   UNL     1       9.718   1.524  22.582  0.00  0.00    +0.009 C 
ATOM     22  C   UNL     1      10.166   2.960  22.933  0.00  0.00    +0.024 C 
ATOM     23  C   UNL     1       9.086   3.745  23.684  0.00  0.00    +0.105 C 
ATOM     24  N   UNL     1       7.828   3.680  22.937  0.00  0.00    -0.330 N 
ATOM     25  C   UNL     1       7.317   2.341  22.623  0.00  0.00    +0.105 C 
ATOM     26  C   UNL     1       8.385   1.589  21.827  0.00  0.00    +0.024 C 
BRANCH  24  27
ATOM     27  C   UNL     1       7.058   4.806  22.703  0.00  0.00    +0.033 A 
ATOM     28  C   UNL     1       7.586   5.937  22.074  0.00  0.00    +0.043 A 
ATOM     29  C   UNL     1       6.761   7.018  21.785  0.00  0.00    +0.112 A 
ATOM     30  N   UNL     1       5.449   7.064  22.082  0.00  0.00    -0.263 NA
ATOM     31  C   UNL     1       4.948   5.980  22.702  0.00  0.00    +0.112 A 
ATOM     32  C   UNL     1       5.698   4.859  23.030  0.00  0.00    +0.043 A 
ENDBRANCH  24  27
ENDBRANCH  20  21
ENDBRANCH   5  20
TORSDOF 6
ENDMDL
MODEL 8
REMARK VINA RESULT:      -7.1      4.018      9.583
REMARK  Name = 
REMARK  6 active torsions:
REMARK  status: ('A' for Active; 'I' for Inactive)
REMARK    1  A    between atoms: C_5  and  C_6
REMARK    2  A    between atoms: C_7  and  S_8
REMARK    3  A    between atoms: S_8  and  N_11
REMARK    4  A    between atoms: N_14  and  C_15
REMARK    5  A    between atoms: C_15  and  C_16
REMARK    6  A    between atoms: N_19  and  C_22
REMARK                            x       y       z     vdW  Elec       q    Type
REMARK                         _______ _______ _______ _____ _____    ______ ____
ROOT
ATOM      1  N   UNL     1       9.847   0.919  24.056  0.00  0.00    -0.167 NA
ATOM      2  C   UNL     1      10.606  -0.275  23.581  0.00  0.00    +0.205 C 
ATOM      3  C   UNL     1       9.921  -1.635  23.514  0.00  0.00    +0.231 C 
ATOM      4  O   UNL     1      10.572  -2.648  23.248  0.00  0.00    -0.274 OA
ATOM      5  N   UNL     1       8.579  -1.697  23.883  0.00  0.00    -0.299 N 
ATOM      6  C   UNL     1       7.814  -0.457  23.911  0.00  0.00    +0.125 C 
ATOM      7  C   UNL     1       8.551   0.609  24.700  0.00  0.00    +0.129 C 
ENDROOT
BRANCH   1   8
ATOM      8  S   UNL     1       9.895   2.283  23.040  0.00  0.00    +0.055 S 
ATOM      9  O   UNL     1      11.005   3.087  23.491  0.00  0.00    -0.153 OA
ATOM     10  O   UNL     1       9.850   1.796  21.677  0.00  0.00    -0.153 OA
BRANCH   8  12
ATOM     11  C   UNL     1       7.614   3.447  22.342  0.00  0.00    +0.028 C 
ATOM     12  C   UNL     1       8.408   3.114  23.373  0.00  0.00    +0.153 C 
BRANCH  11  17
ATOM     13 CL   UNL     1       2.143   5.693  23.277  0.00  0.00    -0.084 Cl
ATOM     14  C   UNL     1       3.708   5.066  22.939  0.00  0.00    +0.041 A 
ATOM     15  C   UNL     1       4.809   5.917  22.948  0.00  0.00    +0.020 A 
ATOM     16  C   UNL     1       6.088   5.404  22.716  0.00  0.00    +0.009 A 
ATOM     17  C   UNL     1       6.275   4.037  22.464  0.00  0.00    -0.024 A 
ATOM     18  C   UNL     1       5.154   3.194  22.451  0.00  0.00    +0.009 A 
ATOM     19  C   UNL     1       3.874   3.708  22.681  0.00  0.00    +0.020 A 
ENDBRANCH  11  17
ENDBRANCH   8  12
ENDBRANCH   1   8
BRANCH   5  20
ATOM     20  C   UNL     1       8.180  -2.810  24.745  0.00  0.00    +0.111 C 
BRANCH  20  21
ATOM     21  C   UNL     1       8.115  -4.189  24.066  0.00  0.00    +0.009 C 
ATOM     22  C   UNL     1       7.174  -4.147  22.843  0.00  0.00    +0.024 C 
ATOM     23  C   UNL     1       5.702  -3.998  23.239  0.00  0.00    +0.105 C 
ATOM     24  N   UNL     1       5.355  -5.028  24.223  0.00  0.00    -0.330 N 
ATOM     25  C   UNL     1       6.176  -5.081  25.437  0.00  0.00    +0.105 C 
ATOM     26  C   UNL     1       7.635  -5.283  25.027  0.00  0.00    +0.024 C 
BRANCH  24  27
ATOM     27  C   UNL     1       4.202  -5.785  24.112  0.00  0.00    +0.033 A 
ATOM     28  C   UNL     1       3.168  -5.423  23.243  0.00  0.00    +0.043 A 
ATOM     29  C   UNL     1       2.061  -6.251  23.101  0.00  0.00    +0.112 A 
ATOM     30  N   UNL     1       1.899  -7.412  23.763  0.00  0.00    -0.263 NA
ATOM     31  C   UNL     1       2.889  -7.749  24.609  0.00  0.00    +0.112 A 
ATOM     32  C   UNL     1       4.027  -6.982  24.814  0.00  0.00    +0.043 A 
ENDBRANCH  24  27
ENDBRANCH  20  21
ENDBRANCH   5  20
TORSDOF 6
ENDMDL
MODEL 9
REMARK VINA RESULT:      -7.1      2.736      3.553
REMARK  Name = 
REMARK  6 active torsions:
REMARK  status: ('A' for Active; 'I' for Inactive)
REMARK    1  A    between atoms: C_5  and  C_6
REMARK    2  A    between atoms: C_7  and  S_8
REMARK    3  A    between atoms: S_8  and  N_11
REMARK    4  A    between atoms: N_14  and  C_15
REMARK    5  A    between atoms: C_15  and  C_16
REMARK    6  A    between atoms: N_19  and  C_22
REMARK                            x       y       z     vdW  Elec       q    Type
REMARK                         _______ _______ _______ _____ _____    ______ ____
ROOT
ATOM      1  N   UNL     1       7.842  -3.306  23.571  0.00  0.00    -0.167 NA
ATOM      2  C   UNL     1       7.809  -2.605  22.255  0.00  0.00    +0.205 C 
ATOM      3  C   UNL     1       8.930  -1.643  21.877  0.00  0.00    +0.231 C 
ATOM      4  O   UNL     1       8.846  -0.962  20.851  0.00  0.00    -0.274 OA
ATOM      5  N   UNL     1       9.970  -1.478  22.789  0.00  0.00    -0.299 N 
ATOM      6  C   UNL     1      10.150  -2.493  23.819  0.00  0.00    +0.125 C 
ATOM      7  C   UNL     1       8.838  -2.774  24.528  0.00  0.00    +0.129 C 
ENDROOT
BRANCH   1   8
ATOM      8  S   UNL     1       7.652  -4.996  23.518  0.00  0.00    +0.055 S 
ATOM      9  O   UNL     1       7.202  -5.314  22.185  0.00  0.00    -0.153 OA
ATOM     10  O   UNL     1       8.873  -5.576  24.036  0.00  0.00    -0.153 OA
BRANCH   8  12
ATOM     11  C   UNL     1       6.692  -5.517  25.938  0.00  0.00    +0.028 C 
ATOM     12  C   UNL     1       6.373  -5.316  24.649  0.00  0.00    +0.153 C 
BRANCH  11  17
ATOM     13 CL   UNL     1       2.577  -5.740  30.282  0.00  0.00    -0.084 Cl
ATOM     14  C   UNL     1       3.788  -5.735  29.062  0.00  0.00    +0.041 A 
ATOM     15  C   UNL     1       3.601  -6.480  27.902  0.00  0.00    +0.020 A 
ATOM     16  C   UNL     1       4.564  -6.447  26.889  0.00  0.00    +0.009 A 
ATOM     17  C   UNL     1       5.725  -5.673  27.032  0.00  0.00    -0.024 A 
ATOM     18  C   UNL     1       5.902  -4.934  28.210  0.00  0.00    +0.009 A 
ATOM     19  C   UNL     1       4.939  -4.970  29.225  0.00  0.00    +0.020 A 
ENDBRANCH  11  17
ENDBRANCH   8  12
ENDBRANCH   1   8
BRANCH   5  20
ATOM     20  C   UNL     1      10.421  -0.110  23.039  0.00  0.00    +0.111 C 
BRANCH  20  21
ATOM     21  C   UNL     1       9.732   0.617  24.207  0.00  0.00    +0.009 C 
ATOM     22  C   UNL     1       8.257   0.915  23.865  0.00  0.00    +0.024 C 
ATOM     23  C   UNL     1       8.109   1.991  22.784  0.00  0.00    +0.105 C 
ATOM     24  N   UNL     1       8.883   3.175  23.166  0.00  0.00    -0.330 N 
ATOM     25  C   UNL     1      10.307   2.968  23.447  0.00  0.00    +0.105 C 
ATOM     26  C   UNL     1      10.436   1.932  24.564  0.00  0.00    +0.024 C 
BRANCH  24  27
ATOM     27  C   UNL     1       8.354   4.451  23.083  0.00  0.00    +0.033 A 
ATOM     28  C   UNL     1       8.943   5.534  23.744  0.00  0.00    +0.043 A 
ATOM     29  C   UNL     1       8.429   6.813  23.571  0.00  0.00    +0.112 A 
ATOM     30  N   UNL     1       7.366   7.100  22.797  0.00  0.00    -0.263 NA
ATOM     31  C   UNL     1       6.792   6.053  22.175  0.00  0.00    +0.112 A 
ATOM     32  C   UNL     1       7.238   4.744  22.291  0.00  0.00    +0.043 A 
ENDBRANCH  24  27
ENDBRANCH  20  21
ENDBRANCH   5  20
TORSDOF 6
ENDMDL
