MODEL 1
REMARK VINA RESULT:      -7.1      0.000      0.000
REMARK  Name = 
REMARK  12 active torsions:
REMARK  status: ('A' for Active; 'I' for Inactive)
REMARK    1  A    between atoms: C_2  and  C_3
REMARK    2  A    between atoms: C_2  and  C_10
REMARK    3  A    between atoms: C_2  and  C_13
REMARK    4  A    between atoms: C_3  and  C_4
REMARK    5  A    between atoms: C_4  and  C_5
REMARK    6  A    between atoms: C_5  and  C_6
REMARK    7  A    between atoms: C_6  and  C_7
REMARK    8  A    between atoms: C_10  and  O_11
REMARK    9  A    between atoms: C_18  and  O_20
REMARK   10  A    between atoms: C_22  and  C_25
REMARK   11  A    between atoms: C_27  and  O_28
REMARK   12  A    between atoms: O_28  and  C_29
REMARK                            x       y       z     vdW  Elec       q    Type
REMARK                         _______ _______ _______ _____ _____    ______ ____
ROOT
ATOM      1  C   UNL     1       7.937  -4.730  23.556  0.00  0.00    +0.062 C 
ATOM      2  C   UNL     1       8.687  -5.123  24.872  0.00  0.00    +0.127 C 
ATOM      3  C   UNL     1       9.426  -3.887  25.415  0.00  0.00    +0.067 C 
ATOM      4  C   UNL     1       8.848  -2.771  24.612  0.00  0.00    -0.041 A 
ATOM      5  C   UNL     1       9.179  -1.423  24.750  0.00  0.00    +0.012 A 
ATOM      6  C   UNL     1       8.663  -0.473  23.854  0.00  0.00    -0.017 A 
ATOM      7  C   UNL     1       7.772  -0.939  22.866  0.00  0.00    +0.009 A 
ATOM      8  C   UNL     1       7.448  -2.297  22.732  0.00  0.00    +0.005 A 
ATOM      9  C   UNL     1       7.984  -3.221  23.613  0.00  0.00    -0.038 A 
ENDROOT
BRANCH   6  10
ATOM     10  C   UNL     1       9.101   0.945  23.875  0.00  0.00    -0.014 A 
ATOM     11  C   UNL     1      10.086   1.414  22.985  0.00  0.00    +0.009 A 
ATOM     12  C   UNL     1      10.453   2.761  22.948  0.00  0.00    +0.004 A 
ATOM     13  C   UNL     1       9.827   3.672  23.793  0.00  0.00    +0.045 A 
ATOM     14  C   UNL     1       8.846   3.246  24.688  0.00  0.00    +0.121 A 
ATOM     15  C   UNL     1       8.506   1.889  24.738  0.00  0.00    +0.054 A 
BRANCH  14  16
ATOM     16  O   UNL     1       8.291   4.242  25.442  0.00  0.00    -0.495 OA
ATOM     17  C   UNL     1       7.255   5.007  24.839  0.00  0.00    +0.277 C 
ENDBRANCH  14  16
ENDBRANCH   6  10
BRANCH   2  18
ATOM     18  O   UNL     1       9.609  -6.176  24.594  0.00  0.00    -0.391 OA
ATOM     19  H   UNL     1       9.130  -6.906  24.165  0.00  0.00    +0.210 HD
ENDBRANCH   2  18
BRANCH   1  20
ATOM     20  C   UNL     1       6.571  -5.464  23.475  0.00  0.00    +0.107 C 
BRANCH  20  21
ATOM     21  C   UNL     1       6.234  -5.800  22.026  0.00  0.00    +0.308 C 
ATOM     22  O   UNL     1       7.081  -5.844  21.145  0.00  0.00    -0.251 OA
BRANCH  21  23
ATOM     23  O   UNL     1       4.947  -6.123  21.789  0.00  0.00    -0.480 OA
ATOM     24  H   UNL     1       4.312  -5.385  21.832  0.00  0.00    +0.295 HD
ENDBRANCH  21  23
ENDBRANCH  20  21
BRANCH  20  25
ATOM     25  C   UNL     1       5.376  -4.716  24.095  0.00  0.00    +0.015 C 
BRANCH  25  26
ATOM     26  C   UNL     1       4.949  -5.255  25.469  0.00  0.00    +0.001 C 
BRANCH  26  27
ATOM     27  C   UNL     1       5.455  -4.335  26.585  0.00  0.00    +0.012 C 
BRANCH  27  28
ATOM     28  C   UNL     1       5.213  -4.934  27.968  0.00  0.00    +0.127 C 
BRANCH  28  29
ATOM     29  C   UNL     1       6.040  -6.191  28.139  0.00  0.00    +0.276 C 
ATOM     30  N   UNL     1       7.329  -6.174  28.041  0.00  0.00    -0.104 NA
ATOM     31  H   UNL     1       7.662  -5.225  27.843  0.00  0.00    +0.363 HD
ATOM     32  N   UNL     1       5.424  -7.368  28.415  0.00  0.00    -0.251 N 
ATOM     33  H   UNL     1       6.040  -8.164  28.274  0.00  0.00    +0.288 HD
ATOM     34  H   UNL     1       4.491  -7.504  28.048  0.00  0.00    +0.288 HD
ENDBRANCH  28  29
ENDBRANCH  27  28
ENDBRANCH  26  27
ENDBRANCH  25  26
ENDBRANCH  20  25
ENDBRANCH   1  20
TORSDOF 11
ENDMDL
MODEL 2
REMARK VINA RESULT:      -7.1      2.168      3.117
REMARK  Name = 
REMARK  12 active torsions:
REMARK  status: ('A' for Active; 'I' for Inactive)
REMARK    1  A    between atoms: C_2  and  C_3
REMARK    2  A    between atoms: C_2  and  C_10
REMARK    3  A    between atoms: C_2  and  C_13
REMARK    4  A    between atoms: C_3  and  C_4
REMARK    5  A    between atoms: C_4  and  C_5
REMARK    6  A    between atoms: C_5  and  C_6
REMARK    7  A    between atoms: C_6  and  C_7
REMARK    8  A    between atoms: C_10  and  O_11
REMARK    9  A    between atoms: C_18  and  O_20
REMARK   10  A    between atoms: C_22  and  C_25
REMARK   11  A    between atoms: C_27  and  O_28
REMARK   12  A    between atoms: O_28  and  C_29
REMARK                            x       y       z     vdW  Elec       q    Type
REMARK                         _______ _______ _______ _____ _____    ______ ____
ROOT
ATOM      1  C   UNL     1       5.256  -5.025  23.210  0.00  0.00    +0.062 C 
ATOM      2  C   UNL     1       6.179  -5.787  22.202  0.00  0.00    +0.127 C 
ATOM      3  C   UNL     1       7.160  -4.786  21.566  0.00  0.00    +0.067 C 
ATOM      4  C   UNL     1       7.005  -3.575  22.424  0.00  0.00    -0.041 A 
ATOM      5  C   UNL     1       7.712  -2.382  22.268  0.00  0.00    +0.012 A 
ATOM      6  C   UNL     1       7.395  -1.265  23.057  0.00  0.00    -0.017 A 
ATOM      7  C   UNL     1       6.384  -1.428  24.026  0.00  0.00    +0.009 A 
ATOM      8  C   UNL     1       5.675  -2.629  24.172  0.00  0.00    +0.005 A 
ATOM      9  C   UNL     1       5.989  -3.714  23.370  0.00  0.00    -0.038 A 
ENDROOT
BRANCH   6  10
ATOM     10  C   UNL     1       8.022   0.062  22.828  0.00  0.00    -0.014 A 
ATOM     11  C   UNL     1       9.220   0.181  22.100  0.00  0.00    +0.009 A 
ATOM     12  C   UNL     1       9.779   1.429  21.817  0.00  0.00    +0.004 A 
ATOM     13  C   UNL     1       9.138   2.587  22.243  0.00  0.00    +0.045 A 
ATOM     14  C   UNL     1       7.947   2.510  22.965  0.00  0.00    +0.121 A 
ATOM     15  C   UNL     1       7.410   1.254  23.270  0.00  0.00    +0.054 A 
BRANCH  14  16
ATOM     16  O   UNL     1       7.404   3.719  23.301  0.00  0.00    -0.495 OA
ATOM     17  C   UNL     1       7.156   4.632  22.240  0.00  0.00    +0.277 C 
ENDBRANCH  14  16
ENDBRANCH   6  10
BRANCH   2  18
ATOM     18  O   UNL     1       5.375  -6.407  21.200  0.00  0.00    -0.391 OA
ATOM     19  H   UNL     1       5.428  -7.372  21.309  0.00  0.00    +0.210 HD
ENDBRANCH   2  18
BRANCH   1  20
ATOM     20  C   UNL     1       4.969  -5.912  24.453  0.00  0.00    +0.107 C 
BRANCH  20  21
ATOM     21  C   UNL     1       3.868  -6.920  24.140  0.00  0.00    +0.308 C 
ATOM     22  O   UNL     1       3.640  -7.890  24.850  0.00  0.00    -0.251 OA
BRANCH  21  23
ATOM     23  O   UNL     1       3.104  -6.633  23.067  0.00  0.00    -0.480 OA
ATOM     24  H   UNL     1       3.589  -6.427  22.247  0.00  0.00    +0.295 HD
ENDBRANCH  21  23
ENDBRANCH  20  21
BRANCH  20  25
ATOM     25  C   UNL     1       4.588  -5.155  25.738  0.00  0.00    +0.015 C 
BRANCH  25  26
ATOM     26  C   UNL     1       5.669  -5.200  26.830  0.00  0.00    +0.001 C 
BRANCH  26  27
ATOM     27  C   UNL     1       7.012  -5.634  26.236  0.00  0.00    +0.012 C 
BRANCH  27  28
ATOM     28  C   UNL     1       8.064  -4.533  26.345  0.00  0.00    +0.127 C 
BRANCH  28  29
ATOM     29  C   UNL     1       9.247  -4.859  25.458  0.00  0.00    +0.276 C 
ATOM     30  N   UNL     1       9.721  -4.001  24.616  0.00  0.00    -0.104 NA
ATOM     31  H   UNL     1       9.190  -3.125  24.659  0.00  0.00    +0.363 HD
ATOM     32  N   UNL     1       9.840  -6.076  25.548  0.00  0.00    -0.251 N 
ATOM     33  H   UNL     1      10.453  -6.263  24.759  0.00  0.00    +0.288 HD
ATOM     34  H   UNL     1       9.257  -6.862  25.807  0.00  0.00    +0.288 HD
ENDBRANCH  28  29
ENDBRANCH  27  28
ENDBRANCH  26  27
ENDBRANCH  25  26
ENDBRANCH  20  25
ENDBRANCH   1  20
TORSDOF 11
ENDMDL
MODEL 3
REMARK VINA RESULT:      -7.1      2.466      3.899
REMARK  Name = 
REMARK  12 active torsions:
REMARK  status: ('A' for Active; 'I' for Inactive)
REMARK    1  A    between atoms: C_2  and  C_3
REMARK    2  A    between atoms: C_2  and  C_10
REMARK    3  A    between atoms: C_2  and  C_13
REMARK    4  A    between atoms: C_3  and  C_4
REMARK    5  A    between atoms: C_4  and  C_5
REMARK    6  A    between atoms: C_5  and  C_6
REMARK    7  A    between atoms: C_6  and  C_7
REMARK    8  A    between atoms: C_10  and  O_11
REMARK    9  A    between atoms: C_18  and  O_20
REMARK   10  A    between atoms: C_22  and  C_25
REMARK   11  A    between atoms: C_27  and  O_28
REMARK   12  A    between atoms: O_28  and  C_29
REMARK                            x       y       z     vdW  Elec       q    Type
REMARK                         _______ _______ _______ _____ _____    ______ ____
ROOT
ATOM      1  C   UNL     1       7.620  -2.100  23.884  0.00  0.00    +0.062 C 
ATOM      2  C   UNL     1       8.215  -2.592  22.523  0.00  0.00    +0.127 C 
ATOM      3  C   UNL     1       8.948  -1.422  21.843  0.00  0.00    +0.067 C 
ATOM      4  C   UNL     1       9.036  -0.406  22.931  0.00  0.00    -0.041 A 
ATOM      5  C   UNL     1       9.647   0.843  22.818  0.00  0.00    +0.012 A 
ATOM      6  C   UNL     1       9.561   1.770  23.870  0.00  0.00    -0.017 A 
ATOM      7  C   UNL     1       8.884   1.357  25.036  0.00  0.00    +0.009 A 
ATOM      8  C   UNL     1       8.269   0.101  25.139  0.00  0.00    +0.005 A 
ATOM      9  C   UNL     1       8.348  -0.791  24.082  0.00  0.00    -0.038 A 
ENDROOT
BRANCH   6  10
ATOM     10  C   UNL     1      10.071   3.158  23.737  0.00  0.00    -0.014 A 
ATOM     11  C   UNL     1       9.240   4.264  23.992  0.00  0.00    +0.009 A 
ATOM     12  C   UNL     1       9.729   5.571  23.941  0.00  0.00    +0.004 A 
ATOM     13  C   UNL     1      11.070   5.796  23.649  0.00  0.00    +0.045 A 
ATOM     14  C   UNL     1      11.926   4.726  23.392  0.00  0.00    +0.121 A 
ATOM     15  C   UNL     1      11.420   3.421  23.417  0.00  0.00    +0.054 A 
BRANCH  14  16
ATOM     16  O   UNL     1      13.224   5.080  23.146  0.00  0.00    -0.495 OA
ATOM     17  C   UNL     1      13.489   5.747  21.919  0.00  0.00    +0.277 C 
ENDBRANCH  14  16
ENDBRANCH   6  10
BRANCH   2  18
ATOM     18  O   UNL     1       7.159  -3.073  21.692  0.00  0.00    -0.391 OA
ATOM     19  H   UNL     1       6.322  -2.677  21.988  0.00  0.00    +0.210 HD
ENDBRANCH   2  18
BRANCH   1  20
ATOM     20  C   UNL     1       7.727  -3.219  24.955  0.00  0.00    +0.107 C 
BRANCH  20  21
ATOM     21  C   UNL     1       8.566  -4.379  24.427  0.00  0.00    +0.308 C 
ATOM     22  O   UNL     1       9.764  -4.481  24.647  0.00  0.00    -0.251 OA
BRANCH  21  23
ATOM     23  O   UNL     1       7.884  -5.333  23.761  0.00  0.00    -0.480 OA
ATOM     24  H   UNL     1       6.930  -5.381  23.953  0.00  0.00    +0.295 HD
ENDBRANCH  21  23
ENDBRANCH  20  21
BRANCH  20  25
ATOM     25  C   UNL     1       6.389  -3.778  25.470  0.00  0.00    +0.015 C 
BRANCH  25  26
ATOM     26  C   UNL     1       5.161  -3.255  24.708  0.00  0.00    +0.001 C 
BRANCH  26  27
ATOM     27  C   UNL     1       4.004  -4.255  24.807  0.00  0.00    +0.012 C 
BRANCH  27  28
ATOM     28  C   UNL     1       3.599  -4.791  23.437  0.00  0.00    +0.127 C 
BRANCH  28  29
ATOM     29  C   UNL     1       4.688  -5.691  22.891  0.00  0.00    +0.276 C 
ATOM     30  N   UNL     1       5.374  -5.368  21.845  0.00  0.00    -0.104 NA
ATOM     31  H   UNL     1       5.069  -4.459  21.482  0.00  0.00    +0.363 HD
ATOM     32  N   UNL     1       4.968  -6.862  23.516  0.00  0.00    -0.251 N 
ATOM     33  H   UNL     1       5.535  -7.478  22.940  0.00  0.00    +0.288 HD
ATOM     34  H   UNL     1       4.206  -7.333  23.989  0.00  0.00    +0.288 HD
ENDBRANCH  28  29
ENDBRANCH  27  28
ENDBRANCH  26  27
ENDBRANCH  25  26
ENDBRANCH  20  25
ENDBRANCH   1  20
TORSDOF 11
ENDMDL
MODEL 4
REMARK VINA RESULT:      -7.0      1.781      2.269
REMARK  Name = 
REMARK  12 active torsions:
REMARK  status: ('A' for Active; 'I' for Inactive)
REMARK    1  A    between atoms: C_2  and  C_3
REMARK    2  A    between atoms: C_2  and  C_10
REMARK    3  A    between atoms: C_2  and  C_13
REMARK    4  A    between atoms: C_3  and  C_4
REMARK    5  A    between atoms: C_4  and  C_5
REMARK    6  A    between atoms: C_5  and  C_6
REMARK    7  A    between atoms: C_6  and  C_7
REMARK    8  A    between atoms: C_10  and  O_11
REMARK    9  A    between atoms: C_18  and  O_20
REMARK   10  A    between atoms: C_22  and  C_25
REMARK   11  A    between atoms: C_27  and  O_28
REMARK   12  A    between atoms: O_28  and  C_29
REMARK                            x       y       z     vdW  Elec       q    Type
REMARK                         _______ _______ _______ _____ _____    ______ ____
ROOT
ATOM      1  C   UNL     1       7.749  -4.209  23.474  0.00  0.00    +0.062 C 
ATOM      2  C   UNL     1       8.587  -4.609  24.733  0.00  0.00    +0.127 C 
ATOM      3  C   UNL     1       9.339  -3.370  25.249  0.00  0.00    +0.067 C 
ATOM      4  C   UNL     1       8.693  -2.252  24.502  0.00  0.00    -0.041 A 
ATOM      5  C   UNL     1       9.011  -0.901  24.641  0.00  0.00    +0.012 A 
ATOM      6  C   UNL     1       8.423   0.055  23.796  0.00  0.00    -0.017 A 
ATOM      7  C   UNL     1       7.479  -0.411  22.858  0.00  0.00    +0.009 A 
ATOM      8  C   UNL     1       7.169  -1.772  22.723  0.00  0.00    +0.005 A 
ATOM      9  C   UNL     1       7.774  -2.701  23.553  0.00  0.00    -0.038 A 
ENDROOT
BRANCH   6  10
ATOM     10  C   UNL     1       8.839   1.480  23.813  0.00  0.00    -0.014 A 
ATOM     11  C   UNL     1       7.952   2.489  24.231  0.00  0.00    +0.009 A 
ATOM     12  C   UNL     1       8.356   3.823  24.320  0.00  0.00    +0.004 A 
ATOM     13  C   UNL     1       9.666   4.172  24.007  0.00  0.00    +0.045 A 
ATOM     14  C   UNL     1      10.574   3.200  23.590  0.00  0.00    +0.121 A 
ATOM     15  C   UNL     1      10.153   1.870  23.476  0.00  0.00    +0.054 A 
BRANCH  14  16
ATOM     16  O   UNL     1      11.835   3.667  23.340  0.00  0.00    -0.495 OA
ATOM     17  C   UNL     1      12.021   5.076  23.384  0.00  0.00    +0.277 C 
ENDBRANCH  14  16
ENDBRANCH   6  10
BRANCH   2  18
ATOM     18  O   UNL     1       9.506  -5.642  24.380  0.00  0.00    -0.391 OA
ATOM     19  H   UNL     1      10.348  -5.235  24.113  0.00  0.00    +0.210 HD
ENDBRANCH   2  18
BRANCH   1  20
ATOM     20  C   UNL     1       6.392  -4.965  23.468  0.00  0.00    +0.107 C 
BRANCH  20  21
ATOM     21  C   UNL     1       6.029  -5.391  22.049  0.00  0.00    +0.308 C 
ATOM     22  O   UNL     1       5.823  -4.587  21.151  0.00  0.00    -0.251 OA
BRANCH  21  23
ATOM     23  O   UNL     1       6.024  -6.720  21.825  0.00  0.00    -0.480 OA
ATOM     24  H   UNL     1       6.056  -7.282  22.620  0.00  0.00    +0.295 HD
ENDBRANCH  21  23
ENDBRANCH  20  21
BRANCH  20  25
ATOM     25  C   UNL     1       5.200  -4.198  24.069  0.00  0.00    +0.015 C 
BRANCH  25  26
ATOM     26  C   UNL     1       4.923  -4.535  25.543  0.00  0.00    +0.001 C 
BRANCH  26  27
ATOM     27  C   UNL     1       5.313  -5.985  25.843  0.00  0.00    +0.012 C 
BRANCH  27  28
ATOM     28  C   UNL     1       4.134  -6.791  26.380  0.00  0.00    +0.127 C 
BRANCH  28  29
ATOM     29  C   UNL     1       3.526  -7.621  25.269  0.00  0.00    +0.276 C 
ATOM     30  N   UNL     1       4.049  -7.661  24.087  0.00  0.00    -0.104 NA
ATOM     31  H   UNL     1       4.888  -7.072  24.046  0.00  0.00    +0.363 HD
ATOM     32  N   UNL     1       2.412  -8.357  25.511  0.00  0.00    -0.251 N 
ATOM     33  H   UNL     1       1.969  -8.674  24.654  0.00  0.00    +0.288 HD
ATOM     34  H   UNL     1       1.761  -8.003  26.201  0.00  0.00    +0.288 HD
ENDBRANCH  28  29
ENDBRANCH  27  28
ENDBRANCH  26  27
ENDBRANCH  25  26
ENDBRANCH  20  25
ENDBRANCH   1  20
TORSDOF 11
ENDMDL
MODEL 5
REMARK VINA RESULT:      -7.0      1.793      2.091
REMARK  Name = 
REMARK  12 active torsions:
REMARK  status: ('A' for Active; 'I' for Inactive)
REMARK    1  A    between atoms: C_2  and  C_3
REMARK    2  A    between atoms: C_2  and  C_10
REMARK    3  A    between atoms: C_2  and  C_13
REMARK    4  A    between atoms: C_3  and  C_4
REMARK    5  A    between atoms: C_4  and  C_5
REMARK    6  A    between atoms: C_5  and  C_6
REMARK    7  A    between atoms: C_6  and  C_7
REMARK    8  A    between atoms: C_10  and  O_11
REMARK    9  A    between atoms: C_18  and  O_20
REMARK   10  A    between atoms: C_22  and  C_25
REMARK   11  A    between atoms: C_27  and  O_28
REMARK   12  A    between atoms: O_28  and  C_29
REMARK                            x       y       z     vdW  Elec       q    Type
REMARK                         _______ _______ _______ _____ _____    ______ ____
ROOT
ATOM      1  C   UNL     1       7.987  -4.748  23.724  0.00  0.00    +0.062 C 
ATOM      2  C   UNL     1       8.642  -5.051  25.112  0.00  0.00    +0.127 C 
ATOM      3  C   UNL     1       9.335  -3.777  25.628  0.00  0.00    +0.067 C 
ATOM      4  C   UNL     1       8.810  -2.719  24.716  0.00  0.00    -0.041 A 
ATOM      5  C   UNL     1       9.126  -1.362  24.792  0.00  0.00    +0.012 A 
ATOM      6  C   UNL     1       8.671  -0.475  23.803  0.00  0.00    -0.017 A 
ATOM      7  C   UNL     1       7.856  -1.010  22.785  0.00  0.00    +0.009 A 
ATOM      8  C   UNL     1       7.548  -2.376  22.714  0.00  0.00    +0.005 A 
ATOM      9  C   UNL     1       8.023  -3.239  23.689  0.00  0.00    -0.038 A 
ENDROOT
BRANCH   6  10
ATOM     10  C   UNL     1       9.101   0.946  23.766  0.00  0.00    -0.014 A 
ATOM     11  C   UNL     1      10.462   1.295  23.848  0.00  0.00    +0.009 A 
ATOM     12  C   UNL     1      10.881   2.622  23.742  0.00  0.00    +0.004 A 
ATOM     13  C   UNL     1       9.945   3.629  23.532  0.00  0.00    +0.045 A 
ATOM     14  C   UNL     1       8.588   3.323  23.443  0.00  0.00    +0.121 A 
ATOM     15  C   UNL     1       8.174   1.993  23.581  0.00  0.00    +0.054 A 
BRANCH  14  16
ATOM     16  O   UNL     1       7.775   4.397  23.209  0.00  0.00    -0.495 OA
ATOM     17  C   UNL     1       6.536   4.140  22.560  0.00  0.00    +0.277 C 
ENDBRANCH  14  16
ENDBRANCH   6  10
BRANCH   2  18
ATOM     18  O   UNL     1       9.585  -6.111  24.969  0.00  0.00    -0.391 OA
ATOM     19  H   UNL     1       9.871  -6.398  25.853  0.00  0.00    +0.210 HD
ENDBRANCH   2  18
BRANCH   1  20
ATOM     20  C   UNL     1       6.633  -5.498  23.593  0.00  0.00    +0.107 C 
BRANCH  20  21
ATOM     21  C   UNL     1       6.346  -5.822  22.130  0.00  0.00    +0.308 C 
ATOM     22  O   UNL     1       7.224  -5.872  21.280  0.00  0.00    -0.251 OA
BRANCH  21  23
ATOM     23  O   UNL     1       5.065  -6.129  21.844  0.00  0.00    -0.480 OA
ATOM     24  H   UNL     1       4.419  -5.944  22.550  0.00  0.00    +0.295 HD
ENDBRANCH  21  23
ENDBRANCH  20  21
BRANCH  20  25
ATOM     25  C   UNL     1       5.410  -4.772  24.182  0.00  0.00    +0.015 C 
BRANCH  25  26
ATOM     26  C   UNL     1       5.135  -5.112  25.656  0.00  0.00    +0.001 C 
BRANCH  26  27
ATOM     27  C   UNL     1       4.888  -6.614  25.821  0.00  0.00    +0.012 C 
BRANCH  27  28
ATOM     28  C   UNL     1       3.404  -6.932  25.977  0.00  0.00    +0.127 C 
BRANCH  28  29
ATOM     29  C   UNL     1       2.954  -7.860  24.867  0.00  0.00    +0.276 C 
ATOM     30  N   UNL     1       2.522  -9.053  25.114  0.00  0.00    -0.104 NA
ATOM     31  H   UNL     1       2.536  -9.239  26.122  0.00  0.00    +0.363 HD
ATOM     32  N   UNL     1       2.991  -7.435  23.579  0.00  0.00    -0.251 N 
ATOM     33  H   UNL     1       2.897  -8.203  22.921  0.00  0.00    +0.288 HD
ATOM     34  H   UNL     1       3.709  -6.768  23.329  0.00  0.00    +0.288 HD
ENDBRANCH  28  29
ENDBRANCH  27  28
ENDBRANCH  26  27
ENDBRANCH  25  26
ENDBRANCH  20  25
ENDBRANCH   1  20
TORSDOF 11
ENDMDL
MODEL 6
REMARK VINA RESULT:      -6.9      4.399      8.963
REMARK  Name = 
REMARK  12 active torsions:
REMARK  status: ('A' for Active; 'I' for Inactive)
REMARK    1  A    between atoms: C_2  and  C_3
REMARK    2  A    between atoms: C_2  and  C_10
REMARK    3  A    between atoms: C_2  and  C_13
REMARK    4  A    between atoms: C_3  and  C_4
REMARK    5  A    between atoms: C_4  and  C_5
REMARK    6  A    between atoms: C_5  and  C_6
REMARK    7  A    between atoms: C_6  and  C_7
REMARK    8  A    between atoms: C_10  and  O_11
REMARK    9  A    between atoms: C_18  and  O_20
REMARK   10  A    between atoms: C_22  and  C_25
REMARK   11  A    between atoms: C_27  and  O_28
REMARK   12  A    between atoms: O_28  and  C_29
REMARK                            x       y       z     vdW  Elec       q    Type
REMARK                         _______ _______ _______ _____ _____    ______ ____
ROOT
ATOM      1  C   UNL     1       8.845   0.709  24.295  0.00  0.00    +0.062 C 
ATOM      2  C   UNL     1      10.202   0.056  23.872  0.00  0.00    +0.127 C 
ATOM      3  C   UNL     1      10.033  -1.474  23.838  0.00  0.00    +0.067 C 
ATOM      4  C   UNL     1       8.554  -1.649  23.924  0.00  0.00    -0.041 A 
ATOM      5  C   UNL     1       7.886  -2.873  23.904  0.00  0.00    +0.012 A 
ATOM      6  C   UNL     1       6.499  -2.925  24.116  0.00  0.00    -0.017 A 
ATOM      7  C   UNL     1       5.830  -1.696  24.294  0.00  0.00    +0.009 A 
ATOM      8  C   UNL     1       6.510  -0.471  24.317  0.00  0.00    +0.005 A 
ATOM      9  C   UNL     1       7.882  -0.443  24.126  0.00  0.00    -0.038 A 
ENDROOT
BRANCH   6  10
ATOM     10  C   UNL     1       5.772  -4.213  24.246  0.00  0.00    -0.014 A 
ATOM     11  C   UNL     1       5.108  -4.785  23.145  0.00  0.00    +0.009 A 
ATOM     12  C   UNL     1       4.483  -6.030  23.237  0.00  0.00    +0.004 A 
ATOM     13  C   UNL     1       4.525  -6.738  24.434  0.00  0.00    +0.045 A 
ATOM     14  C   UNL     1       5.175  -6.205  25.547  0.00  0.00    +0.121 A 
ATOM     15  C   UNL     1       5.773  -4.943  25.453  0.00  0.00    +0.054 A 
BRANCH  14  16
ATOM     16  O   UNL     1       5.168  -7.011  26.651  0.00  0.00    -0.495 OA
ATOM     17  C   UNL     1       5.344  -6.378  27.912  0.00  0.00    +0.277 C 
ENDBRANCH  14  16
ENDBRANCH   6  10
BRANCH   2  18
ATOM     18  O   UNL     1      11.216   0.428  24.803  0.00  0.00    -0.391 OA
ATOM     19  H   UNL     1      11.303  -0.275  25.470  0.00  0.00    +0.210 HD
ENDBRANCH   2  18
BRANCH   1  20
ATOM     20  C   UNL     1       8.618   2.033  23.514  0.00  0.00    +0.107 C 
BRANCH  20  21
ATOM     21  C   UNL     1       9.112   1.892  22.078  0.00  0.00    +0.308 C 
ATOM     22  O   UNL     1       8.464   1.325  21.209  0.00  0.00    -0.251 OA
BRANCH  21  23
ATOM     23  O   UNL     1      10.282   2.504  21.804  0.00  0.00    -0.480 OA
ATOM     24  H   UNL     1      10.659   2.319  20.924  0.00  0.00    +0.295 HD
ENDBRANCH  21  23
ENDBRANCH  20  21
BRANCH  20  25
ATOM     25  C   UNL     1       9.260   3.288  24.132  0.00  0.00    +0.015 C 
BRANCH  25  26
ATOM     26  C   UNL     1       8.437   4.571  23.932  0.00  0.00    +0.001 C 
BRANCH  26  27
ATOM     27  C   UNL     1       9.326   5.700  23.402  0.00  0.00    +0.012 C 
BRANCH  27  28
ATOM     28  C   UNL     1      10.431   6.063  24.390  0.00  0.00    +0.127 C 
BRANCH  28  29
ATOM     29  C   UNL     1      11.787   5.797  23.770  0.00  0.00    +0.276 C 
ATOM     30  N   UNL     1      12.883   6.159  24.353  0.00  0.00    -0.104 NA
ATOM     31  H   UNL     1      12.680   6.621  25.245  0.00  0.00    +0.363 HD
ATOM     32  N   UNL     1      11.866   5.153  22.579  0.00  0.00    -0.251 N 
ATOM     33  H   UNL     1      12.786   5.242  22.156  0.00  0.00    +0.288 HD
ATOM     34  H   UNL     1      11.104   5.284  21.926  0.00  0.00    +0.288 HD
ENDBRANCH  28  29
ENDBRANCH  27  28
ENDBRANCH  26  27
ENDBRANCH  25  26
ENDBRANCH  20  25
ENDBRANCH   1  20
TORSDOF 11
ENDMDL
MODEL 7
REMARK VINA RESULT:      -6.9      4.463      9.231
REMARK  Name = 
REMARK  12 active torsions:
REMARK  status: ('A' for Active; 'I' for Inactive)
REMARK    1  A    between atoms: C_2  and  C_3
REMARK    2  A    between atoms: C_2  and  C_10
REMARK    3  A    between atoms: C_2  and  C_13
REMARK    4  A    between atoms: C_3  and  C_4
REMARK    5  A    between atoms: C_4  and  C_5
REMARK    6  A    between atoms: C_5  and  C_6
REMARK    7  A    between atoms: C_6  and  C_7
REMARK    8  A    between atoms: C_10  and  O_11
REMARK    9  A    between atoms: C_18  and  O_20
REMARK   10  A    between atoms: C_22  and  C_25
REMARK   11  A    between atoms: C_27  and  O_28
REMARK   12  A    between atoms: O_28  and  C_29
REMARK                            x       y       z     vdW  Elec       q    Type
REMARK                         _______ _______ _______ _____ _____    ______ ____
ROOT
ATOM      1  C   UNL     1       8.669   2.447  23.584  0.00  0.00    +0.062 C 
ATOM      2  C   UNL     1       9.023   2.072  22.106  0.00  0.00    +0.127 C 
ATOM      3  C   UNL     1       9.043   0.539  21.969  0.00  0.00    +0.067 C 
ATOM      4  C   UNL     1       8.408   0.082  23.239  0.00  0.00    -0.041 A 
ATOM      5  C   UNL     1       8.169  -1.248  23.586  0.00  0.00    +0.012 A 
ATOM      6  C   UNL     1       7.679  -1.569  24.862  0.00  0.00    -0.017 A 
ATOM      7  C   UNL     1       7.399  -0.494  25.732  0.00  0.00    +0.009 A 
ATOM      8  C   UNL     1       7.647   0.839  25.376  0.00  0.00    +0.005 A 
ATOM      9  C   UNL     1       8.150   1.133  24.119  0.00  0.00    -0.038 A 
ENDROOT
BRANCH   6  10
ATOM     10  C   UNL     1       7.546  -2.974  25.323  0.00  0.00    -0.014 A 
ATOM     11  C   UNL     1       8.499  -3.548  26.185  0.00  0.00    +0.009 A 
ATOM     12  C   UNL     1       8.345  -4.844  26.680  0.00  0.00    +0.004 A 
ATOM     13  C   UNL     1       7.222  -5.588  26.336  0.00  0.00    +0.045 A 
ATOM     14  C   UNL     1       6.255  -5.053  25.486  0.00  0.00    +0.121 A 
ATOM     15  C   UNL     1       6.432  -3.764  24.970  0.00  0.00    +0.054 A 
BRANCH  14  16
ATOM     16  O   UNL     1       5.187  -5.875  25.248  0.00  0.00    -0.495 OA
ATOM     17  C   UNL     1       4.204  -5.405  24.335  0.00  0.00    +0.277 C 
ENDBRANCH  14  16
ENDBRANCH   6  10
BRANCH   2  18
ATOM     18  O   UNL     1      10.296   2.622  21.771  0.00  0.00    -0.391 OA
ATOM     19  H   UNL     1      10.921   1.893  21.613  0.00  0.00    +0.210 HD
ENDBRANCH   2  18
BRANCH   1  20
ATOM     20  C   UNL     1       7.767   3.711  23.617  0.00  0.00    +0.107 C 
BRANCH  20  21
ATOM     21  C   UNL     1       7.058   3.891  22.279  0.00  0.00    +0.308 C 
ATOM     22  O   UNL     1       6.163   3.147  21.900  0.00  0.00    -0.251 OA
BRANCH  21  23
ATOM     23  O   UNL     1       7.427   4.975  21.566  0.00  0.00    -0.480 OA
ATOM     24  H   UNL     1       7.807   4.792  20.688  0.00  0.00    +0.295 HD
ENDBRANCH  21  23
ENDBRANCH  20  21
BRANCH  20  25
ATOM     25  C   UNL     1       8.479   5.028  23.974  0.00  0.00    +0.015 C 
BRANCH  25  26
ATOM     26  C   UNL     1       9.971   4.859  24.306  0.00  0.00    +0.001 C 
BRANCH  26  27
ATOM     27  C   UNL     1      10.787   5.998  23.687  0.00  0.00    +0.012 C 
BRANCH  27  28
ATOM     28  C   UNL     1      12.252   5.941  24.111  0.00  0.00    +0.127 C 
BRANCH  28  29
ATOM     29  C   UNL     1      13.085   5.321  23.009  0.00  0.00    +0.276 C 
ATOM     30  N   UNL     1      14.326   5.008  23.190  0.00  0.00    -0.104 NA
ATOM     31  H   UNL     1      14.619   5.237  24.145  0.00  0.00    +0.363 HD
ATOM     32  N   UNL     1      12.522   5.072  21.800  0.00  0.00    -0.251 N 
ATOM     33  H   UNL     1      13.218   4.884  21.085  0.00  0.00    +0.288 HD
ATOM     34  H   UNL     1      11.780   5.689  21.495  0.00  0.00    +0.288 HD
ENDBRANCH  28  29
ENDBRANCH  27  28
ENDBRANCH  26  27
ENDBRANCH  25  26
ENDBRANCH  20  25
ENDBRANCH   1  20
TORSDOF 11
ENDMDL
MODEL 8
REMARK VINA RESULT:      -6.9      1.991      2.343
REMARK  Name = 
REMARK  12 active torsions:
REMARK  status: ('A' for Active; 'I' for Inactive)
REMARK    1  A    between atoms: C_2  and  C_3
REMARK    2  A    between atoms: C_2  and  C_10
REMARK    3  A    between atoms: C_2  and  C_13
REMARK    4  A    between atoms: C_3  and  C_4
REMARK    5  A    between atoms: C_4  and  C_5
REMARK    6  A    between atoms: C_5  and  C_6
REMARK    7  A    between atoms: C_6  and  C_7
REMARK    8  A    between atoms: C_10  and  O_11
REMARK    9  A    between atoms: C_18  and  O_20
REMARK   10  A    between atoms: C_22  and  C_25
REMARK   11  A    between atoms: C_27  and  O_28
REMARK   12  A    between atoms: O_28  and  C_29
REMARK                            x       y       z     vdW  Elec       q    Type
REMARK                         _______ _______ _______ _____ _____    ______ ____
ROOT
ATOM      1  C   UNL     1       7.972  -4.625  23.555  0.00  0.00    +0.062 C 
ATOM      2  C   UNL     1       8.710  -4.986  24.887  0.00  0.00    +0.127 C 
ATOM      3  C   UNL     1       9.419  -3.730  25.424  0.00  0.00    +0.067 C 
ATOM      4  C   UNL     1       8.830  -2.636  24.598  0.00  0.00    -0.041 A 
ATOM      5  C   UNL     1       9.135  -1.280  24.722  0.00  0.00    +0.012 A 
ATOM      6  C   UNL     1       8.614  -0.351  23.806  0.00  0.00    -0.017 A 
ATOM      7  C   UNL     1       7.746  -0.847  22.812  0.00  0.00    +0.009 A 
ATOM      8  C   UNL     1       7.448  -2.212  22.692  0.00  0.00    +0.005 A 
ATOM      9  C   UNL     1       7.989  -3.115  23.593  0.00  0.00    -0.038 A 
ENDROOT
BRANCH   6  10
ATOM     10  C   UNL     1       9.025   1.075  23.815  0.00  0.00    -0.014 A 
ATOM     11  C   UNL     1      10.373   1.442  23.645  0.00  0.00    +0.009 A 
ATOM     12  C   UNL     1      10.761   2.782  23.579  0.00  0.00    +0.004 A 
ATOM     13  C   UNL     1       9.801   3.785  23.665  0.00  0.00    +0.045 A 
ATOM     14  C   UNL     1       8.455   3.461  23.831  0.00  0.00    +0.121 A 
ATOM     15  C   UNL     1       8.079   2.116  23.926  0.00  0.00    +0.054 A 
BRANCH  14  16
ATOM     16  O   UNL     1       7.610   4.536  23.874  0.00  0.00    -0.495 OA
ATOM     17  C   UNL     1       7.849   5.581  22.941  0.00  0.00    +0.277 C 
ENDBRANCH  14  16
ENDBRANCH   6  10
BRANCH   2  18
ATOM     18  O   UNL     1       9.655  -6.025  24.636  0.00  0.00    -0.391 OA
ATOM     19  H   UNL     1      10.552  -5.662  24.728  0.00  0.00    +0.210 HD
ENDBRANCH   2  18
BRANCH   1  20
ATOM     20  C   UNL     1       6.620  -5.385  23.467  0.00  0.00    +0.107 C 
BRANCH  20  21
ATOM     21  C   UNL     1       6.320  -5.765  22.020  0.00  0.00    +0.308 C 
ATOM     22  O   UNL     1       7.184  -5.808  21.156  0.00  0.00    -0.251 OA
BRANCH  21  23
ATOM     23  O   UNL     1       5.046  -6.128  21.767  0.00  0.00    -0.480 OA
ATOM     24  H   UNL     1       4.444  -6.114  22.533  0.00  0.00    +0.295 HD
ENDBRANCH  21  23
ENDBRANCH  20  21
BRANCH  20  25
ATOM     25  C   UNL     1       5.400  -4.644  24.042  0.00  0.00    +0.015 C 
BRANCH  25  26
ATOM     26  C   UNL     1       5.257  -4.769  25.567  0.00  0.00    +0.001 C 
BRANCH  26  27
ATOM     27  C   UNL     1       5.300  -3.385  26.223  0.00  0.00    +0.012 C 
BRANCH  27  28
ATOM     28  C   UNL     1       4.790  -2.296  25.283  0.00  0.00    +0.127 C 
BRANCH  28  29
ATOM     29  C   UNL     1       5.394  -0.960  25.665  0.00  0.00    +0.276 C 
ATOM     30  N   UNL     1       5.153   0.113  24.986  0.00  0.00    -0.104 NA
ATOM     31  H   UNL     1       4.525  -0.092  24.202  0.00  0.00    +0.363 HD
ATOM     32  N   UNL     1       6.200  -0.874  26.753  0.00  0.00    -0.251 N 
ATOM     33  H   UNL     1       6.725  -0.004  26.772  0.00  0.00    +0.288 HD
ATOM     34  H   UNL     1       6.751  -1.688  26.991  0.00  0.00    +0.288 HD
ENDBRANCH  28  29
ENDBRANCH  27  28
ENDBRANCH  26  27
ENDBRANCH  25  26
ENDBRANCH  20  25
ENDBRANCH   1  20
TORSDOF 11
ENDMDL
MODEL 9
REMARK VINA RESULT:      -6.6      4.085      8.701
REMARK  Name = 
REMARK  12 active torsions:
REMARK  status: ('A' for Active; 'I' for Inactive)
REMARK    1  A    between atoms: C_2  and  C_3
REMARK    2  A    between atoms: C_2  and  C_10
REMARK    3  A    between atoms: C_2  and  C_13
REMARK    4  A    between atoms: C_3  and  C_4
REMARK    5  A    between atoms: C_4  and  C_5
REMARK    6  A    between atoms: C_5  and  C_6
REMARK    7  A    between atoms: C_6  and  C_7
REMARK    8  A    between atoms: C_10  and  O_11
REMARK    9  A    between atoms: C_18  and  O_20
REMARK   10  A    between atoms: C_22  and  C_25
REMARK   11  A    between atoms: C_27  and  O_28
REMARK   12  A    between atoms: O_28  and  C_29
REMARK                            x       y       z     vdW  Elec       q    Type
REMARK                         _______ _______ _______ _____ _____    ______ ____
ROOT
ATOM      1  C   UNL     1       8.740   0.656  24.215  0.00  0.00    +0.062 C 
ATOM      2  C   UNL     1      10.144  -0.032  24.155  0.00  0.00    +0.127 C 
ATOM      3  C   UNL     1       9.958  -1.557  24.250  0.00  0.00    +0.067 C 
ATOM      4  C   UNL     1       8.491  -1.729  24.044  0.00  0.00    -0.041 A 
ATOM      5  C   UNL     1       7.820  -2.951  24.015  0.00  0.00    +0.012 A 
ATOM      6  C   UNL     1       6.418  -2.987  23.939  0.00  0.00    -0.017 A 
ATOM      7  C   UNL     1       5.748  -1.750  23.842  0.00  0.00    +0.009 A 
ATOM      8  C   UNL     1       6.431  -0.525  23.876  0.00  0.00    +0.005 A 
ATOM      9  C   UNL     1       7.813  -0.512  23.972  0.00  0.00    -0.038 A 
ENDROOT
BRANCH   6  10
ATOM     10  C   UNL     1       5.657  -4.257  24.050  0.00  0.00    -0.014 A 
ATOM     11  C   UNL     1       5.973  -5.208  25.038  0.00  0.00    +0.009 A 
ATOM     12  C   UNL     1       5.219  -6.371  25.197  0.00  0.00    +0.004 A 
ATOM     13  C   UNL     1       4.117  -6.599  24.379  0.00  0.00    +0.045 A 
ATOM     14  C   UNL     1       3.771  -5.680  23.389  0.00  0.00    +0.121 A 
ATOM     15  C   UNL     1       4.551  -4.530  23.218  0.00  0.00    +0.054 A 
BRANCH  14  16
ATOM     16  O   UNL     1       2.654  -6.007  22.672  0.00  0.00    -0.495 OA
ATOM     17  C   UNL     1       1.877  -7.097  23.150  0.00  0.00    +0.277 C 
ENDBRANCH  14  16
ENDBRANCH   6  10
BRANCH   2  18
ATOM     18  O   UNL     1      10.949   0.443  25.233  0.00  0.00    -0.391 OA
ATOM     19  H   UNL     1      10.492   0.257  26.071  0.00  0.00    +0.210 HD
ENDBRANCH   2  18
BRANCH   1  20
ATOM     20  C   UNL     1       8.704   1.887  23.269  0.00  0.00    +0.107 C 
BRANCH  20  21
ATOM     21  C   UNL     1       9.429   1.574  21.964  0.00  0.00    +0.308 C 
ATOM     22  O   UNL     1       9.079   0.675  21.213  0.00  0.00    -0.251 OA
BRANCH  21  23
ATOM     23  O   UNL     1      10.443   2.406  21.649  0.00  0.00    -0.480 OA
ATOM     24  H   UNL     1      10.456   2.724  20.728  0.00  0.00    +0.295 HD
ENDBRANCH  21  23
ENDBRANCH  20  21
BRANCH  20  25
ATOM     25  C   UNL     1       9.281   3.191  23.849  0.00  0.00    +0.015 C 
BRANCH  25  26
ATOM     26  C   UNL     1       8.473   3.760  25.026  0.00  0.00    +0.001 C 
BRANCH  26  27
ATOM     27  C   UNL     1       7.103   4.250  24.547  0.00  0.00    +0.012 C 
BRANCH  27  28
ATOM     28  C   UNL     1       7.203   5.580  23.806  0.00  0.00    +0.127 C 
BRANCH  28  29
ATOM     29  C   UNL     1       7.010   5.360  22.320  0.00  0.00    +0.276 C 
ATOM     30  N   UNL     1       7.477   6.188  21.444  0.00  0.00    -0.104 NA
ATOM     31  H   UNL     1       7.968   6.961  21.907  0.00  0.00    +0.363 HD
ATOM     32  N   UNL     1       6.340   4.263  21.885  0.00  0.00    -0.251 N 
ATOM     33  H   UNL     1       6.071   4.342  20.908  0.00  0.00    +0.288 HD
ATOM     34  H   UNL     1       5.611   3.894  22.481  0.00  0.00    +0.288 HD
ENDBRANCH  28  29
ENDBRANCH  27  28
ENDBRANCH  26  27
ENDBRANCH  25  26
ENDBRANCH  20  25
ENDBRANCH   1  20
TORSDOF 11
ENDMDL
