MODEL 1
REMARK VINA RESULT:      -7.2      0.000      0.000
REMARK  Name = 
REMARK  10 active torsions:
REMARK  status: ('A' for Active; 'I' for Inactive)
REMARK    1  A    between atoms: C_2  and  C_24
REMARK    2  A    between atoms: C_8  and  O_10
REMARK    3  A    between atoms: O_10  and  C_11
REMARK    4  A    between atoms: C_11  and  C_12
REMARK    5  A    between atoms: C_11  and  C_13
REMARK    6  A    between atoms: C_11  and  C_14
REMARK    7  A    between atoms: C_16  and  N_17
REMARK    8  A    between atoms: N_17  and  S_18
REMARK    9  A    between atoms: S_18  and  O_19
REMARK   10  A    between atoms: N_26  and  C_27
REMARK                            x       y       z     vdW  Elec       q    Type
REMARK                         _______ _______ _______ _____ _____    ______ ____
ROOT
ATOM      1  C   UNL     1       7.386  -2.560  22.791  0.00  0.00    +0.170 C 
ATOM      2  N   UNL     1       6.600  -1.593  23.584  0.00  0.00    -0.251 N 
ATOM      3  C   UNL     1       6.709  -0.221  23.532  0.00  0.00    +0.404 C 
ATOM      4  O   UNL     1       6.112   0.501  24.316  0.00  0.00    -0.226 OA
ATOM      5  C   UNL     1       5.804  -2.155  24.663  0.00  0.00    +0.147 C 
ATOM      6  C   UNL     1       6.508  -3.249  25.419  0.00  0.00    -0.025 A 
ATOM      7  C   UNL     1       5.903  -3.721  26.590  0.00  0.00    +0.030 A 
ATOM      8  C   UNL     1       6.513  -4.706  27.354  0.00  0.00    +0.050 A 
ATOM      9  C   UNL     1       7.726  -5.255  26.944  0.00  0.00    +0.025 A 
ATOM     10  C   UNL     1       8.330  -4.805  25.763  0.00  0.00    +0.006 A 
ATOM     11  C   UNL     1       7.721  -3.807  24.984  0.00  0.00    -0.040 A 
ATOM     12  C   UNL     1       8.381  -3.294  23.716  0.00  0.00    +0.067 C 
ENDROOT
BRANCH   1  13
ATOM     13  C   UNL     1       6.502  -3.590  22.032  0.00  0.00    +0.234 C 
ATOM     14  N   UNL     1       7.056  -4.848  21.910  0.00  0.00    -0.317 N 
ATOM     15  H   UNL     1       7.970  -5.009  22.316  0.00  0.00    +0.148 HD
ATOM     16  C   UNL     1       6.401  -5.927  21.212  0.00  0.00    +0.128 C 
ATOM     17  O   UNL     1       5.352  -3.339  21.673  0.00  0.00    -0.274 OA
ENDBRANCH   1  13
BRANCH   8  18
ATOM     18  N   UNL     1       5.848  -5.114  28.539  0.00  0.00    -0.197 N 
ATOM     19  H   UNL     1       6.199  -4.740  29.417  0.00  0.00    +0.176 HD
BRANCH  18  20
ATOM     20  S   UNL     1       5.399  -6.721  28.682  0.00  0.00    +0.164 S 
ATOM     21  O   UNL     1       4.155  -6.738  29.411  0.00  0.00    -0.127 OA
ATOM     22  O   UNL     1       6.538  -7.501  29.105  0.00  0.00    -0.127 OA
BRANCH  20  23
ATOM     23  O   UNL     1       5.099  -7.161  27.166  0.00  0.00    -0.238 OA
ATOM     24  H   UNL     1       5.016  -8.136  27.161  0.00  0.00    +0.246 HD
ENDBRANCH  20  23
ENDBRANCH  18  20
ENDBRANCH   8  18
BRANCH   3  25
ATOM     25  O   UNL     1       7.503   0.263  22.534  0.00  0.00    -0.445 OA
BRANCH  25  26
ATOM     26  C   UNL     1       8.775   0.879  22.906  0.00  0.00    +0.107 C 
ATOM     27  C   UNL     1       8.682   2.416  22.910  0.00  0.00    +0.055 C 
ATOM     28  C   UNL     1       9.795   0.491  21.822  0.00  0.00    +0.055 C 
ATOM     29  C   UNL     1       9.287   0.329  24.247  0.00  0.00    +0.055 C 
ENDBRANCH  25  26
ENDBRANCH   3  25
TORSDOF 6
ENDMDL
MODEL 2
REMARK VINA RESULT:      -6.9      3.863      7.520
REMARK  Name = 
REMARK  10 active torsions:
REMARK  status: ('A' for Active; 'I' for Inactive)
REMARK    1  A    between atoms: C_2  and  C_24
REMARK    2  A    between atoms: C_8  and  O_10
REMARK    3  A    between atoms: O_10  and  C_11
REMARK    4  A    between atoms: C_11  and  C_12
REMARK    5  A    between atoms: C_11  and  C_13
REMARK    6  A    between atoms: C_11  and  C_14
REMARK    7  A    between atoms: C_16  and  N_17
REMARK    8  A    between atoms: N_17  and  S_18
REMARK    9  A    between atoms: S_18  and  O_19
REMARK   10  A    between atoms: N_26  and  C_27
REMARK                            x       y       z     vdW  Elec       q    Type
REMARK                         _______ _______ _______ _____ _____    ______ ____
ROOT
ATOM      1  C   UNL     1       7.824  -2.641  23.332  0.00  0.00    +0.170 C 
ATOM      2  N   UNL     1       7.002  -1.822  24.244  0.00  0.00    -0.251 N 
ATOM      3  C   UNL     1       5.647  -1.955  24.458  0.00  0.00    +0.404 C 
ATOM      4  O   UNL     1       5.022  -1.152  25.132  0.00  0.00    -0.226 OA
ATOM      5  C   UNL     1       7.647  -0.639  24.791  0.00  0.00    +0.147 C 
ATOM      6  C   UNL     1       8.497   0.095  23.790  0.00  0.00    -0.025 A 
ATOM      7  C   UNL     1       9.006   1.345  24.165  0.00  0.00    +0.030 A 
ATOM      8  C   UNL     1       9.771   2.092  23.279  0.00  0.00    +0.050 A 
ATOM      9  C   UNL     1      10.065   1.586  22.014  0.00  0.00    +0.025 A 
ATOM     10  C   UNL     1       9.579   0.327  21.637  0.00  0.00    +0.006 A 
ATOM     11  C   UNL     1       8.802  -0.434  22.526  0.00  0.00    -0.040 A 
ATOM     12  C   UNL     1       8.249  -1.788  22.116  0.00  0.00    +0.067 C 
ENDROOT
BRANCH   1  13
ATOM     13  C   UNL     1       9.079  -3.251  24.021  0.00  0.00    +0.234 C 
ATOM     14  N   UNL     1       8.820  -4.328  24.844  0.00  0.00    -0.317 N 
ATOM     15  H   UNL     1       7.861  -4.639  24.935  0.00  0.00    +0.148 HD
ATOM     16  C   UNL     1       9.850  -5.005  25.593  0.00  0.00    +0.128 C 
ATOM     17  O   UNL     1      10.223  -2.881  23.762  0.00  0.00    -0.274 OA
ENDBRANCH   1  13
BRANCH   8  18
ATOM     18  N   UNL     1      10.229   3.358  23.725  0.00  0.00    -0.197 N 
ATOM     19  H   UNL     1      10.860   3.365  24.523  0.00  0.00    +0.176 HD
BRANCH  18  20
ATOM     20  S   UNL     1       9.131   4.621  23.787  0.00  0.00    +0.164 S 
ATOM     21  O   UNL     1       8.906   4.901  25.184  0.00  0.00    -0.127 OA
ATOM     22  O   UNL     1       8.041   4.352  22.881  0.00  0.00    -0.127 OA
BRANCH  20  23
ATOM     23  O   UNL     1       9.943   5.853  23.152  0.00  0.00    -0.238 OA
ATOM     24  H   UNL     1      10.579   5.478  22.509  0.00  0.00    +0.246 HD
ENDBRANCH  20  23
ENDBRANCH  18  20
ENDBRANCH   8  18
BRANCH   3  25
ATOM     25  O   UNL     1       5.073  -3.054  23.888  0.00  0.00    -0.445 OA
BRANCH  25  26
ATOM     26  C   UNL     1       4.745  -4.184  24.754  0.00  0.00    +0.107 C 
ATOM     27  C   UNL     1       5.454  -4.080  26.117  0.00  0.00    +0.055 C 
ATOM     28  C   UNL     1       5.280  -5.449  24.062  0.00  0.00    +0.055 C 
ATOM     29  C   UNL     1       3.224  -4.344  24.907  0.00  0.00    +0.055 C 
ENDBRANCH  25  26
ENDBRANCH   3  25
TORSDOF 6
ENDMDL
MODEL 3
REMARK VINA RESULT:      -6.7      3.126      6.853
REMARK  Name = 
REMARK  10 active torsions:
REMARK  status: ('A' for Active; 'I' for Inactive)
REMARK    1  A    between atoms: C_2  and  C_24
REMARK    2  A    between atoms: C_8  and  O_10
REMARK    3  A    between atoms: O_10  and  C_11
REMARK    4  A    between atoms: C_11  and  C_12
REMARK    5  A    between atoms: C_11  and  C_13
REMARK    6  A    between atoms: C_11  and  C_14
REMARK    7  A    between atoms: C_16  and  N_17
REMARK    8  A    between atoms: N_17  and  S_18
REMARK    9  A    between atoms: S_18  and  O_19
REMARK   10  A    between atoms: N_26  and  C_27
REMARK                            x       y       z     vdW  Elec       q    Type
REMARK                         _______ _______ _______ _____ _____    ______ ____
ROOT
ATOM      1  C   UNL     1       6.544  -4.938  24.167  0.00  0.00    +0.170 C 
ATOM      2  N   UNL     1       7.697  -4.811  25.081  0.00  0.00    -0.251 N 
ATOM      3  C   UNL     1       7.764  -5.282  26.374  0.00  0.00    +0.404 C 
ATOM      4  O   UNL     1       8.707  -5.020  27.104  0.00  0.00    -0.226 OA
ATOM      5  C   UNL     1       8.759  -3.920  24.643  0.00  0.00    +0.147 C 
ATOM      6  C   UNL     1       8.254  -2.658  23.997  0.00  0.00    -0.025 A 
ATOM      7  C   UNL     1       9.190  -1.655  23.714  0.00  0.00    +0.030 A 
ATOM      8  C   UNL     1       8.788  -0.453  23.149  0.00  0.00    +0.050 A 
ATOM      9  C   UNL     1       7.448  -0.245  22.830  0.00  0.00    +0.025 A 
ATOM     10  C   UNL     1       6.507  -1.250  23.090  0.00  0.00    +0.006 A 
ATOM     11  C   UNL     1       6.903  -2.469  23.664  0.00  0.00    -0.040 A 
ATOM     12  C   UNL     1       5.886  -3.554  23.973  0.00  0.00    +0.067 C 
ENDROOT
BRANCH   1  13
ATOM     13  C   UNL     1       6.923  -5.548  22.787  0.00  0.00    +0.234 C 
ATOM     14  N   UNL     1       5.975  -5.376  21.800  0.00  0.00    -0.317 N 
ATOM     15  H   UNL     1       5.126  -4.875  22.034  0.00  0.00    +0.148 HD
ATOM     16  C   UNL     1       6.132  -5.899  20.464  0.00  0.00    +0.128 C 
ATOM     17  O   UNL     1       8.027  -6.040  22.561  0.00  0.00    -0.274 OA
ENDBRANCH   1  13
BRANCH   8  18
ATOM     18  N   UNL     1       9.793   0.522  22.914  0.00  0.00    -0.197 N 
ATOM     19  H   UNL     1      10.538   0.270  22.270  0.00  0.00    +0.176 HD
BRANCH  18  20
ATOM     20  S   UNL     1      10.368   1.396  24.221  0.00  0.00    +0.164 S 
ATOM     21  O   UNL     1      10.655   2.723  23.734  0.00  0.00    -0.127 OA
ATOM     22  O   UNL     1      11.358   0.614  24.923  0.00  0.00    -0.127 OA
BRANCH  20  23
ATOM     23  O   UNL     1       9.097   1.485  25.199  0.00  0.00    -0.238 OA
ATOM     24  H   UNL     1       9.437   1.687  26.095  0.00  0.00    +0.246 HD
ENDBRANCH  20  23
ENDBRANCH  18  20
ENDBRANCH   8  18
BRANCH   3  25
ATOM     25  O   UNL     1       6.724  -6.075  26.760  0.00  0.00    -0.445 OA
BRANCH  25  26
ATOM     26  C   UNL     1       5.708  -5.496  27.637  0.00  0.00    +0.107 C 
ATOM     27  C   UNL     1       5.804  -3.961  27.681  0.00  0.00    +0.055 C 
ATOM     28  C   UNL     1       5.997  -6.009  29.058  0.00  0.00    +0.055 C 
ATOM     29  C   UNL     1       4.300  -5.975  27.246  0.00  0.00    +0.055 C 
ENDBRANCH  25  26
ENDBRANCH   3  25
TORSDOF 6
ENDMDL
MODEL 4
REMARK VINA RESULT:      -6.6      3.450      7.434
REMARK  Name = 
REMARK  10 active torsions:
REMARK  status: ('A' for Active; 'I' for Inactive)
REMARK    1  A    between atoms: C_2  and  C_24
REMARK    2  A    between atoms: C_8  and  O_10
REMARK    3  A    between atoms: O_10  and  C_11
REMARK    4  A    between atoms: C_11  and  C_12
REMARK    5  A    between atoms: C_11  and  C_13
REMARK    6  A    between atoms: C_11  and  C_14
REMARK    7  A    between atoms: C_16  and  N_17
REMARK    8  A    between atoms: N_17  and  S_18
REMARK    9  A    between atoms: S_18  and  O_19
REMARK   10  A    between atoms: N_26  and  C_27
REMARK                            x       y       z     vdW  Elec       q    Type
REMARK                         _______ _______ _______ _____ _____    ______ ____
ROOT
ATOM      1  C   UNL     1       6.487  -4.493  25.288  0.00  0.00    +0.170 C 
ATOM      2  N   UNL     1       5.710  -4.254  24.056  0.00  0.00    -0.251 N 
ATOM      3  C   UNL     1       4.917  -5.173  23.404  0.00  0.00    +0.404 C 
ATOM      4  O   UNL     1       4.412  -4.930  22.319  0.00  0.00    -0.226 OA
ATOM      5  C   UNL     1       5.988  -3.007  23.362  0.00  0.00    +0.147 C 
ATOM      6  C   UNL     1       7.450  -2.653  23.329  0.00  0.00    -0.025 A 
ATOM      7  C   UNL     1       7.838  -1.574  22.525  0.00  0.00    +0.030 A 
ATOM      8  C   UNL     1       9.175  -1.213  22.423  0.00  0.00    +0.050 A 
ATOM      9  C   UNL     1      10.142  -1.908  23.146  0.00  0.00    +0.025 A 
ATOM     10  C   UNL     1       9.761  -2.975  23.971  0.00  0.00    +0.006 A 
ATOM     11  C   UNL     1       8.412  -3.349  24.079  0.00  0.00    -0.040 A 
ATOM     12  C   UNL     1       7.994  -4.521  24.949  0.00  0.00    +0.067 C 
ENDROOT
BRANCH   1  13
ATOM     13  C   UNL     1       6.209  -3.441  26.400  0.00  0.00    +0.234 C 
ATOM     14  N   UNL     1       4.894  -3.366  26.809  0.00  0.00    -0.317 N 
ATOM     15  H   UNL     1       4.222  -3.986  26.373  0.00  0.00    +0.148 HD
ATOM     16  C   UNL     1       4.436  -2.429  27.806  0.00  0.00    +0.128 C 
ATOM     17  O   UNL     1       7.108  -2.810  26.954  0.00  0.00    -0.274 OA
ENDBRANCH   1  13
BRANCH   8  18
ATOM     18  N   UNL     1       9.490  -0.124  21.569  0.00  0.00    -0.197 N 
ATOM     19  H   UNL     1      10.397  -0.146  21.111  0.00  0.00    +0.176 HD
BRANCH  18  20
ATOM     20  S   UNL     1       9.082   1.420  22.072  0.00  0.00    +0.164 S 
ATOM     21  O   UNL     1       9.142   1.412  23.513  0.00  0.00    -0.127 OA
ATOM     22  O   UNL     1       7.904   1.859  21.363  0.00  0.00    -0.127 OA
BRANCH  20  23
ATOM     23  O   UNL     1      10.293   2.322  21.524  0.00  0.00    -0.238 OA
ATOM     24  H   UNL     1      10.861   1.741  20.978  0.00  0.00    +0.246 HD
ENDBRANCH  20  23
ENDBRANCH  18  20
ENDBRANCH   8  18
BRANCH   3  25
ATOM     25  O   UNL     1       4.721  -6.348  24.069  0.00  0.00    -0.445 OA
BRANCH  25  26
ATOM     26  C   UNL     1       3.458  -6.530  24.782  0.00  0.00    +0.107 C 
ATOM     27  C   UNL     1       2.617  -5.241  24.787  0.00  0.00    +0.055 C 
ATOM     28  C   UNL     1       3.811  -6.846  26.245  0.00  0.00    +0.055 C 
ATOM     29  C   UNL     1       2.673  -7.729  24.223  0.00  0.00    +0.055 C 
ENDBRANCH  25  26
ENDBRANCH   3  25
TORSDOF 6
ENDMDL
MODEL 5
REMARK VINA RESULT:      -6.6      2.115      3.393
REMARK  Name = 
REMARK  10 active torsions:
REMARK  status: ('A' for Active; 'I' for Inactive)
REMARK    1  A    between atoms: C_2  and  C_24
REMARK    2  A    between atoms: C_8  and  O_10
REMARK    3  A    between atoms: O_10  and  C_11
REMARK    4  A    between atoms: C_11  and  C_12
REMARK    5  A    between atoms: C_11  and  C_13
REMARK    6  A    between atoms: C_11  and  C_14
REMARK    7  A    between atoms: C_16  and  N_17
REMARK    8  A    between atoms: N_17  and  S_18
REMARK    9  A    between atoms: S_18  and  O_19
REMARK   10  A    between atoms: N_26  and  C_27
REMARK                            x       y       z     vdW  Elec       q    Type
REMARK                         _______ _______ _______ _____ _____    ______ ____
ROOT
ATOM      1  C   UNL     1       6.933  -0.536  24.043  0.00  0.00    +0.170 C 
ATOM      2  N   UNL     1       8.195  -0.518  24.809  0.00  0.00    -0.251 N 
ATOM      3  C   UNL     1       9.363   0.109  24.435  0.00  0.00    +0.404 C 
ATOM      4  O   UNL     1      10.399  -0.035  25.065  0.00  0.00    -0.226 OA
ATOM      5  C   UNL     1       8.262  -1.424  25.944  0.00  0.00    +0.147 C 
ATOM      6  C   UNL     1       7.644  -2.769  25.673  0.00  0.00    -0.025 A 
ATOM      7  C   UNL     1       7.826  -3.772  26.634  0.00  0.00    +0.030 A 
ATOM      8  C   UNL     1       7.311  -5.045  26.433  0.00  0.00    +0.050 A 
ATOM      9  C   UNL     1       6.581  -5.329  25.281  0.00  0.00    +0.025 A 
ATOM     10  C   UNL     1       6.375  -4.327  24.323  0.00  0.00    +0.006 A 
ATOM     11  C   UNL     1       6.894  -3.036  24.516  0.00  0.00    -0.040 A 
ATOM     12  C   UNL     1       6.698  -1.952  23.472  0.00  0.00    +0.067 C 
ENDROOT
BRANCH   1  13
ATOM     13  C   UNL     1       5.702  -0.088  24.882  0.00  0.00    +0.234 C 
ATOM     14  N   UNL     1       5.563   1.278  25.020  0.00  0.00    -0.317 N 
ATOM     15  H   UNL     1       6.249   1.875  24.574  0.00  0.00    +0.148 HD
ATOM     16  C   UNL     1       4.503   1.883  25.789  0.00  0.00    +0.128 C 
ATOM     17  O   UNL     1       4.854  -0.880  25.290  0.00  0.00    -0.274 OA
ENDBRANCH   1  13
BRANCH   8  18
ATOM     18  N   UNL     1       7.558  -6.012  27.442  0.00  0.00    -0.197 N 
ATOM     19  H   UNL     1       8.096  -6.832  27.173  0.00  0.00    +0.176 HD
BRANCH  18  20
ATOM     20  S   UNL     1       6.311  -6.401  28.489  0.00  0.00    +0.164 S 
ATOM     21  O   UNL     1       5.307  -7.074  27.701  0.00  0.00    -0.127 OA
ATOM     22  O   UNL     1       5.993  -5.252  29.303  0.00  0.00    -0.127 OA
BRANCH  20  23
ATOM     23  O   UNL     1       6.976  -7.476  29.479  0.00  0.00    -0.238 OA
ATOM     24  H   UNL     1       6.524  -8.330  29.322  0.00  0.00    +0.246 HD
ENDBRANCH  20  23
ENDBRANCH  18  20
ENDBRANCH   8  18
BRANCH   3  25
ATOM     25  O   UNL     1       9.268   0.913  23.337  0.00  0.00    -0.445 OA
BRANCH  25  26
ATOM     26  C   UNL     1       9.269   2.360  23.544  0.00  0.00    +0.107 C 
ATOM     27  C   UNL     1       8.699   2.737  24.923  0.00  0.00    +0.055 C 
ATOM     28  C   UNL     1       8.332   2.965  22.485  0.00  0.00    +0.055 C 
ATOM     29  C   UNL     1      10.671   2.951  23.318  0.00  0.00    +0.055 C 
ENDBRANCH  25  26
ENDBRANCH   3  25
TORSDOF 6
ENDMDL
MODEL 6
REMARK VINA RESULT:      -6.5      4.209      8.391
REMARK  Name = 
REMARK  10 active torsions:
REMARK  status: ('A' for Active; 'I' for Inactive)
REMARK    1  A    between atoms: C_2  and  C_24
REMARK    2  A    between atoms: C_8  and  O_10
REMARK    3  A    between atoms: O_10  and  C_11
REMARK    4  A    between atoms: C_11  and  C_12
REMARK    5  A    between atoms: C_11  and  C_13
REMARK    6  A    between atoms: C_11  and  C_14
REMARK    7  A    between atoms: C_16  and  N_17
REMARK    8  A    between atoms: N_17  and  S_18
REMARK    9  A    between atoms: S_18  and  O_19
REMARK   10  A    between atoms: N_26  and  C_27
REMARK                            x       y       z     vdW  Elec       q    Type
REMARK                         _______ _______ _______ _____ _____    ______ ____
ROOT
ATOM      1  C   UNL     1       8.510  -0.992  25.174  0.00  0.00    +0.170 C 
ATOM      2  N   UNL     1       7.891  -1.306  23.870  0.00  0.00    -0.251 N 
ATOM      3  C   UNL     1       8.075  -2.459  23.140  0.00  0.00    +0.404 C 
ATOM      4  O   UNL     1       7.626  -2.582  22.011  0.00  0.00    -0.226 OA
ATOM      5  C   UNL     1       7.204  -0.205  23.212  0.00  0.00    +0.147 C 
ATOM      6  C   UNL     1       7.931   1.107  23.326  0.00  0.00    -0.025 A 
ATOM      7  C   UNL     1       7.451   2.183  22.568  0.00  0.00    +0.030 A 
ATOM      8  C   UNL     1       8.093   3.413  22.601  0.00  0.00    +0.050 A 
ATOM      9  C   UNL     1       9.208   3.596  23.415  0.00  0.00    +0.025 A 
ATOM     10  C   UNL     1       9.684   2.533  24.194  0.00  0.00    +0.006 A 
ATOM     11  C   UNL     1       9.043   1.284  24.166  0.00  0.00    -0.040 A 
ATOM     12  C   UNL     1       9.568   0.118  24.986  0.00  0.00    +0.067 C 
ENDROOT
BRANCH   1  13
ATOM     13  C   UNL     1       7.476  -0.567  26.255  0.00  0.00    +0.234 C 
ATOM     14  N   UNL     1       7.921   0.403  27.130  0.00  0.00    -0.317 N 
ATOM     15  H   UNL     1       8.860   0.763  27.008  0.00  0.00    +0.148 HD
ATOM     16  C   UNL     1       7.117   0.901  28.220  0.00  0.00    +0.128 C 
ATOM     17  O   UNL     1       6.316  -0.974  26.259  0.00  0.00    -0.274 OA
ENDBRANCH   1  13
BRANCH   8  18
ATOM     18  N   UNL     1       7.559   4.445  21.787  0.00  0.00    -0.197 N 
ATOM     19  H   UNL     1       7.892   4.494  20.827  0.00  0.00    +0.176 HD
BRANCH  18  20
ATOM     20  S   UNL     1       7.370   5.967  22.459  0.00  0.00    +0.164 S 
ATOM     21  O   UNL     1       8.696   6.457  22.747  0.00  0.00    -0.127 OA
ATOM     22  O   UNL     1       6.342   5.919  23.471  0.00  0.00    -0.127 OA
BRANCH  20  23
ATOM     23  O   UNL     1       6.765   6.836  21.252  0.00  0.00    -0.238 OA
ATOM     24  H   UNL     1       7.437   7.508  21.016  0.00  0.00    +0.246 HD
ENDBRANCH  20  23
ENDBRANCH  18  20
ENDBRANCH   8  18
BRANCH   3  25
ATOM     25  O   UNL     1       8.764  -3.448  23.777  0.00  0.00    -0.445 OA
BRANCH  25  26
ATOM     26  C   UNL     1       8.029  -4.643  24.187  0.00  0.00    +0.107 C 
ATOM     27  C   UNL     1       6.750  -4.285  24.966  0.00  0.00    +0.055 C 
ATOM     28  C   UNL     1       8.941  -5.423  25.148  0.00  0.00    +0.055 C 
ATOM     29  C   UNL     1       7.734  -5.553  22.983  0.00  0.00    +0.055 C 
ENDBRANCH  25  26
ENDBRANCH   3  25
TORSDOF 6
ENDMDL
MODEL 7
REMARK VINA RESULT:      -6.3      3.476      5.653
REMARK  Name = 
REMARK  10 active torsions:
REMARK  status: ('A' for Active; 'I' for Inactive)
REMARK    1  A    between atoms: C_2  and  C_24
REMARK    2  A    between atoms: C_8  and  O_10
REMARK    3  A    between atoms: O_10  and  C_11
REMARK    4  A    between atoms: C_11  and  C_12
REMARK    5  A    between atoms: C_11  and  C_13
REMARK    6  A    between atoms: C_11  and  C_14
REMARK    7  A    between atoms: C_16  and  N_17
REMARK    8  A    between atoms: N_17  and  S_18
REMARK    9  A    between atoms: S_18  and  O_19
REMARK   10  A    between atoms: N_26  and  C_27
REMARK                            x       y       z     vdW  Elec       q    Type
REMARK                         _______ _______ _______ _____ _____    ______ ____
ROOT
ATOM      1  C   UNL     1       7.310   2.342  24.373  0.00  0.00    +0.170 C 
ATOM      2  N   UNL     1       8.785   2.280  24.361  0.00  0.00    -0.251 N 
ATOM      3  C   UNL     1       9.632   3.202  23.786  0.00  0.00    +0.404 C 
ATOM      4  O   UNL     1      10.835   3.008  23.709  0.00  0.00    -0.226 OA
ATOM      5  C   UNL     1       9.372   1.026  24.806  0.00  0.00    +0.147 C 
ATOM      6  C   UNL     1       8.632  -0.188  24.314  0.00  0.00    -0.025 A 
ATOM      7  C   UNL     1       9.224  -1.440  24.529  0.00  0.00    +0.030 A 
ATOM      8  C   UNL     1       8.612  -2.599  24.073  0.00  0.00    +0.050 A 
ATOM      9  C   UNL     1       7.383  -2.528  23.420  0.00  0.00    +0.025 A 
ATOM     10  C   UNL     1       6.772  -1.283  23.219  0.00  0.00    +0.006 A 
ATOM     11  C   UNL     1       7.384  -0.105  23.675  0.00  0.00    -0.040 A 
ATOM     12  C   UNL     1       6.742   1.251  23.439  0.00  0.00    +0.067 C 
ENDROOT
BRANCH   1  13
ATOM     13  C   UNL     1       6.703   2.192  25.798  0.00  0.00    +0.234 C 
ATOM     14  N   UNL     1       7.390   2.860  26.791  0.00  0.00    -0.317 N 
ATOM     15  H   UNL     1       8.214   3.388  26.530  0.00  0.00    +0.148 HD
ATOM     16  C   UNL     1       7.000   2.814  28.179  0.00  0.00    +0.128 C 
ATOM     17  O   UNL     1       5.632   1.625  26.006  0.00  0.00    -0.274 OA
ENDBRANCH   1  13
BRANCH   8  18
ATOM     18  N   UNL     1       9.286  -3.825  24.308  0.00  0.00    -0.197 N 
ATOM     19  H   UNL     1       9.462  -4.417  23.500  0.00  0.00    +0.176 HD
BRANCH  18  20
ATOM     20  S   UNL     1       8.854  -4.720  25.655  0.00  0.00    +0.164 S 
ATOM     21  O   UNL     1       7.652  -5.437  25.304  0.00  0.00    -0.127 OA
ATOM     22  O   UNL     1       8.924  -3.884  26.829  0.00  0.00    -0.127 OA
BRANCH  20  23
ATOM     23  O   UNL     1      10.049  -5.784  25.795  0.00  0.00    -0.238 OA
ATOM     24  H   UNL     1       9.795  -6.574  25.275  0.00  0.00    +0.246 HD
ENDBRANCH  20  23
ENDBRANCH  18  20
ENDBRANCH   8  18
BRANCH   3  25
ATOM     25  O   UNL     1       9.034   4.344  23.340  0.00  0.00    -0.445 OA
BRANCH  25  26
ATOM     26  C   UNL     1       9.366   5.600  24.010  0.00  0.00    +0.107 C 
ATOM     27  C   UNL     1       8.987   5.565  25.501  0.00  0.00    +0.055 C 
ATOM     28  C   UNL     1       8.514   6.698  23.351  0.00  0.00    +0.055 C 
ATOM     29  C   UNL     1      10.844   5.967  23.799  0.00  0.00    +0.055 C 
ENDBRANCH  25  26
ENDBRANCH   3  25
TORSDOF 6
ENDMDL
MODEL 8
REMARK VINA RESULT:      -6.3      2.779      3.775
REMARK  Name = 
REMARK  10 active torsions:
REMARK  status: ('A' for Active; 'I' for Inactive)
REMARK    1  A    between atoms: C_2  and  C_24
REMARK    2  A    between atoms: C_8  and  O_10
REMARK    3  A    between atoms: O_10  and  C_11
REMARK    4  A    between atoms: C_11  and  C_12
REMARK    5  A    between atoms: C_11  and  C_13
REMARK    6  A    between atoms: C_11  and  C_14
REMARK    7  A    between atoms: C_16  and  N_17
REMARK    8  A    between atoms: N_17  and  S_18
REMARK    9  A    between atoms: S_18  and  O_19
REMARK   10  A    between atoms: N_26  and  C_27
REMARK                            x       y       z     vdW  Elec       q    Type
REMARK                         _______ _______ _______ _____ _____    ______ ____
ROOT
ATOM      1  C   UNL     1       8.357  -1.602  25.051  0.00  0.00    +0.170 C 
ATOM      2  N   UNL     1       7.659  -1.048  23.874  0.00  0.00    -0.251 N 
ATOM      3  C   UNL     1       7.670   0.268  23.468  0.00  0.00    +0.404 C 
ATOM      4  O   UNL     1       6.960   0.665  22.557  0.00  0.00    -0.226 OA
ATOM      5  C   UNL     1       6.708  -1.936  23.223  0.00  0.00    +0.147 C 
ATOM      6  C   UNL     1       5.885  -2.742  24.191  0.00  0.00    -0.025 A 
ATOM      7  C   UNL     1       4.815  -3.483  23.672  0.00  0.00    +0.030 A 
ATOM      8  C   UNL     1       3.995  -4.224  24.511  0.00  0.00    +0.050 A 
ATOM      9  C   UNL     1       4.248  -4.260  25.880  0.00  0.00    +0.025 A 
ATOM     10  C   UNL     1       5.328  -3.539  26.407  0.00  0.00    +0.006 A 
ATOM     11  C   UNL     1       6.163  -2.785  25.566  0.00  0.00    -0.040 A 
ATOM     12  C   UNL     1       7.320  -1.981  26.132  0.00  0.00    +0.067 C 
ENDROOT
BRANCH   1  13
ATOM     13  C   UNL     1       9.248  -2.831  24.712  0.00  0.00    +0.234 C 
ATOM     14  N   UNL     1       9.073  -3.918  25.544  0.00  0.00    -0.317 N 
ATOM     15  H   UNL     1       8.395  -3.844  26.292  0.00  0.00    +0.148 HD
ATOM     16  C   UNL     1       9.832  -5.138  25.407  0.00  0.00    +0.128 C 
ATOM     17  O   UNL     1       9.963  -2.875  23.712  0.00  0.00    -0.274 OA
ENDBRANCH   1  13
BRANCH   8  18
ATOM     18  N   UNL     1       2.918  -4.927  23.911  0.00  0.00    -0.197 N 
ATOM     19  H   UNL     1       2.016  -4.875  24.378  0.00  0.00    +0.176 HD
BRANCH  18  20
ATOM     20  S   UNL     1       3.215  -6.458  23.300  0.00  0.00    +0.164 S 
ATOM     21  O   UNL     1       2.011  -6.870  22.620  0.00  0.00    -0.127 OA
ATOM     22  O   UNL     1       3.827  -7.272  24.323  0.00  0.00    -0.127 OA
BRANCH  20  23
ATOM     23  O   UNL     1       4.353  -6.204  22.195  0.00  0.00    -0.238 OA
ATOM     24  H   UNL     1       5.198  -6.521  22.574  0.00  0.00    +0.246 HD
ENDBRANCH  20  23
ENDBRANCH  18  20
ENDBRANCH   8  18
BRANCH   3  25
ATOM     25  O   UNL     1       8.542   1.077  24.135  0.00  0.00    -0.445 OA
BRANCH  25  26
ATOM     26  C   UNL     1       9.850   1.322  23.532  0.00  0.00    +0.107 C 
ATOM     27  C   UNL     1      10.992   0.784  24.414  0.00  0.00    +0.055 C 
ATOM     28  C   UNL     1      10.025   2.847  23.445  0.00  0.00    +0.055 C 
ATOM     29  C   UNL     1       9.915   0.762  22.101  0.00  0.00    +0.055 C 
ENDBRANCH  25  26
ENDBRANCH   3  25
TORSDOF 6
ENDMDL
MODEL 9
REMARK VINA RESULT:      -6.1      3.851      7.724
REMARK  Name = 
REMARK  10 active torsions:
REMARK  status: ('A' for Active; 'I' for Inactive)
REMARK    1  A    between atoms: C_2  and  C_24
REMARK    2  A    between atoms: C_8  and  O_10
REMARK    3  A    between atoms: O_10  and  C_11
REMARK    4  A    between atoms: C_11  and  C_12
REMARK    5  A    between atoms: C_11  and  C_13
REMARK    6  A    between atoms: C_11  and  C_14
REMARK    7  A    between atoms: C_16  and  N_17
REMARK    8  A    between atoms: N_17  and  S_18
REMARK    9  A    between atoms: S_18  and  O_19
REMARK   10  A    between atoms: N_26  and  C_27
REMARK                            x       y       z     vdW  Elec       q    Type
REMARK                         _______ _______ _______ _____ _____    ______ ____
ROOT
ATOM      1  C   UNL     1       7.677  -2.315  25.153  0.00  0.00    +0.170 C 
ATOM      2  N   UNL     1       6.943  -2.026  23.904  0.00  0.00    -0.251 N 
ATOM      3  C   UNL     1       6.480  -2.955  23.000  0.00  0.00    +0.404 C 
ATOM      4  O   UNL     1       5.996  -2.623  21.928  0.00  0.00    -0.226 OA
ATOM      5  C   UNL     1       6.905  -0.629  23.499  0.00  0.00    +0.147 C 
ATOM      6  C   UNL     1       8.210   0.090  23.709  0.00  0.00    -0.025 A 
ATOM      7  C   UNL     1       8.333   1.380  23.177  0.00  0.00    +0.030 A 
ATOM      8  C   UNL     1       9.520   2.088  23.306  0.00  0.00    +0.050 A 
ATOM      9  C   UNL     1      10.594   1.528  23.994  0.00  0.00    +0.025 A 
ATOM     10  C   UNL     1      10.475   0.247  24.548  0.00  0.00    +0.006 A 
ATOM     11  C   UNL     1       9.279  -0.478  24.422  0.00  0.00    -0.040 A 
ATOM     12  C   UNL     1       9.150  -1.878  24.997  0.00  0.00    +0.067 C 
ENDROOT
BRANCH   1  13
ATOM     13  C   UNL     1       7.047  -1.636  26.403  0.00  0.00    +0.234 C 
ATOM     14  N   UNL     1       5.740  -1.996  26.659  0.00  0.00    -0.317 N 
ATOM     15  H   UNL     1       5.296  -2.660  26.036  0.00  0.00    +0.148 HD
ATOM     16  C   UNL     1       4.978  -1.448  27.755  0.00  0.00    +0.128 C 
ATOM     17  O   UNL     1       7.698  -0.929  27.170  0.00  0.00    -0.274 OA
ENDBRANCH   1  13
BRANCH   8  18
ATOM     18  N   UNL     1       9.572   3.379  22.719  0.00  0.00    -0.197 N 
ATOM     19  H   UNL     1      10.469   3.677  22.342  0.00  0.00    +0.176 HD
BRANCH  18  20
ATOM     20  S   UNL     1       8.772   4.632  23.489  0.00  0.00    +0.164 S 
ATOM     21  O   UNL     1       8.971   4.439  24.905  0.00  0.00    -0.127 OA
ATOM     22  O   UNL     1       7.454   4.779  22.921  0.00  0.00    -0.127 OA
BRANCH  20  23
ATOM     23  O   UNL     1       9.598   5.934  23.039  0.00  0.00    -0.238 OA
ATOM     24  H   UNL     1       8.953   6.665  22.947  0.00  0.00    +0.246 HD
ENDBRANCH  20  23
ENDBRANCH  18  20
ENDBRANCH   8  18
BRANCH   3  25
ATOM     25  O   UNL     1       6.576  -4.256  23.400  0.00  0.00    -0.445 OA
BRANCH  25  26
ATOM     26  C   UNL     1       5.362  -4.923  23.867  0.00  0.00    +0.107 C 
ATOM     27  C   UNL     1       4.226  -3.917  24.128  0.00  0.00    +0.055 C 
ATOM     28  C   UNL     1       5.703  -5.581  25.214  0.00  0.00    +0.055 C 
ATOM     29  C   UNL     1       4.934  -6.037  22.898  0.00  0.00    +0.055 C 
ENDBRANCH  25  26
ENDBRANCH   3  25
TORSDOF 6
ENDMDL
