MODEL 1
REMARK VINA RESULT:      -6.9      0.000      0.000
REMARK  Name = 
REMARK  10 active torsions:
REMARK  status: ('A' for Active; 'I' for Inactive)
REMARK    1  A    between atoms: C_1  and  N_2
REMARK    2  A    between atoms: C_3  and  C_5
REMARK    3  A    between atoms: C_6  and  C_25
REMARK    4  A    between atoms: C_10  and  N_11
REMARK    5  A    between atoms: N_11  and  C_12
REMARK    6  A    between atoms: N_11  and  S_15
REMARK    7  A    between atoms: C_12  and  C_13
REMARK    8  A    between atoms: C_13  and  O_14
REMARK    9  A    between atoms: S_15  and  C_16
REMARK   10  A    between atoms: C_19  and  C_22
REMARK                            x       y       z     vdW  Elec       q    Type
REMARK                         _______ _______ _______ _____ _____    ______ ____
ROOT
ATOM      1  C   UNL     1       7.435   1.003  25.473  0.00  0.00    +0.090 A 
ATOM      2  C   UNL     1       7.069  -0.357  25.192  0.00  0.00    +0.033 A 
ATOM      3  C   UNL     1       7.901  -0.789  24.177  0.00  0.00    +0.138 A 
ATOM      4  C   UNL     1       7.888  -2.082  23.648  0.00  0.00    +0.072 A 
ATOM      5  C   UNL     1       6.966  -3.003  24.190  0.00  0.00    +0.058 A 
ATOM      6  C   UNL     1       6.040  -2.602  25.190  0.00  0.00    -0.021 A 
ATOM      7  O   UNL     1       8.730   0.217  23.795  0.00  0.00    -0.454 OA
ATOM      8  C   UNL     1       6.138  -1.281  25.696  0.00  0.00    +0.018 A 
ATOM      9  C   UNL     1       8.447   1.315  24.569  0.00  0.00    +0.148 A 
ENDROOT
BRANCH   9  10
ATOM     10  C   UNL     1       9.207   2.519  24.229  0.00  0.00    +0.018 A 
ATOM     11  C   UNL     1      10.498   2.428  23.681  0.00  0.00    +0.014 A 
ATOM     12  C   UNL     1      11.242   3.578  23.395  0.00  0.00    +0.039 A 
ATOM     13  C   UNL     1      10.698   4.827  23.657  0.00  0.00    +0.123 A 
ATOM     14  F   UNL     1      11.416   5.928  23.400  0.00  0.00    -0.205 F 
ATOM     15  C   UNL     1       9.421   4.949  24.191  0.00  0.00    +0.039 A 
ATOM     16  C   UNL     1       8.678   3.797  24.476  0.00  0.00    +0.014 A 
ENDBRANCH   9  10
BRANCH   1  20
ATOM     17  C   UNL     1       7.051   2.507  28.877  0.00  0.00    +0.128 C 
ATOM     18  N   UNL     1       7.480   1.720  27.749  0.00  0.00    -0.314 N 
ATOM     19  H   UNL     1       8.046   0.901  27.922  0.00  0.00    +0.149 HD
ATOM     20  C   UNL     1       6.917   1.891  26.506  0.00  0.00    +0.248 C 
ATOM     21  O   UNL     1       6.026   2.710  26.293  0.00  0.00    -0.270 OA
ENDBRANCH   1  20
BRANCH   6  22
ATOM     22  C   UNL     1       4.895  -3.414  25.760  0.00  0.00    +0.021 C 
ATOM     23  C   UNL     1       3.576  -3.383  25.004  0.00  0.00    +0.009 C 
ATOM     24  C   UNL     1       3.657  -2.875  26.411  0.00  0.00    +0.009 C 
ENDBRANCH   6  22
BRANCH   5  25
ATOM     25  N   UNL     1       6.999  -4.373  23.720  0.00  0.00    -0.205 N 
BRANCH  25  26
ATOM     26  S   UNL     1       6.125  -4.754  22.298  0.00  0.00    +0.043 S 
ATOM     27  O   UNL     1       7.004  -5.399  21.347  0.00  0.00    -0.155 OA
ATOM     28  O   UNL     1       5.361  -3.580  21.919  0.00  0.00    -0.155 OA
ATOM     29  C   UNL     1       4.945  -5.979  22.855  0.00  0.00    +0.218 C 
ENDBRANCH  25  26
BRANCH  25  30
ATOM     30  C   UNL     1       8.210  -5.239  23.924  0.00  0.00    +0.159 C 
BRANCH  30  31
ATOM     31  C   UNL     1       8.827  -5.236  25.323  0.00  0.00    +0.176 C 
BRANCH  31  32
ATOM     32  O   UNL     1      10.200  -5.602  25.321  0.00  0.00    -0.393 OA
ATOM     33  H   UNL     1      10.484  -5.627  24.391  0.00  0.00    +0.209 HD
ENDBRANCH  31  32
ENDBRANCH  30  31
ENDBRANCH  25  30
ENDBRANCH   5  25
TORSDOF 8
ENDMDL
MODEL 2
REMARK VINA RESULT:      -6.3      1.612      1.909
REMARK  Name = 
REMARK  10 active torsions:
REMARK  status: ('A' for Active; 'I' for Inactive)
REMARK    1  A    between atoms: C_1  and  N_2
REMARK    2  A    between atoms: C_3  and  C_5
REMARK    3  A    between atoms: C_6  and  C_25
REMARK    4  A    between atoms: C_10  and  N_11
REMARK    5  A    between atoms: N_11  and  C_12
REMARK    6  A    between atoms: N_11  and  S_15
REMARK    7  A    between atoms: C_12  and  C_13
REMARK    8  A    between atoms: C_13  and  O_14
REMARK    9  A    between atoms: S_15  and  C_16
REMARK   10  A    between atoms: C_19  and  C_22
REMARK                            x       y       z     vdW  Elec       q    Type
REMARK                         _______ _______ _______ _____ _____    ______ ____
ROOT
ATOM      1  C   UNL     1       5.743   0.950  25.122  0.00  0.00    +0.090 A 
ATOM      2  C   UNL     1       5.732  -0.475  24.948  0.00  0.00    +0.033 A 
ATOM      3  C   UNL     1       6.751  -0.774  24.063  0.00  0.00    +0.138 A 
ATOM      4  C   UNL     1       7.094  -2.070  23.669  0.00  0.00    +0.072 A 
ATOM      5  C   UNL     1       6.351  -3.139  24.214  0.00  0.00    +0.058 A 
ATOM      6  C   UNL     1       5.250  -2.893  25.078  0.00  0.00    -0.021 A 
ATOM      7  O   UNL     1       7.366   0.368  23.660  0.00  0.00    -0.454 OA
ATOM      8  C   UNL     1       4.985  -1.552  25.454  0.00  0.00    +0.018 A 
ATOM      9  C   UNL     1       6.754   1.423  24.289  0.00  0.00    +0.148 A 
ENDROOT
BRANCH   9  10
ATOM     10  C   UNL     1       7.252   2.744  23.900  0.00  0.00    +0.018 A 
ATOM     11  C   UNL     1       6.736   3.409  22.776  0.00  0.00    +0.014 A 
ATOM     12  C   UNL     1       7.240   4.652  22.379  0.00  0.00    +0.039 A 
ATOM     13  C   UNL     1       8.266   5.237  23.106  0.00  0.00    +0.123 A 
ATOM     14  F   UNL     1       8.761   6.419  22.718  0.00  0.00    -0.205 F 
ATOM     15  C   UNL     1       8.791   4.608  24.228  0.00  0.00    +0.039 A 
ATOM     16  C   UNL     1       8.285   3.365  24.623  0.00  0.00    +0.014 A 
ENDBRANCH   9  10
BRANCH   1  20
ATOM     17  C   UNL     1       4.900   3.094  28.070  0.00  0.00    +0.128 C 
ATOM     18  N   UNL     1       5.586   2.288  27.092  0.00  0.00    -0.314 N 
ATOM     19  H   UNL     1       6.505   1.937  27.318  0.00  0.00    +0.149 HD
ATOM     20  C   UNL     1       4.922   1.766  26.006  0.00  0.00    +0.248 C 
ATOM     21  O   UNL     1       3.722   1.952  25.816  0.00  0.00    -0.270 OA
ENDBRANCH   1  20
BRANCH   6  22
ATOM     22  C   UNL     1       4.263  -3.908  25.619  0.00  0.00    +0.021 C 
ATOM     23  C   UNL     1       2.950  -4.069  24.869  0.00  0.00    +0.009 C 
ATOM     24  C   UNL     1       2.959  -3.611  26.296  0.00  0.00    +0.009 C 
ENDBRANCH   6  22
BRANCH   5  25
ATOM     25  N   UNL     1       6.750  -4.494  23.891  0.00  0.00    -0.205 N 
BRANCH  25  26
ATOM     26  S   UNL     1       5.845  -5.334  22.704  0.00  0.00    +0.043 S 
ATOM     27  O   UNL     1       5.054  -4.392  21.942  0.00  0.00    -0.155 OA
ATOM     28  O   UNL     1       5.220  -6.474  23.347  0.00  0.00    -0.155 OA
ATOM     29  C   UNL     1       7.104  -5.985  21.611  0.00  0.00    +0.218 C 
ENDBRANCH  25  26
BRANCH  25  30
ATOM     30  C   UNL     1       8.189  -4.919  23.954  0.00  0.00    +0.159 C 
BRANCH  30  31
ATOM     31  C   UNL     1       8.774  -5.153  25.347  0.00  0.00    +0.176 C 
BRANCH  31  32
ATOM     32  O   UNL     1      10.090  -5.686  25.311  0.00  0.00    -0.393 OA
ATOM     33  H   UNL     1      10.068  -6.525  25.804  0.00  0.00    +0.209 HD
ENDBRANCH  31  32
ENDBRANCH  30  31
ENDBRANCH  25  30
ENDBRANCH   5  25
TORSDOF 8
ENDMDL
MODEL 3
REMARK VINA RESULT:      -6.3      2.878      4.348
REMARK  Name = 
REMARK  10 active torsions:
REMARK  status: ('A' for Active; 'I' for Inactive)
REMARK    1  A    between atoms: C_1  and  N_2
REMARK    2  A    between atoms: C_3  and  C_5
REMARK    3  A    between atoms: C_6  and  C_25
REMARK    4  A    between atoms: C_10  and  N_11
REMARK    5  A    between atoms: N_11  and  C_12
REMARK    6  A    between atoms: N_11  and  S_15
REMARK    7  A    between atoms: C_12  and  C_13
REMARK    8  A    between atoms: C_13  and  O_14
REMARK    9  A    between atoms: S_15  and  C_16
REMARK   10  A    between atoms: C_19  and  C_22
REMARK                            x       y       z     vdW  Elec       q    Type
REMARK                         _______ _______ _______ _____ _____    ______ ____
ROOT
ATOM      1  C   UNL     1       7.784  -0.139  23.936  0.00  0.00    +0.090 A 
ATOM      2  C   UNL     1       7.340  -1.452  24.314  0.00  0.00    +0.033 A 
ATOM      3  C   UNL     1       5.975  -1.366  24.511  0.00  0.00    +0.138 A 
ATOM      4  C   UNL     1       5.162  -2.451  24.849  0.00  0.00    +0.072 A 
ATOM      5  C   UNL     1       5.777  -3.712  24.995  0.00  0.00    +0.058 A 
ATOM      6  C   UNL     1       7.185  -3.852  24.869  0.00  0.00    -0.021 A 
ATOM      7  O   UNL     1       5.555  -0.090  24.309  0.00  0.00    -0.454 OA
ATOM      8  C   UNL     1       7.938  -2.710  24.495  0.00  0.00    +0.018 A 
ATOM      9  C   UNL     1       6.648   0.667  23.971  0.00  0.00    +0.148 A 
ENDROOT
BRANCH   9  10
ATOM     10  C   UNL     1       6.377   2.095  23.794  0.00  0.00    +0.018 A 
ATOM     11  C   UNL     1       6.801   2.773  22.638  0.00  0.00    +0.014 A 
ATOM     12  C   UNL     1       6.580   4.145  22.486  0.00  0.00    +0.039 A 
ATOM     13  C   UNL     1       5.933   4.849  23.491  0.00  0.00    +0.123 A 
ATOM     14  F   UNL     1       5.736   6.166  23.355  0.00  0.00    -0.205 F 
ATOM     15  C   UNL     1       5.493   4.204  24.641  0.00  0.00    +0.039 A 
ATOM     16  C   UNL     1       5.716   2.831  24.791  0.00  0.00    +0.014 A 
ENDBRANCH   9  10
BRANCH   1  20
ATOM     17  C   UNL     1      11.286   1.108  24.360  0.00  0.00    +0.128 C 
ATOM     18  N   UNL     1       9.944   0.636  24.592  0.00  0.00    -0.314 N 
ATOM     19  H   UNL     1       9.544   0.756  25.511  0.00  0.00    +0.149 HD
ATOM     20  C   UNL     1       9.119   0.294  23.545  0.00  0.00    +0.248 C 
ATOM     21  O   UNL     1       9.474   0.376  22.372  0.00  0.00    -0.270 OA
ENDBRANCH   1  20
BRANCH   6  22
ATOM     22  C   UNL     1       8.014  -5.091  25.147  0.00  0.00    +0.021 C 
ATOM     23  C   UNL     1       8.599  -5.238  26.542  0.00  0.00    +0.009 C 
ATOM     24  C   UNL     1       9.498  -5.145  25.346  0.00  0.00    +0.009 C 
ENDBRANCH   6  22
BRANCH   5  25
ATOM     25  N   UNL     1       4.940  -4.865  25.253  0.00  0.00    -0.205 N 
BRANCH  25  26
ATOM     26  S   UNL     1       4.826  -5.428  26.867  0.00  0.00    +0.043 S 
ATOM     27  O   UNL     1       5.311  -4.408  27.770  0.00  0.00    -0.155 OA
ATOM     28  O   UNL     1       5.373  -6.772  26.907  0.00  0.00    -0.155 OA
ATOM     29  C   UNL     1       3.062  -5.582  27.126  0.00  0.00    +0.218 C 
ENDBRANCH  25  26
BRANCH  25  30
ATOM     30  C   UNL     1       3.702  -5.128  24.443  0.00  0.00    +0.159 C 
BRANCH  30  31
ATOM     31  C   UNL     1       3.779  -6.262  23.421  0.00  0.00    +0.176 C 
BRANCH  31  32
ATOM     32  O   UNL     1       4.329  -7.456  23.960  0.00  0.00    -0.393 OA
ATOM     33  H   UNL     1       5.184  -7.217  24.360  0.00  0.00    +0.209 HD
ENDBRANCH  31  32
ENDBRANCH  30  31
ENDBRANCH  25  30
ENDBRANCH   5  25
TORSDOF 8
ENDMDL
MODEL 4
REMARK VINA RESULT:      -6.2      3.803      8.350
REMARK  Name = 
REMARK  10 active torsions:
REMARK  status: ('A' for Active; 'I' for Inactive)
REMARK    1  A    between atoms: C_1  and  N_2
REMARK    2  A    between atoms: C_3  and  C_5
REMARK    3  A    between atoms: C_6  and  C_25
REMARK    4  A    between atoms: C_10  and  N_11
REMARK    5  A    between atoms: N_11  and  C_12
REMARK    6  A    between atoms: N_11  and  S_15
REMARK    7  A    between atoms: C_12  and  C_13
REMARK    8  A    between atoms: C_13  and  O_14
REMARK    9  A    between atoms: S_15  and  C_16
REMARK   10  A    between atoms: C_19  and  C_22
REMARK                            x       y       z     vdW  Elec       q    Type
REMARK                         _______ _______ _______ _____ _____    ______ ____
ROOT
ATOM      1  C   UNL     1       7.830  -2.342  24.368  0.00  0.00    +0.090 A 
ATOM      2  C   UNL     1       7.852  -0.906  24.327  0.00  0.00    +0.033 A 
ATOM      3  C   UNL     1       6.533  -0.491  24.310  0.00  0.00    +0.138 A 
ATOM      4  C   UNL     1       6.132   0.847  24.315  0.00  0.00    +0.072 A 
ATOM      5  C   UNL     1       7.140   1.834  24.339  0.00  0.00    +0.058 A 
ATOM      6  C   UNL     1       8.513   1.472  24.291  0.00  0.00    -0.021 A 
ATOM      7  O   UNL     1       5.706  -1.569  24.309  0.00  0.00    -0.454 OA
ATOM      8  C   UNL     1       8.839   0.093  24.320  0.00  0.00    +0.018 A 
ATOM      9  C   UNL     1       6.485  -2.699  24.333  0.00  0.00    +0.148 A 
ENDROOT
BRANCH   9  10
ATOM     10  C   UNL     1       5.742  -3.959  24.256  0.00  0.00    +0.018 A 
ATOM     11  C   UNL     1       5.112  -4.496  25.392  0.00  0.00    +0.014 A 
ATOM     12  C   UNL     1       4.438  -5.720  25.331  0.00  0.00    +0.039 A 
ATOM     13  C   UNL     1       4.392  -6.416  24.131  0.00  0.00    +0.123 A 
ATOM     14  F   UNL     1       3.762  -7.596  24.075  0.00  0.00    -0.205 F 
ATOM     15  C   UNL     1       4.997  -5.906  22.989  0.00  0.00    +0.039 A 
ATOM     16  C   UNL     1       5.671  -4.681  23.053  0.00  0.00    +0.014 A 
ENDBRANCH   9  10
BRANCH   1  20
ATOM     17  C   UNL     1       9.838  -5.220  25.664  0.00  0.00    +0.128 C 
ATOM     18  N   UNL     1       8.802  -4.248  25.425  0.00  0.00    -0.314 N 
ATOM     19  H   UNL     1       8.057  -4.164  26.102  0.00  0.00    +0.149 HD
ATOM     20  C   UNL     1       8.951  -3.267  24.473  0.00  0.00    +0.248 C 
ATOM     21  O   UNL     1       9.965  -3.164  23.786  0.00  0.00    -0.270 OA
ENDBRANCH   1  20
BRANCH   6  22
ATOM     22  C   UNL     1       9.703   2.400  24.154  0.00  0.00    +0.021 C 
ATOM     23  C   UNL     1      10.240   2.640  22.752  0.00  0.00    +0.009 C 
ATOM     24  C   UNL     1      11.105   2.007  23.799  0.00  0.00    +0.009 C 
ENDBRANCH   6  22
BRANCH   5  25
ATOM     25  N   UNL     1       6.744   3.224  24.437  0.00  0.00    -0.205 N 
BRANCH  25  26
ATOM     26  S   UNL     1       6.341   4.047  22.990  0.00  0.00    +0.043 S 
ATOM     27  O   UNL     1       4.985   4.544  23.078  0.00  0.00    -0.155 OA
ATOM     28  O   UNL     1       6.751   3.212  21.877  0.00  0.00    -0.155 OA
ATOM     29  C   UNL     1       7.435   5.463  23.002  0.00  0.00    +0.218 C 
ENDBRANCH  25  26
BRANCH  25  30
ATOM     30  C   UNL     1       6.012   3.744  25.641  0.00  0.00    +0.159 C 
BRANCH  30  31
ATOM     31  C   UNL     1       6.869   4.192  26.826  0.00  0.00    +0.176 C 
BRANCH  31  32
ATOM     32  O   UNL     1       7.495   3.107  27.496  0.00  0.00    -0.393 OA
ATOM     33  H   UNL     1       8.369   3.422  27.787  0.00  0.00    +0.209 HD
ENDBRANCH  31  32
ENDBRANCH  30  31
ENDBRANCH  25  30
ENDBRANCH   5  25
TORSDOF 8
ENDMDL
MODEL 5
REMARK VINA RESULT:      -6.1      2.026      2.983
REMARK  Name = 
REMARK  10 active torsions:
REMARK  status: ('A' for Active; 'I' for Inactive)
REMARK    1  A    between atoms: C_1  and  N_2
REMARK    2  A    between atoms: C_3  and  C_5
REMARK    3  A    between atoms: C_6  and  C_25
REMARK    4  A    between atoms: C_10  and  N_11
REMARK    5  A    between atoms: N_11  and  C_12
REMARK    6  A    between atoms: N_11  and  S_15
REMARK    7  A    between atoms: C_12  and  C_13
REMARK    8  A    between atoms: C_13  and  O_14
REMARK    9  A    between atoms: S_15  and  C_16
REMARK   10  A    between atoms: C_19  and  C_22
REMARK                            x       y       z     vdW  Elec       q    Type
REMARK                         _______ _______ _______ _____ _____    ______ ____
ROOT
ATOM      1  C   UNL     1       6.048   1.022  24.549  0.00  0.00    +0.090 A 
ATOM      2  C   UNL     1       6.209  -0.402  24.464  0.00  0.00    +0.033 A 
ATOM      3  C   UNL     1       7.469  -0.628  23.944  0.00  0.00    +0.138 A 
ATOM      4  C   UNL     1       8.022  -1.896  23.748  0.00  0.00    +0.072 A 
ATOM      5  C   UNL     1       7.241  -3.015  24.108  0.00  0.00    +0.058 A 
ATOM      6  C   UNL     1       5.914  -2.851  24.587  0.00  0.00    -0.021 A 
ATOM      7  O   UNL     1       8.081   0.556  23.677  0.00  0.00    -0.454 OA
ATOM      8  C   UNL     1       5.436  -1.530  24.787  0.00  0.00    +0.018 A 
ATOM      9  C   UNL     1       7.221   1.565  24.030  0.00  0.00    +0.148 A 
ENDROOT
BRANCH   9  10
ATOM     10  C   UNL     1       7.701   2.916  23.732  0.00  0.00    +0.018 A 
ATOM     11  C   UNL     1       8.708   3.513  24.510  0.00  0.00    +0.014 A 
ATOM     12  C   UNL     1       9.139   4.818  24.252  0.00  0.00    +0.039 A 
ATOM     13  C   UNL     1       8.563   5.535  23.213  0.00  0.00    +0.123 A 
ATOM     14  F   UNL     1       8.963   6.791  22.976  0.00  0.00    -0.205 F 
ATOM     15  C   UNL     1       7.573   4.968  22.420  0.00  0.00    +0.039 A 
ATOM     16  C   UNL     1       7.144   3.662  22.680  0.00  0.00    +0.014 A 
ENDBRANCH   9  10
BRANCH   1  20
ATOM     17  C   UNL     1       3.052   3.263  24.557  0.00  0.00    +0.128 C 
ATOM     18  N   UNL     1       4.173   2.449  24.164  0.00  0.00    -0.314 N 
ATOM     19  H   UNL     1       4.525   2.538  23.221  0.00  0.00    +0.149 HD
ATOM     20  C   UNL     1       4.932   1.782  25.098  0.00  0.00    +0.248 C 
ATOM     21  O   UNL     1       4.700   1.847  26.303  0.00  0.00    -0.270 OA
ENDBRANCH   1  20
BRANCH   6  22
ATOM     22  C   UNL     1       4.897  -3.939  24.867  0.00  0.00    +0.021 C 
ATOM     23  C   UNL     1       3.906  -4.266  23.761  0.00  0.00    +0.009 C 
ATOM     24  C   UNL     1       3.426  -3.751  25.083  0.00  0.00    +0.009 C 
ENDBRANCH   6  22
BRANCH   5  25
ATOM     25  N   UNL     1       7.830  -4.334  24.000  0.00  0.00    -0.205 N 
BRANCH  25  26
ATOM     26  S   UNL     1       8.515  -5.023  25.410  0.00  0.00    +0.043 S 
ATOM     27  O   UNL     1       9.845  -5.509  25.114  0.00  0.00    -0.155 OA
ATOM     28  O   UNL     1       7.523  -5.901  26.001  0.00  0.00    -0.155 OA
ATOM     29  C   UNL     1       8.686  -3.624  26.512  0.00  0.00    +0.218 C 
ENDBRANCH  25  26
BRANCH  25  30
ATOM     30  C   UNL     1       7.287  -5.355  23.042  0.00  0.00    +0.159 C 
BRANCH  30  31
ATOM     31  C   UNL     1       6.915  -4.855  21.645  0.00  0.00    +0.176 C 
BRANCH  31  32
ATOM     32  O   UNL     1       5.811  -5.551  21.086  0.00  0.00    -0.393 OA
ATOM     33  H   UNL     1       6.045  -5.759  20.164  0.00  0.00    +0.209 HD
ENDBRANCH  31  32
ENDBRANCH  30  31
ENDBRANCH  25  30
ENDBRANCH   5  25
TORSDOF 8
ENDMDL
MODEL 6
REMARK VINA RESULT:      -5.9      3.422      5.213
REMARK  Name = 
REMARK  10 active torsions:
REMARK  status: ('A' for Active; 'I' for Inactive)
REMARK    1  A    between atoms: C_1  and  N_2
REMARK    2  A    between atoms: C_3  and  C_5
REMARK    3  A    between atoms: C_6  and  C_25
REMARK    4  A    between atoms: C_10  and  N_11
REMARK    5  A    between atoms: N_11  and  C_12
REMARK    6  A    between atoms: N_11  and  S_15
REMARK    7  A    between atoms: C_12  and  C_13
REMARK    8  A    between atoms: C_13  and  O_14
REMARK    9  A    between atoms: S_15  and  C_16
REMARK   10  A    between atoms: C_19  and  C_22
REMARK                            x       y       z     vdW  Elec       q    Type
REMARK                         _______ _______ _______ _____ _____    ______ ____
ROOT
ATOM      1  C   UNL     1       6.380  -0.926  24.318  0.00  0.00    +0.090 A 
ATOM      2  C   UNL     1       5.790  -2.215  24.090  0.00  0.00    +0.033 A 
ATOM      3  C   UNL     1       4.944  -2.458  25.156  0.00  0.00    +0.138 A 
ATOM      4  C   UNL     1       4.147  -3.598  25.282  0.00  0.00    +0.072 A 
ATOM      5  C   UNL     1       4.210  -4.559  24.251  0.00  0.00    +0.058 A 
ATOM      6  C   UNL     1       5.107  -4.399  23.162  0.00  0.00    -0.021 A 
ATOM      7  O   UNL     1       4.996  -1.423  26.036  0.00  0.00    -0.454 OA
ATOM      8  C   UNL     1       5.861  -3.199  23.090  0.00  0.00    +0.018 A 
ATOM      9  C   UNL     1       5.875  -0.492  25.542  0.00  0.00    +0.148 A 
ENDROOT
BRANCH   9  10
ATOM     10  C   UNL     1       6.106   0.660  26.415  0.00  0.00    +0.018 A 
ATOM     11  C   UNL     1       6.721   0.505  27.669  0.00  0.00    +0.014 A 
ATOM     12  C   UNL     1       6.904   1.598  28.522  0.00  0.00    +0.039 A 
ATOM     13  C   UNL     1       6.471   2.855  28.126  0.00  0.00    +0.123 A 
ATOM     14  F   UNL     1       6.630   3.899  28.949  0.00  0.00    -0.205 F 
ATOM     15  C   UNL     1       5.868   3.041  26.888  0.00  0.00    +0.039 A 
ATOM     16  C   UNL     1       5.686   1.947  26.036  0.00  0.00    +0.014 A 
ENDBRANCH   9  10
BRANCH   1  20
ATOM     17  C   UNL     1       7.454   1.674  21.851  0.00  0.00    +0.128 C 
ATOM     18  N   UNL     1       6.693   0.856  22.762  0.00  0.00    -0.314 N 
ATOM     19  H   UNL     1       5.685   0.909  22.728  0.00  0.00    +0.149 HD
ATOM     20  C   UNL     1       7.284  -0.173  23.459  0.00  0.00    +0.248 C 
ATOM     21  O   UNL     1       8.475  -0.450  23.341  0.00  0.00    -0.270 OA
ENDBRANCH   1  20
BRANCH   6  22
ATOM     22  C   UNL     1       5.410  -5.400  22.065  0.00  0.00    +0.021 C 
ATOM     23  C   UNL     1       6.494  -6.429  22.341  0.00  0.00    +0.009 C 
ATOM     24  C   UNL     1       6.644  -5.450  21.217  0.00  0.00    +0.009 C 
ENDBRANCH   6  22
BRANCH   5  25
ATOM     25  N   UNL     1       3.323  -5.703  24.316  0.00  0.00    -0.205 N 
BRANCH  25  26
ATOM     26  S   UNL     1       3.716  -6.960  25.411  0.00  0.00    +0.043 S 
ATOM     27  O   UNL     1       5.059  -6.764  25.911  0.00  0.00    -0.155 OA
ATOM     28  O   UNL     1       3.332  -8.218  24.798  0.00  0.00    -0.155 OA
ATOM     29  C   UNL     1       2.590  -6.687  26.774  0.00  0.00    +0.218 C 
ENDBRANCH  25  26
BRANCH  25  30
ATOM     30  C   UNL     1       1.847  -5.560  24.080  0.00  0.00    +0.159 C 
BRANCH  30  31
ATOM     31  C   UNL     1       1.237  -6.446  22.993  0.00  0.00    +0.176 C 
BRANCH  31  32
ATOM     32  O   UNL     1       2.215  -7.160  22.250  0.00  0.00    -0.393 OA
ATOM     33  H   UNL     1       1.921  -8.087  22.215  0.00  0.00    +0.209 HD
ENDBRANCH  31  32
ENDBRANCH  30  31
ENDBRANCH  25  30
ENDBRANCH   5  25
TORSDOF 8
ENDMDL
MODEL 7
REMARK VINA RESULT:      -5.9      3.898      8.590
REMARK  Name = 
REMARK  10 active torsions:
REMARK  status: ('A' for Active; 'I' for Inactive)
REMARK    1  A    between atoms: C_1  and  N_2
REMARK    2  A    between atoms: C_3  and  C_5
REMARK    3  A    between atoms: C_6  and  C_25
REMARK    4  A    between atoms: C_10  and  N_11
REMARK    5  A    between atoms: N_11  and  C_12
REMARK    6  A    between atoms: N_11  and  S_15
REMARK    7  A    between atoms: C_12  and  C_13
REMARK    8  A    between atoms: C_13  and  O_14
REMARK    9  A    between atoms: S_15  and  C_16
REMARK   10  A    between atoms: C_19  and  C_22
REMARK                            x       y       z     vdW  Elec       q    Type
REMARK                         _______ _______ _______ _____ _____    ______ ____
ROOT
ATOM      1  C   UNL     1       7.329  -2.454  24.503  0.00  0.00    +0.090 A 
ATOM      2  C   UNL     1       7.404  -1.022  24.578  0.00  0.00    +0.033 A 
ATOM      3  C   UNL     1       6.108  -0.565  24.727  0.00  0.00    +0.138 A 
ATOM      4  C   UNL     1       5.763   0.780  24.882  0.00  0.00    +0.072 A 
ATOM      5  C   UNL     1       6.807   1.729  24.888  0.00  0.00    +0.058 A 
ATOM      6  C   UNL     1       8.153   1.329  24.673  0.00  0.00    -0.021 A 
ATOM      7  O   UNL     1       5.242  -1.612  24.720  0.00  0.00    -0.454 OA
ATOM      8  C   UNL     1       8.426  -0.058  24.556  0.00  0.00    +0.018 A 
ATOM      9  C   UNL     1       5.973  -2.764  24.572  0.00  0.00    +0.148 A 
ENDROOT
BRANCH   9  10
ATOM     10  C   UNL     1       5.177  -3.988  24.466  0.00  0.00    +0.018 A 
ATOM     11  C   UNL     1       5.101  -4.895  25.537  0.00  0.00    +0.014 A 
ATOM     12  C   UNL     1       4.375  -6.085  25.423  0.00  0.00    +0.039 A 
ATOM     13  C   UNL     1       3.721  -6.376  24.235  0.00  0.00    +0.123 A 
ATOM     14  F   UNL     1       3.040  -7.523  24.119  0.00  0.00    -0.205 F 
ATOM     15  C   UNL     1       3.770  -5.495  23.162  0.00  0.00    +0.039 A 
ATOM     16  C   UNL     1       4.497  -4.304  23.279  0.00  0.00    +0.014 A 
ENDBRANCH   9  10
BRANCH   1  20
ATOM     17  C   UNL     1       9.704  -5.107  25.651  0.00  0.00    +0.128 C 
ATOM     18  N   UNL     1       8.644  -4.134  25.572  0.00  0.00    -0.314 N 
ATOM     19  H   UNL     1       8.207  -3.830  26.430  0.00  0.00    +0.149 HD
ATOM     20  C   UNL     1       8.417  -3.420  24.419  0.00  0.00    +0.248 C 
ATOM     21  O   UNL     1       9.099  -3.567  23.407  0.00  0.00    -0.270 OA
ENDBRANCH   1  20
BRANCH   6  22
ATOM     22  C   UNL     1       9.362   2.227  24.496  0.00  0.00    +0.021 C 
ATOM     23  C   UNL     1       9.744   2.605  23.074  0.00  0.00    +0.009 C 
ATOM     24  C   UNL     1      10.693   1.830  23.935  0.00  0.00    +0.009 C 
ENDBRANCH   6  22
BRANCH   5  25
ATOM     25  N   UNL     1       6.480   3.117  25.139  0.00  0.00    -0.205 N 
BRANCH  25  26
ATOM     26  S   UNL     1       6.911   3.780  26.659  0.00  0.00    +0.043 S 
ATOM     27  O   UNL     1       7.998   4.719  26.486  0.00  0.00    -0.155 OA
ATOM     28  O   UNL     1       7.023   2.685  27.604  0.00  0.00    -0.155 OA
ATOM     29  C   UNL     1       5.459   4.717  27.126  0.00  0.00    +0.218 C 
ENDBRANCH  25  26
BRANCH  25  30
ATOM     30  C   UNL     1       6.469   4.130  24.030  0.00  0.00    +0.159 C 
BRANCH  30  31
ATOM     31  C   UNL     1       6.095   3.619  22.638  0.00  0.00    +0.176 C 
BRANCH  31  32
ATOM     32  O   UNL     1       4.952   4.269  22.100  0.00  0.00    -0.393 OA
ATOM     33  H   UNL     1       4.339   4.421  22.841  0.00  0.00    +0.209 HD
ENDBRANCH  31  32
ENDBRANCH  30  31
ENDBRANCH  25  30
ENDBRANCH   5  25
TORSDOF 8
ENDMDL
MODEL 8
REMARK VINA RESULT:      -5.9      2.936      4.064
REMARK  Name = 
REMARK  10 active torsions:
REMARK  status: ('A' for Active; 'I' for Inactive)
REMARK    1  A    between atoms: C_1  and  N_2
REMARK    2  A    between atoms: C_3  and  C_5
REMARK    3  A    between atoms: C_6  and  C_25
REMARK    4  A    between atoms: C_10  and  N_11
REMARK    5  A    between atoms: N_11  and  C_12
REMARK    6  A    between atoms: N_11  and  S_15
REMARK    7  A    between atoms: C_12  and  C_13
REMARK    8  A    between atoms: C_13  and  O_14
REMARK    9  A    between atoms: S_15  and  C_16
REMARK   10  A    between atoms: C_19  and  C_22
REMARK                            x       y       z     vdW  Elec       q    Type
REMARK                         _______ _______ _______ _____ _____    ______ ____
ROOT
ATOM      1  C   UNL     1       5.989  -0.282  25.102  0.00  0.00    +0.090 A 
ATOM      2  C   UNL     1       5.488  -1.552  25.549  0.00  0.00    +0.033 A 
ATOM      3  C   UNL     1       6.456  -2.490  25.240  0.00  0.00    +0.138 A 
ATOM      4  C   UNL     1       6.363  -3.847  25.556  0.00  0.00    +0.072 A 
ATOM      5  C   UNL     1       5.206  -4.284  26.235  0.00  0.00    +0.058 A 
ATOM      6  C   UNL     1       4.147  -3.382  26.523  0.00  0.00    -0.021 A 
ATOM      7  O   UNL     1       7.500  -1.890  24.610  0.00  0.00    -0.454 OA
ATOM      8  C   UNL     1       4.332  -2.014  26.198  0.00  0.00    +0.018 A 
ATOM      9  C   UNL     1       7.221  -0.550  24.511  0.00  0.00    +0.148 A 
ENDROOT
BRANCH   9  10
ATOM     10  C   UNL     1       8.221   0.234  23.782  0.00  0.00    +0.018 A 
ATOM     11  C   UNL     1       9.173   1.007  24.468  0.00  0.00    +0.014 A 
ATOM     12  C   UNL     1      10.101   1.789  23.774  0.00  0.00    +0.039 A 
ATOM     13  C   UNL     1      10.082   1.803  22.387  0.00  0.00    +0.123 A 
ATOM     14  F   UNL     1      10.959   2.565  21.721  0.00  0.00    -0.205 F 
ATOM     15  C   UNL     1       9.159   1.042  21.681  0.00  0.00    +0.039 A 
ATOM     16  C   UNL     1       8.231   0.260  22.378  0.00  0.00    +0.014 A 
ENDBRANCH   9  10
BRANCH   1  20
ATOM     17  C   UNL     1       4.556   3.015  24.066  0.00  0.00    +0.128 C 
ATOM     18  N   UNL     1       5.123   1.690  24.075  0.00  0.00    -0.314 N 
ATOM     19  H   UNL     1       5.515   1.330  23.217  0.00  0.00    +0.149 HD
ATOM     20  C   UNL     1       5.391   1.037  25.256  0.00  0.00    +0.248 C 
ATOM     21  O   UNL     1       5.169   1.543  26.353  0.00  0.00    -0.270 OA
ENDBRANCH   1  20
BRANCH   6  22
ATOM     22  C   UNL     1       2.786  -3.716  27.100  0.00  0.00    +0.021 C 
ATOM     23  C   UNL     1       1.609  -3.738  26.137  0.00  0.00    +0.009 C 
ATOM     24  C   UNL     1       1.637  -2.771  27.281  0.00  0.00    +0.009 C 
ENDBRANCH   6  22
BRANCH   5  25
ATOM     25  N   UNL     1       5.131  -5.669  26.654  0.00  0.00    -0.205 N 
BRANCH  25  26
ATOM     26  S   UNL     1       5.966  -6.122  28.079  0.00  0.00    +0.043 S 
ATOM     27  O   UNL     1       7.378  -5.856  27.918  0.00  0.00    -0.155 OA
ATOM     28  O   UNL     1       5.501  -7.442  28.464  0.00  0.00    -0.155 OA
ATOM     29  C   UNL     1       5.339  -4.978  29.304  0.00  0.00    +0.218 C 
ENDBRANCH  25  26
BRANCH  25  30
ATOM     30  C   UNL     1       3.905  -6.498  26.393  0.00  0.00    +0.159 C 
BRANCH  30  31
ATOM     31  C   UNL     1       3.874  -7.283  25.081  0.00  0.00    +0.176 C 
BRANCH  31  32
ATOM     32  O   UNL     1       3.087  -8.463  25.163  0.00  0.00    -0.393 OA
ATOM     33  H   UNL     1       2.162  -8.179  25.262  0.00  0.00    +0.209 HD
ENDBRANCH  31  32
ENDBRANCH  30  31
ENDBRANCH  25  30
ENDBRANCH   5  25
TORSDOF 8
ENDMDL
MODEL 9
REMARK VINA RESULT:      -5.8      2.723      4.070
REMARK  Name = 
REMARK  10 active torsions:
REMARK  status: ('A' for Active; 'I' for Inactive)
REMARK    1  A    between atoms: C_1  and  N_2
REMARK    2  A    between atoms: C_3  and  C_5
REMARK    3  A    between atoms: C_6  and  C_25
REMARK    4  A    between atoms: C_10  and  N_11
REMARK    5  A    between atoms: N_11  and  C_12
REMARK    6  A    between atoms: N_11  and  S_15
REMARK    7  A    between atoms: C_12  and  C_13
REMARK    8  A    between atoms: C_13  and  O_14
REMARK    9  A    between atoms: S_15  and  C_16
REMARK   10  A    between atoms: C_19  and  C_22
REMARK                            x       y       z     vdW  Elec       q    Type
REMARK                         _______ _______ _______ _____ _____    ______ ____
ROOT
ATOM      1  C   UNL     1       7.897  -0.234  23.871  0.00  0.00    +0.090 A 
ATOM      2  C   UNL     1       7.343  -1.513  24.217  0.00  0.00    +0.033 A 
ATOM      3  C   UNL     1       5.977  -1.335  24.332  0.00  0.00    +0.138 A 
ATOM      4  C   UNL     1       5.073  -2.361  24.617  0.00  0.00    +0.072 A 
ATOM      5  C   UNL     1       5.591  -3.661  24.795  0.00  0.00    +0.058 A 
ATOM      6  C   UNL     1       6.991  -3.897  24.754  0.00  0.00    -0.021 A 
ATOM      7  O   UNL     1       5.658  -0.033  24.110  0.00  0.00    -0.454 OA
ATOM      8  C   UNL     1       7.841  -2.809  24.429  0.00  0.00    +0.018 A 
ATOM      9  C   UNL     1       6.819   0.647  23.840  0.00  0.00    +0.148 A 
ENDROOT
BRANCH   9  10
ATOM     10  C   UNL     1       6.658   2.090  23.652  0.00  0.00    +0.018 A 
ATOM     11  C   UNL     1       6.068   2.887  24.648  0.00  0.00    +0.014 A 
ATOM     12  C   UNL     1       5.875   4.259  24.452  0.00  0.00    +0.039 A 
ATOM     13  C   UNL     1       6.270   4.841  23.257  0.00  0.00    +0.123 A 
ATOM     14  F   UNL     1       6.069   6.151  23.062  0.00  0.00    -0.205 F 
ATOM     15  C   UNL     1       6.864   4.081  22.257  0.00  0.00    +0.039 A 
ATOM     16  C   UNL     1       7.057   2.709  22.455  0.00  0.00    +0.014 A 
ENDBRANCH   9  10
BRANCH   1  20
ATOM     17  C   UNL     1      11.425   0.841  24.500  0.00  0.00    +0.128 C 
ATOM     18  N   UNL     1      10.045   0.454  24.651  0.00  0.00    -0.314 N 
ATOM     19  H   UNL     1       9.587   0.641  25.531  0.00  0.00    +0.149 HD
ATOM     20  C   UNL     1       9.280   0.106  23.562  0.00  0.00    +0.248 C 
ATOM     21  O   UNL     1       9.724   0.110  22.416  0.00  0.00    -0.270 OA
ENDBRANCH   1  20
BRANCH   6  22
ATOM     22  C   UNL     1       7.715  -5.189  25.076  0.00  0.00    +0.021 C 
ATOM     23  C   UNL     1       8.213  -5.371  26.501  0.00  0.00    +0.009 C 
ATOM     24  C   UNL     1       9.179  -5.346  25.357  0.00  0.00    +0.009 C 
ENDBRANCH   6  22
BRANCH   5  25
ATOM     25  N   UNL     1       4.663  -4.754  24.999  0.00  0.00    -0.205 N 
BRANCH  25  26
ATOM     26  S   UNL     1       4.335  -5.785  23.671  0.00  0.00    +0.043 S 
ATOM     27  O   UNL     1       4.689  -7.145  24.015  0.00  0.00    -0.155 OA
ATOM     28  O   UNL     1       4.877  -5.159  22.480  0.00  0.00    -0.155 OA
ATOM     29  C   UNL     1       2.553  -5.714  23.525  0.00  0.00    +0.218 C 
ENDBRANCH  25  26
BRANCH  25  30
ATOM     30  C   UNL     1       4.547  -5.442  26.329  0.00  0.00    +0.159 C 
BRANCH  30  31
ATOM     31  C   UNL     1       3.285  -5.155  27.143  0.00  0.00    +0.176 C 
BRANCH  31  32
ATOM     32  O   UNL     1       2.577  -4.014  26.680  0.00  0.00    -0.393 OA
ATOM     33  H   UNL     1       2.238  -4.233  25.794  0.00  0.00    +0.209 HD
ENDBRANCH  31  32
ENDBRANCH  30  31
ENDBRANCH  25  30
ENDBRANCH   5  25
TORSDOF 8
ENDMDL
