MODEL 1
REMARK VINA RESULT:      -6.3      0.000      0.000
REMARK  Name = 
REMARK  23 active torsions:
REMARK  status: ('A' for Active; 'I' for Inactive)
REMARK    1  A    between atoms: C_1  and  C_2
REMARK    2  A    between atoms: C_2  and  C_3
REMARK    3  A    between atoms: C_3  and  C_4
REMARK    4  A    between atoms: C_4  and  C_5
REMARK    5  A    between atoms: C_5  and  C_6
REMARK    6  A    between atoms: C_6  and  C_7
REMARK    7  A    between atoms: C_7  and  C_8
REMARK    8  A    between atoms: C_8  and  C_9
REMARK    9  A    between atoms: C_9  and  C_10
REMARK   10  A    between atoms: C_10  and  C_11
REMARK   11  A    between atoms: C_11  and  O_12
REMARK   12  A    between atoms: O_12  and  C_13
REMARK   13  A    between atoms: C_16  and  C_18
REMARK   14  A    between atoms: C_18  and  O_19
REMARK   15  A    between atoms: C_20  and  O_22
REMARK   16  A    between atoms: O_22  and  C_23
REMARK   17  A    between atoms: C_26  and  C_28
REMARK   18  A    between atoms: C_28  and  O_29
REMARK   19  A    between atoms: C_30  and  O_32
REMARK   20  A    between atoms: C_33  and  O_35
REMARK   21  A    between atoms: C_36  and  O_38
REMARK   22  A    between atoms: C_39  and  O_41
REMARK   23  A    between atoms: C_42  and  O_44
REMARK                            x       y       z     vdW  Elec       q    Type
REMARK                         _______ _______ _______ _____ _____    ______ ____
ROOT
ATOM      1  C   UNL     1       8.856  -2.449  24.614  0.00  0.00    +0.282 C 
ATOM      2  C   UNL     1       7.409  -1.961  24.915  0.00  0.00    +0.201 C 
ATOM      3  C   UNL     1       6.551  -3.085  25.535  0.00  0.00    +0.179 C 
ATOM      4  C   UNL     1       6.702  -4.383  24.702  0.00  0.00    +0.183 C 
ATOM      5  C   UNL     1       8.184  -4.766  24.519  0.00  0.00    +0.178 C 
ATOM      6  O   UNL     1       8.922  -3.697  23.929  0.00  0.00    -0.341 OA
ENDROOT
BRANCH   3   7
ATOM      7  O   UNL     1       6.812  -3.251  26.927  0.00  0.00    -0.386 OA
ATOM      8  H   UNL     1       7.211  -4.135  27.085  0.00  0.00    +0.210 HD
ENDBRANCH   3   7
BRANCH   2   9
ATOM      9  O   UNL     1       6.737  -1.519  23.722  0.00  0.00    -0.384 OA
ATOM     10  H   UNL     1       7.418  -1.132  23.142  0.00  0.00    +0.210 HD
ENDBRANCH   2   9
BRANCH   1  11
ATOM     11  O   UNL     1       9.663  -1.437  24.007  0.00  0.00    -0.349 OA
BRANCH  11  12
ATOM     12  C   UNL     1      10.136  -1.696  22.688  0.00  0.00    +0.163 C 
BRANCH  12  13
ATOM     13  C   UNL     1      10.314  -0.388  21.943  0.00  0.00    +0.028 C 
BRANCH  13  14
ATOM     14  C   UNL     1       8.976   0.215  21.540  0.00  0.00    +0.002 C 
BRANCH  14  15
ATOM     15  C   UNL     1       8.945   1.687  21.912  0.00  0.00    +0.000 C 
BRANCH  15  16
ATOM     16  C   UNL     1       8.227   1.930  23.233  0.00  0.00    +0.000 C 
BRANCH  16  17
ATOM     17  C   UNL     1       9.234   2.382  24.283  0.00  0.00    +0.000 C 
BRANCH  17  18
ATOM     18  C   UNL     1      10.322   3.267  23.692  0.00  0.00    -0.000 C 
BRANCH  18  19
ATOM     19  C   UNL     1       9.974   4.735  23.933  0.00  0.00    -0.000 C 
BRANCH  19  20
ATOM     20  C   UNL     1      11.111   5.666  23.527  0.00  0.00    -0.000 C 
BRANCH  20  22
ATOM     21  C   UNL     1      13.301   5.631  22.283  0.00  0.00    +0.004 C 
ATOM     22  C   UNL     1      12.367   4.861  23.200  0.00  0.00    -0.003 C 
ENDBRANCH  20  22
ENDBRANCH  19  20
ENDBRANCH  18  19
ENDBRANCH  17  18
ENDBRANCH  16  17
ENDBRANCH  15  16
ENDBRANCH  14  15
ENDBRANCH  13  14
ENDBRANCH  12  13
ENDBRANCH  11  12
ENDBRANCH   1  11
BRANCH   4  23
ATOM     23  O   UNL     1       5.979  -5.551  25.121  0.00  0.00    -0.340 OA
BRANCH  23  24
ATOM     24  C   UNL     1       5.427  -6.354  24.068  0.00  0.00    +0.282 C 
ATOM     25  C   UNL     1       4.732  -5.398  23.060  0.00  0.00    +0.201 C 
ATOM     26  C   UNL     1       3.276  -5.106  23.451  0.00  0.00    +0.179 C 
ATOM     27  C   UNL     1       2.534  -6.424  23.687  0.00  0.00    +0.177 C 
ATOM     28  C   UNL     1       3.224  -7.246  24.786  0.00  0.00    +0.178 C 
ATOM     29  O   UNL     1       4.631  -7.441  24.559  0.00  0.00    -0.341 OA
BRANCH  27  30
ATOM     30  O   UNL     1       2.524  -7.176  22.457  0.00  0.00    -0.386 OA
ATOM     31  H   UNL     1       1.684  -6.979  22.000  0.00  0.00    +0.210 HD
ENDBRANCH  27  30
BRANCH  26  32
ATOM     32  O   UNL     1       3.153  -4.263  24.598  0.00  0.00    -0.386 OA
ATOM     33  H   UNL     1       3.561  -4.711  25.362  0.00  0.00    +0.210 HD
ENDBRANCH  26  32
BRANCH  25  34
ATOM     34  O   UNL     1       4.788  -5.925  21.724  0.00  0.00    -0.384 OA
ATOM     35  H   UNL     1       3.913  -5.761  21.312  0.00  0.00    +0.210 HD
ENDBRANCH  25  34
BRANCH  28  36
ATOM     36  C   UNL     1       2.921  -6.731  26.203  0.00  0.00    +0.190 C 
BRANCH  36  37
ATOM     37  O   UNL     1       3.984  -7.082  27.092  0.00  0.00    -0.392 OA
ATOM     38  H   UNL     1       3.644  -6.965  27.996  0.00  0.00    +0.210 HD
ENDBRANCH  36  37
ENDBRANCH  28  36
ENDBRANCH  23  24
ENDBRANCH   4  23
BRANCH   5  39
ATOM     39  C   UNL     1       8.928  -5.356  25.738  0.00  0.00    +0.190 C 
BRANCH  39  40
ATOM     40  O   UNL     1       8.056  -5.839  26.761  0.00  0.00    -0.392 OA
ATOM     41  H   UNL     1       8.587  -5.886  27.583  0.00  0.00    +0.210 HD
ENDBRANCH  39  40
ENDBRANCH   5  39
TORSDOF 22
ENDMDL
MODEL 2
REMARK VINA RESULT:      -6.2      3.191      8.886
REMARK  Name = 
REMARK  23 active torsions:
REMARK  status: ('A' for Active; 'I' for Inactive)
REMARK    1  A    between atoms: C_1  and  C_2
REMARK    2  A    between atoms: C_2  and  C_3
REMARK    3  A    between atoms: C_3  and  C_4
REMARK    4  A    between atoms: C_4  and  C_5
REMARK    5  A    between atoms: C_5  and  C_6
REMARK    6  A    between atoms: C_6  and  C_7
REMARK    7  A    between atoms: C_7  and  C_8
REMARK    8  A    between atoms: C_8  and  C_9
REMARK    9  A    between atoms: C_9  and  C_10
REMARK   10  A    between atoms: C_10  and  C_11
REMARK   11  A    between atoms: C_11  and  O_12
REMARK   12  A    between atoms: O_12  and  C_13
REMARK   13  A    between atoms: C_16  and  C_18
REMARK   14  A    between atoms: C_18  and  O_19
REMARK   15  A    between atoms: C_20  and  O_22
REMARK   16  A    between atoms: O_22  and  C_23
REMARK   17  A    between atoms: C_26  and  C_28
REMARK   18  A    between atoms: C_28  and  O_29
REMARK   19  A    between atoms: C_30  and  O_32
REMARK   20  A    between atoms: C_33  and  O_35
REMARK   21  A    between atoms: C_36  and  O_38
REMARK   22  A    between atoms: C_39  and  O_41
REMARK   23  A    between atoms: C_42  and  O_44
REMARK                            x       y       z     vdW  Elec       q    Type
REMARK                         _______ _______ _______ _____ _____    ______ ____
ROOT
ATOM      1  C   UNL     1       9.472  -2.406  24.267  0.00  0.00    +0.282 C 
ATOM      2  C   UNL     1      10.327  -1.499  23.336  0.00  0.00    +0.201 C 
ATOM      3  C   UNL     1      10.035  -0.002  23.583  0.00  0.00    +0.179 C 
ATOM      4  C   UNL     1       8.504   0.240  23.599  0.00  0.00    +0.183 C 
ATOM      5  C   UNL     1       7.795  -0.701  24.593  0.00  0.00    +0.178 C 
ATOM      6  O   UNL     1       8.089  -2.067  24.306  0.00  0.00    -0.341 OA
ENDROOT
BRANCH   3   7
ATOM      7  O   UNL     1      10.715   0.492  24.734  0.00  0.00    -0.386 OA
ATOM      8  H   UNL     1      10.864   1.458  24.641  0.00  0.00    +0.210 HD
ENDBRANCH   3   7
BRANCH   2   9
ATOM      9  O   UNL     1      10.063  -1.761  21.946  0.00  0.00    -0.384 OA
ATOM     10  H   UNL     1       9.418  -1.093  21.652  0.00  0.00    +0.210 HD
ENDBRANCH   2   9
BRANCH   1  11
ATOM     11  O   UNL     1       9.697  -3.799  24.035  0.00  0.00    -0.349 OA
BRANCH  11  12
ATOM     12  C   UNL     1       9.826  -4.631  25.185  0.00  0.00    +0.163 C 
BRANCH  12  13
ATOM     13  C   UNL     1       8.618  -5.539  25.296  0.00  0.00    +0.028 C 
BRANCH  13  14
ATOM     14  C   UNL     1       7.771  -5.199  26.515  0.00  0.00    +0.002 C 
BRANCH  14  15
ATOM     15  C   UNL     1       6.311  -5.501  26.224  0.00  0.00    +0.000 C 
BRANCH  15  16
ATOM     16  C   UNL     1       5.563  -4.275  25.715  0.00  0.00    +0.000 C 
BRANCH  16  17
ATOM     17  C   UNL     1       4.363  -4.720  24.889  0.00  0.00    +0.000 C 
BRANCH  17  18
ATOM     18  C   UNL     1       4.608  -6.049  24.188  0.00  0.00    -0.000 C 
BRANCH  18  19
ATOM     19  C   UNL     1       4.887  -5.801  22.707  0.00  0.00    -0.000 C 
BRANCH  19  20
ATOM     20  C   UNL     1       6.347  -6.059  22.350  0.00  0.00    -0.000 C 
BRANCH  20  22
ATOM     21  C   UNL     1       6.050  -3.610  21.837  0.00  0.00    +0.004 C 
ATOM     22  C   UNL     1       7.043  -4.751  21.977  0.00  0.00    -0.003 C 
ENDBRANCH  20  22
ENDBRANCH  19  20
ENDBRANCH  18  19
ENDBRANCH  17  18
ENDBRANCH  16  17
ENDBRANCH  15  16
ENDBRANCH  14  15
ENDBRANCH  13  14
ENDBRANCH  12  13
ENDBRANCH  11  12
ENDBRANCH   1  11
BRANCH   4  23
ATOM     23  O   UNL     1       8.027   1.577  23.818  0.00  0.00    -0.340 OA
BRANCH  23  24
ATOM     24  C   UNL     1       8.604   2.591  22.983  0.00  0.00    +0.282 C 
ATOM     25  C   UNL     1       9.198   3.685  23.912  0.00  0.00    +0.201 C 
ATOM     26  C   UNL     1       8.156   4.747  24.293  0.00  0.00    +0.179 C 
ATOM     27  C   UNL     1       7.488   5.287  23.025  0.00  0.00    +0.177 C 
ATOM     28  C   UNL     1       6.823   4.150  22.235  0.00  0.00    +0.178 C 
ATOM     29  O   UNL     1       7.707   3.047  21.963  0.00  0.00    -0.341 OA
BRANCH  27  30
ATOM     30  O   UNL     1       8.493   5.920  22.207  0.00  0.00    -0.386 OA
ATOM     31  H   UNL     1       8.864   5.236  21.618  0.00  0.00    +0.210 HD
ENDBRANCH  27  30
BRANCH  26  32
ATOM     32  O   UNL     1       7.163   4.270  25.203  0.00  0.00    -0.386 OA
ATOM     33  H   UNL     1       6.331   4.128  24.715  0.00  0.00    +0.210 HD
ENDBRANCH  26  32
BRANCH  25  34
ATOM     34  O   UNL     1      10.343   4.310  23.310  0.00  0.00    -0.384 OA
ATOM     35  H   UNL     1      10.542   5.116  23.835  0.00  0.00    +0.210 HD
ENDBRANCH  25  34
BRANCH  28  36
ATOM     36  C   UNL     1       5.485   3.698  22.842  0.00  0.00    +0.190 C 
BRANCH  36  37
ATOM     37  O   UNL     1       5.306   2.294  22.647  0.00  0.00    -0.392 OA
ATOM     38  H   UNL     1       4.542   2.187  22.053  0.00  0.00    +0.210 HD
ENDBRANCH  36  37
ENDBRANCH  28  36
ENDBRANCH  23  24
ENDBRANCH   4  23
BRANCH   5  39
ATOM     39  C   UNL     1       7.948  -0.398  26.100  0.00  0.00    +0.190 C 
BRANCH  39  40
ATOM     40  O   UNL     1       8.268   0.966  26.380  0.00  0.00    -0.392 OA
ATOM     41  H   UNL     1       8.503   1.381  25.525  0.00  0.00    +0.210 HD
ENDBRANCH  39  40
ENDBRANCH   5  39
TORSDOF 22
ENDMDL
MODEL 3
REMARK VINA RESULT:      -6.1      3.127      8.874
REMARK  Name = 
REMARK  23 active torsions:
REMARK  status: ('A' for Active; 'I' for Inactive)
REMARK    1  A    between atoms: C_1  and  C_2
REMARK    2  A    between atoms: C_2  and  C_3
REMARK    3  A    between atoms: C_3  and  C_4
REMARK    4  A    between atoms: C_4  and  C_5
REMARK    5  A    between atoms: C_5  and  C_6
REMARK    6  A    between atoms: C_6  and  C_7
REMARK    7  A    between atoms: C_7  and  C_8
REMARK    8  A    between atoms: C_8  and  C_9
REMARK    9  A    between atoms: C_9  and  C_10
REMARK   10  A    between atoms: C_10  and  C_11
REMARK   11  A    between atoms: C_11  and  O_12
REMARK   12  A    between atoms: O_12  and  C_13
REMARK   13  A    between atoms: C_16  and  C_18
REMARK   14  A    between atoms: C_18  and  O_19
REMARK   15  A    between atoms: C_20  and  O_22
REMARK   16  A    between atoms: O_22  and  C_23
REMARK   17  A    between atoms: C_26  and  C_28
REMARK   18  A    between atoms: C_28  and  O_29
REMARK   19  A    between atoms: C_30  and  O_32
REMARK   20  A    between atoms: C_33  and  O_35
REMARK   21  A    between atoms: C_36  and  O_38
REMARK   22  A    between atoms: C_39  and  O_41
REMARK   23  A    between atoms: C_42  and  O_44
REMARK                            x       y       z     vdW  Elec       q    Type
REMARK                         _______ _______ _______ _____ _____    ______ ____
ROOT
ATOM      1  C   UNL     1       8.967  -2.240  23.620  0.00  0.00    +0.282 C 
ATOM      2  C   UNL     1      10.140  -1.454  22.966  0.00  0.00    +0.201 C 
ATOM      3  C   UNL     1      10.225  -0.011  23.510  0.00  0.00    +0.179 C 
ATOM      4  C   UNL     1       8.823   0.648  23.475  0.00  0.00    +0.183 C 
ATOM      5  C   UNL     1       7.773  -0.223  24.194  0.00  0.00    +0.178 C 
ATOM      6  O   UNL     1       7.729  -1.536  23.639  0.00  0.00    -0.341 OA
ENDROOT
BRANCH   3   7
ATOM      7  O   UNL     1      10.863   0.043  24.784  0.00  0.00    -0.386 OA
ATOM      8  H   UNL     1      11.656  -0.537  24.782  0.00  0.00    +0.210 HD
ENDBRANCH   3   7
BRANCH   2   9
ATOM      9  O   UNL     1       9.991  -1.364  21.538  0.00  0.00    -0.384 OA
ATOM     10  H   UNL     1       9.498  -2.155  21.256  0.00  0.00    +0.210 HD
ENDBRANCH   2   9
BRANCH   1  11
ATOM     11  O   UNL     1       8.844  -3.570  23.109  0.00  0.00    -0.349 OA
BRANCH  11  12
ATOM     12  C   UNL     1       7.542  -3.989  22.710  0.00  0.00    +0.163 C 
BRANCH  12  13
ATOM     13  C   UNL     1       7.469  -5.503  22.714  0.00  0.00    +0.028 C 
BRANCH  13  14
ATOM     14  C   UNL     1       6.278  -6.009  21.912  0.00  0.00    +0.002 C 
BRANCH  14  15
ATOM     15  C   UNL     1       4.993  -5.730  22.671  0.00  0.00    +0.000 C 
BRANCH  15  16
ATOM     16  C   UNL     1       4.928  -6.494  23.988  0.00  0.00    +0.000 C 
BRANCH  16  17
ATOM     17  C   UNL     1       4.428  -5.567  25.089  0.00  0.00    +0.000 C 
BRANCH  17  18
ATOM     18  C   UNL     1       5.457  -5.383  26.196  0.00  0.00    -0.000 C 
BRANCH  18  19
ATOM     19  C   UNL     1       5.994  -3.954  26.162  0.00  0.00    -0.000 C 
BRANCH  19  20
ATOM     20  C   UNL     1       7.457  -3.883  26.586  0.00  0.00    -0.000 C 
BRANCH  20  22
ATOM     21  C   UNL     1       9.563  -5.111  25.949  0.00  0.00    +0.004 C 
ATOM     22  C   UNL     1       8.125  -5.247  26.421  0.00  0.00    -0.003 C 
ENDBRANCH  20  22
ENDBRANCH  19  20
ENDBRANCH  18  19
ENDBRANCH  17  18
ENDBRANCH  16  17
ENDBRANCH  15  16
ENDBRANCH  14  15
ENDBRANCH  13  14
ENDBRANCH  12  13
ENDBRANCH  11  12
ENDBRANCH   1  11
BRANCH   4  23
ATOM     23  O   UNL     1       8.691   1.999  23.945  0.00  0.00    -0.340 OA
BRANCH  23  24
ATOM     24  C   UNL     1       8.998   3.025  22.990  0.00  0.00    +0.282 C 
ATOM     25  C   UNL     1       9.307   4.327  23.780  0.00  0.00    +0.201 C 
ATOM     26  C   UNL     1       8.038   5.137  24.077  0.00  0.00    +0.179 C 
ATOM     27  C   UNL     1       7.253   5.355  22.781  0.00  0.00    +0.177 C 
ATOM     28  C   UNL     1       6.884   4.010  22.138  0.00  0.00    +0.178 C 
ATOM     29  O   UNL     1       8.011   3.133  21.956  0.00  0.00    -0.341 OA
BRANCH  27  30
ATOM     30  O   UNL     1       8.067   6.119  21.870  0.00  0.00    -0.386 OA
ATOM     31  H   UNL     1       7.610   6.966  21.709  0.00  0.00    +0.210 HD
ENDBRANCH  27  30
BRANCH  26  32
ATOM     32  O   UNL     1       7.197   4.536  25.063  0.00  0.00    -0.386 OA
ATOM     33  H   UNL     1       6.284   4.502  24.721  0.00  0.00    +0.210 HD
ENDBRANCH  26  32
BRANCH  25  34
ATOM     34  O   UNL     1      10.261   5.142  23.079  0.00  0.00    -0.384 OA
ATOM     35  H   UNL     1       9.990   5.158  22.136  0.00  0.00    +0.210 HD
ENDBRANCH  25  34
BRANCH  28  36
ATOM     36  C   UNL     1       5.701   3.314  22.830  0.00  0.00    +0.190 C 
BRANCH  36  37
ATOM     37  O   UNL     1       5.722   1.913  22.550  0.00  0.00    -0.392 OA
ATOM     38  H   UNL     1       4.975   1.518  23.033  0.00  0.00    +0.210 HD
ENDBRANCH  36  37
ENDBRANCH  28  36
ENDBRANCH  23  24
ENDBRANCH   4  23
BRANCH   5  39
ATOM     39  C   UNL     1       7.811  -0.266  25.737  0.00  0.00    +0.190 C 
BRANCH  39  40
ATOM     40  O   UNL     1       8.311   0.934  26.331  0.00  0.00    -0.392 OA
ATOM     41  H   UNL     1       9.216   1.064  25.982  0.00  0.00    +0.210 HD
ENDBRANCH  39  40
ENDBRANCH   5  39
TORSDOF 22
ENDMDL
MODEL 4
REMARK VINA RESULT:      -6.1      3.275      8.616
REMARK  Name = 
REMARK  23 active torsions:
REMARK  status: ('A' for Active; 'I' for Inactive)
REMARK    1  A    between atoms: C_1  and  C_2
REMARK    2  A    between atoms: C_2  and  C_3
REMARK    3  A    between atoms: C_3  and  C_4
REMARK    4  A    between atoms: C_4  and  C_5
REMARK    5  A    between atoms: C_5  and  C_6
REMARK    6  A    between atoms: C_6  and  C_7
REMARK    7  A    between atoms: C_7  and  C_8
REMARK    8  A    between atoms: C_8  and  C_9
REMARK    9  A    between atoms: C_9  and  C_10
REMARK   10  A    between atoms: C_10  and  C_11
REMARK   11  A    between atoms: C_11  and  O_12
REMARK   12  A    between atoms: O_12  and  C_13
REMARK   13  A    between atoms: C_16  and  C_18
REMARK   14  A    between atoms: C_18  and  O_19
REMARK   15  A    between atoms: C_20  and  O_22
REMARK   16  A    between atoms: O_22  and  C_23
REMARK   17  A    between atoms: C_26  and  C_28
REMARK   18  A    between atoms: C_28  and  O_29
REMARK   19  A    between atoms: C_30  and  O_32
REMARK   20  A    between atoms: C_33  and  O_35
REMARK   21  A    between atoms: C_36  and  O_38
REMARK   22  A    between atoms: C_39  and  O_41
REMARK   23  A    between atoms: C_42  and  O_44
REMARK                            x       y       z     vdW  Elec       q    Type
REMARK                         _______ _______ _______ _____ _____    ______ ____
ROOT
ATOM      1  C   UNL     1       9.408  -2.396  24.554  0.00  0.00    +0.282 C 
ATOM      2  C   UNL     1      10.088  -1.454  23.519  0.00  0.00    +0.201 C 
ATOM      3  C   UNL     1      10.021   0.022  23.970  0.00  0.00    +0.179 C 
ATOM      4  C   UNL     1       8.576   0.374  24.407  0.00  0.00    +0.183 C 
ATOM      5  C   UNL     1       8.049  -0.619  25.462  0.00  0.00    +0.178 C 
ATOM      6  O   UNL     1       8.121  -1.961  24.984  0.00  0.00    -0.341 OA
ENDROOT
BRANCH   3   7
ATOM      7  O   UNL     1      11.016   0.329  24.944  0.00  0.00    -0.386 OA
ATOM      8  H   UNL     1      10.753   1.132  25.444  0.00  0.00    +0.210 HD
ENDBRANCH   3   7
BRANCH   2   9
ATOM      9  O   UNL     1       9.457  -1.535  22.229  0.00  0.00    -0.384 OA
ATOM     10  H   UNL     1       9.832  -2.314  21.781  0.00  0.00    +0.210 HD
ENDBRANCH   2   9
BRANCH   1  11
ATOM     11  O   UNL     1       9.424  -3.766  24.145  0.00  0.00    -0.349 OA
BRANCH  11  12
ATOM     12  C   UNL     1       9.406  -4.747  25.177  0.00  0.00    +0.163 C 
BRANCH  12  13
ATOM     13  C   UNL     1       8.048  -5.420  25.220  0.00  0.00    +0.028 C 
BRANCH  13  14
ATOM     14  C   UNL     1       7.271  -5.037  26.471  0.00  0.00    +0.002 C 
BRANCH  14  15
ATOM     15  C   UNL     1       5.951  -5.786  26.503  0.00  0.00    +0.000 C 
BRANCH  15  16
ATOM     16  C   UNL     1       5.098  -5.495  25.274  0.00  0.00    +0.000 C 
BRANCH  16  17
ATOM     17  C   UNL     1       4.438  -4.130  25.424  0.00  0.00    +0.000 C 
BRANCH  17  18
ATOM     18  C   UNL     1       4.865  -3.163  24.328  0.00  0.00    -0.000 C 
BRANCH  18  19
ATOM     19  C   UNL     1       4.992  -3.915  23.005  0.00  0.00    -0.000 C 
BRANCH  19  20
ATOM     20  C   UNL     1       6.257  -3.527  22.247  0.00  0.00    -0.000 C 
BRANCH  20  22
ATOM     21  C   UNL     1       6.123  -6.001  21.786  0.00  0.00    +0.004 C 
ATOM     22  C   UNL     1       7.021  -4.776  21.812  0.00  0.00    -0.003 C 
ENDBRANCH  20  22
ENDBRANCH  19  20
ENDBRANCH  18  19
ENDBRANCH  17  18
ENDBRANCH  16  17
ENDBRANCH  15  16
ENDBRANCH  14  15
ENDBRANCH  13  14
ENDBRANCH  12  13
ENDBRANCH  11  12
ENDBRANCH   1  11
BRANCH   4  23
ATOM     23  O   UNL     1       8.308   1.709  24.865  0.00  0.00    -0.340 OA
BRANCH  23  24
ATOM     24  C   UNL     1       7.080   2.291  24.405  0.00  0.00    +0.282 C 
ATOM     25  C   UNL     1       6.918   1.926  22.904  0.00  0.00    +0.201 C 
ATOM     26  C   UNL     1       7.614   2.940  21.985  0.00  0.00    +0.179 C 
ATOM     27  C   UNL     1       7.158   4.356  22.345  0.00  0.00    +0.177 C 
ATOM     28  C   UNL     1       7.471   4.671  23.815  0.00  0.00    +0.178 C 
ATOM     29  O   UNL     1       6.969   3.682  24.733  0.00  0.00    -0.341 OA
BRANCH  27  30
ATOM     30  O   UNL     1       5.737   4.454  22.122  0.00  0.00    -0.386 OA
ATOM     31  H   UNL     1       5.556   5.348  21.775  0.00  0.00    +0.210 HD
ENDBRANCH  27  30
BRANCH  26  32
ATOM     32  O   UNL     1       9.040   2.860  22.027  0.00  0.00    -0.386 OA
ATOM     33  H   UNL     1       9.358   2.464  21.194  0.00  0.00    +0.210 HD
ENDBRANCH  26  32
BRANCH  25  34
ATOM     34  O   UNL     1       5.531   1.808  22.547  0.00  0.00    -0.384 OA
ATOM     35  H   UNL     1       5.496   1.412  21.649  0.00  0.00    +0.210 HD
ENDBRANCH  25  34
BRANCH  28  36
ATOM     36  C   UNL     1       8.953   5.002  24.058  0.00  0.00    +0.190 C 
BRANCH  36  37
ATOM     37  O   UNL     1       9.470   5.771  22.971  0.00  0.00    -0.392 OA
ATOM     38  H   UNL     1       9.507   5.179  22.200  0.00  0.00    +0.210 HD
ENDBRANCH  36  37
ENDBRANCH  28  36
ENDBRANCH  23  24
ENDBRANCH   4  23
BRANCH   5  39
ATOM     39  C   UNL     1       8.606  -0.503  26.898  0.00  0.00    +0.190 C 
BRANCH  39  40
ATOM     40  O   UNL     1       7.993   0.531  27.669  0.00  0.00    -0.392 OA
ATOM     41  H   UNL     1       7.328   0.956  27.090  0.00  0.00    +0.210 HD
ENDBRANCH  39  40
ENDBRANCH   5  39
TORSDOF 22
ENDMDL
MODEL 5
REMARK VINA RESULT:      -6.1      1.774      3.676
REMARK  Name = 
REMARK  23 active torsions:
REMARK  status: ('A' for Active; 'I' for Inactive)
REMARK    1  A    between atoms: C_1  and  C_2
REMARK    2  A    between atoms: C_2  and  C_3
REMARK    3  A    between atoms: C_3  and  C_4
REMARK    4  A    between atoms: C_4  and  C_5
REMARK    5  A    between atoms: C_5  and  C_6
REMARK    6  A    between atoms: C_6  and  C_7
REMARK    7  A    between atoms: C_7  and  C_8
REMARK    8  A    between atoms: C_8  and  C_9
REMARK    9  A    between atoms: C_9  and  C_10
REMARK   10  A    between atoms: C_10  and  C_11
REMARK   11  A    between atoms: C_11  and  O_12
REMARK   12  A    between atoms: O_12  and  C_13
REMARK   13  A    between atoms: C_16  and  C_18
REMARK   14  A    between atoms: C_18  and  O_19
REMARK   15  A    between atoms: C_20  and  O_22
REMARK   16  A    between atoms: O_22  and  C_23
REMARK   17  A    between atoms: C_26  and  C_28
REMARK   18  A    between atoms: C_28  and  O_29
REMARK   19  A    between atoms: C_30  and  O_32
REMARK   20  A    between atoms: C_33  and  O_35
REMARK   21  A    between atoms: C_36  and  O_38
REMARK   22  A    between atoms: C_39  and  O_41
REMARK   23  A    between atoms: C_42  and  O_44
REMARK                            x       y       z     vdW  Elec       q    Type
REMARK                         _______ _______ _______ _____ _____    ______ ____
ROOT
ATOM      1  C   UNL     1       7.953  -2.802  22.423  0.00  0.00    +0.282 C 
ATOM      2  C   UNL     1       8.429  -3.096  23.875  0.00  0.00    +0.201 C 
ATOM      3  C   UNL     1       7.910  -4.463  24.374  0.00  0.00    +0.179 C 
ATOM      4  C   UNL     1       6.392  -4.586  24.087  0.00  0.00    +0.183 C 
ATOM      5  C   UNL     1       6.074  -4.307  22.604  0.00  0.00    +0.178 C 
ATOM      6  O   UNL     1       6.563  -3.027  22.207  0.00  0.00    -0.341 OA
ENDROOT
BRANCH   3   7
ATOM      7  O   UNL     1       8.688  -5.546  23.870  0.00  0.00    -0.386 OA
ATOM      8  H   UNL     1       9.486  -5.669  24.429  0.00  0.00    +0.210 HD
ENDBRANCH   3   7
BRANCH   2   9
ATOM      9  O   UNL     1       7.964  -2.099  24.802  0.00  0.00    -0.384 OA
ATOM     10  H   UNL     1       6.998  -2.207  24.869  0.00  0.00    +0.210 HD
ENDBRANCH   2   9
BRANCH   1  11
ATOM     11  O   UNL     1       8.390  -1.526  21.949  0.00  0.00    -0.349 OA
BRANCH  11  12
ATOM     12  C   UNL     1       9.796  -1.331  21.827  0.00  0.00    +0.163 C 
BRANCH  12  13
ATOM     13  C   UNL     1      10.159   0.071  22.273  0.00  0.00    +0.028 C 
BRANCH  13  14
ATOM     14  C   UNL     1      10.517   0.114  23.752  0.00  0.00    +0.002 C 
BRANCH  14  15
ATOM     15  C   UNL     1      10.670   1.557  24.199  0.00  0.00    +0.000 C 
BRANCH  15  16
ATOM     16  C   UNL     1      10.333   2.541  23.086  0.00  0.00    +0.000 C 
BRANCH  16  17
ATOM     17  C   UNL     1       9.622   3.752  23.676  0.00  0.00    +0.000 C 
BRANCH  17  18
ATOM     18  C   UNL     1       8.116   3.699  23.454  0.00  0.00    -0.000 C 
BRANCH  18  19
ATOM     19  C   UNL     1       7.814   2.885  22.198  0.00  0.00    -0.000 C 
BRANCH  19  20
ATOM     20  C   UNL     1       6.693   1.877  22.426  0.00  0.00    -0.000 C 
BRANCH  20  22
ATOM     21  C   UNL     1       5.670   1.160  24.614  0.00  0.00    +0.004 C 
ATOM     22  C   UNL     1       6.911   1.127  23.738  0.00  0.00    -0.003 C 
ENDBRANCH  20  22
ENDBRANCH  19  20
ENDBRANCH  18  19
ENDBRANCH  17  18
ENDBRANCH  16  17
ENDBRANCH  15  16
ENDBRANCH  14  15
ENDBRANCH  13  14
ENDBRANCH  12  13
ENDBRANCH  11  12
ENDBRANCH   1  11
BRANCH   4  23
ATOM     23  O   UNL     1       5.719  -5.793  24.477  0.00  0.00    -0.340 OA
BRANCH  23  24
ATOM     24  C   UNL     1       4.866  -5.690  25.626  0.00  0.00    +0.282 C 
ATOM     25  C   UNL     1       4.445  -7.129  26.032  0.00  0.00    +0.201 C 
ATOM     26  C   UNL     1       3.191  -7.598  25.280  0.00  0.00    +0.179 C 
ATOM     27  C   UNL     1       2.085  -6.550  25.426  0.00  0.00    +0.177 C 
ATOM     28  C   UNL     1       2.550  -5.190  24.884  0.00  0.00    +0.178 C 
ATOM     29  O   UNL     1       3.801  -4.748  25.443  0.00  0.00    -0.341 OA
BRANCH  27  30
ATOM     30  O   UNL     1       1.747  -6.424  26.822  0.00  0.00    -0.386 OA
ATOM     31  H   UNL     1       1.617  -7.325  27.174  0.00  0.00    +0.210 HD
ENDBRANCH  27  30
BRANCH  26  32
ATOM     32  O   UNL     1       3.425  -7.872  23.898  0.00  0.00    -0.386 OA
ATOM     33  H   UNL     1       3.395  -8.837  23.759  0.00  0.00    +0.210 HD
ENDBRANCH  26  32
BRANCH  25  34
ATOM     34  O   UNL     1       4.235  -7.226  27.450  0.00  0.00    -0.384 OA
ATOM     35  H   UNL     1       3.704  -6.445  27.718  0.00  0.00    +0.210 HD
ENDBRANCH  25  34
BRANCH  28  36
ATOM     36  C   UNL     1       2.529  -5.113  23.349  0.00  0.00    +0.190 C 
BRANCH  36  37
ATOM     37  O   UNL     1       1.411  -5.838  22.835  0.00  0.00    -0.392 OA
ATOM     38  H   UNL     1       1.107  -5.361  22.043  0.00  0.00    +0.210 HD
ENDBRANCH  36  37
ENDBRANCH  28  36
ENDBRANCH  23  24
ENDBRANCH   4  23
BRANCH   5  39
ATOM     39  C   UNL     1       6.447  -5.395  21.574  0.00  0.00    +0.190 C 
BRANCH  39  40
ATOM     40  O   UNL     1       6.270  -6.727  22.059  0.00  0.00    -0.392 OA
ATOM     41  H   UNL     1       7.074  -7.227  21.808  0.00  0.00    +0.210 HD
ENDBRANCH  39  40
ENDBRANCH   5  39
TORSDOF 22
ENDMDL
MODEL 6
REMARK VINA RESULT:      -6.0      2.457      4.935
REMARK  Name = 
REMARK  23 active torsions:
REMARK  status: ('A' for Active; 'I' for Inactive)
REMARK    1  A    between atoms: C_1  and  C_2
REMARK    2  A    between atoms: C_2  and  C_3
REMARK    3  A    between atoms: C_3  and  C_4
REMARK    4  A    between atoms: C_4  and  C_5
REMARK    5  A    between atoms: C_5  and  C_6
REMARK    6  A    between atoms: C_6  and  C_7
REMARK    7  A    between atoms: C_7  and  C_8
REMARK    8  A    between atoms: C_8  and  C_9
REMARK    9  A    between atoms: C_9  and  C_10
REMARK   10  A    between atoms: C_10  and  C_11
REMARK   11  A    between atoms: C_11  and  O_12
REMARK   12  A    between atoms: O_12  and  C_13
REMARK   13  A    between atoms: C_16  and  C_18
REMARK   14  A    between atoms: C_18  and  O_19
REMARK   15  A    between atoms: C_20  and  O_22
REMARK   16  A    between atoms: O_22  and  C_23
REMARK   17  A    between atoms: C_26  and  C_28
REMARK   18  A    between atoms: C_28  and  O_29
REMARK   19  A    between atoms: C_30  and  O_32
REMARK   20  A    between atoms: C_33  and  O_35
REMARK   21  A    between atoms: C_36  and  O_38
REMARK   22  A    between atoms: C_39  and  O_41
REMARK   23  A    between atoms: C_42  and  O_44
REMARK                            x       y       z     vdW  Elec       q    Type
REMARK                         _______ _______ _______ _____ _____    ______ ____
ROOT
ATOM      1  C   UNL     1       8.435   1.681  23.394  0.00  0.00    +0.282 C 
ATOM      2  C   UNL     1       9.134   1.374  24.749  0.00  0.00    +0.201 C 
ATOM      3  C   UNL     1       9.852   0.007  24.718  0.00  0.00    +0.179 C 
ATOM      4  C   UNL     1       8.898  -1.076  24.152  0.00  0.00    +0.183 C 
ATOM      5  C   UNL     1       8.312  -0.653  22.790  0.00  0.00    +0.178 C 
ATOM      6  O   UNL     1       7.649   0.607  22.884  0.00  0.00    -0.341 OA
ENDROOT
BRANCH   3   7
ATOM      7  O   UNL     1      11.111   0.079  24.054  0.00  0.00    -0.386 OA
ATOM      8  H   UNL     1      11.831  -0.139  24.685  0.00  0.00    +0.210 HD
ENDBRANCH   3   7
BRANCH   2   9
ATOM      9  O   UNL     1       8.195   1.339  25.838  0.00  0.00    -0.384 OA
ATOM     10  H   UNL     1       8.595   0.790  26.537  0.00  0.00    +0.210 HD
ENDBRANCH   2   9
BRANCH   1  11
ATOM     11  O   UNL     1       7.733   2.927  23.406  0.00  0.00    -0.349 OA
BRANCH  11  12
ATOM     12  C   UNL     1       7.353   3.465  22.143  0.00  0.00    +0.163 C 
BRANCH  12  13
ATOM     13  C   UNL     1       7.084   4.950  22.280  0.00  0.00    +0.028 C 
BRANCH  13  14
ATOM     14  C   UNL     1       6.122   5.243  23.423  0.00  0.00    +0.002 C 
BRANCH  14  15
ATOM     15  C   UNL     1       6.703   6.325  24.316  0.00  0.00    +0.000 C 
BRANCH  15  16
ATOM     16  C   UNL     1       6.939   5.831  25.737  0.00  0.00    +0.000 C 
BRANCH  16  17
ATOM     17  C   UNL     1       8.319   5.193  25.831  0.00  0.00    +0.000 C 
BRANCH  17  18
ATOM     18  C   UNL     1       9.387   6.028  25.137  0.00  0.00    -0.000 C 
BRANCH  18  19
ATOM     19  C   UNL     1      10.244   5.127  24.250  0.00  0.00    -0.000 C 
BRANCH  19  20
ATOM     20  C   UNL     1      11.336   5.907  23.529  0.00  0.00    -0.000 C 
BRANCH  20  22
ATOM     21  C   UNL     1      13.339   5.585  22.034  0.00  0.00    +0.004 C 
ATOM     22  C   UNL     1      12.480   4.977  23.129  0.00  0.00    -0.003 C 
ENDBRANCH  20  22
ENDBRANCH  19  20
ENDBRANCH  18  19
ENDBRANCH  17  18
ENDBRANCH  16  17
ENDBRANCH  15  16
ENDBRANCH  14  15
ENDBRANCH  13  14
ENDBRANCH  12  13
ENDBRANCH  11  12
ENDBRANCH   1  11
BRANCH   4  23
ATOM     23  O   UNL     1       9.383  -2.423  24.040  0.00  0.00    -0.340 OA
BRANCH  23  24
ATOM     24  C   UNL     1       9.416  -3.177  25.260  0.00  0.00    +0.282 C 
ATOM     25  C   UNL     1       9.657  -4.666  24.887  0.00  0.00    +0.201 C 
ATOM     26  C   UNL     1       8.344  -5.408  24.594  0.00  0.00    +0.179 C 
ATOM     27  C   UNL     1       7.366  -5.196  25.752  0.00  0.00    +0.177 C 
ATOM     28  C   UNL     1       7.093  -3.699  25.965  0.00  0.00    +0.178 C 
ATOM     29  O   UNL     1       8.291  -2.913  26.107  0.00  0.00    -0.341 OA
BRANCH  27  30
ATOM     30  O   UNL     1       7.939  -5.758  26.949  0.00  0.00    -0.386 OA
ATOM     31  H   UNL     1       8.766  -6.209  26.695  0.00  0.00    +0.210 HD
ENDBRANCH  27  30
BRANCH  26  32
ATOM     32  O   UNL     1       7.735  -5.019  23.361  0.00  0.00    -0.386 OA
ATOM     33  H   UNL     1       7.364  -5.812  22.930  0.00  0.00    +0.210 HD
ENDBRANCH  26  32
BRANCH  25  34
ATOM     34  O   UNL     1      10.388  -5.347  25.920  0.00  0.00    -0.384 OA
ATOM     35  H   UNL     1      11.317  -5.034  25.870  0.00  0.00    +0.210 HD
ENDBRANCH  25  34
BRANCH  28  36
ATOM     36  C   UNL     1       6.120  -3.110  24.932  0.00  0.00    +0.190 C 
BRANCH  36  37
ATOM     37  O   UNL     1       5.126  -4.076  24.585  0.00  0.00    -0.392 OA
ATOM     38  H   UNL     1       5.551  -4.715  23.987  0.00  0.00    +0.210 HD
ENDBRANCH  36  37
ENDBRANCH  28  36
ENDBRANCH  23  24
ENDBRANCH   4  23
BRANCH   5  39
ATOM     39  C   UNL     1       9.245  -0.707  21.561  0.00  0.00    +0.190 C 
BRANCH  39  40
ATOM     40  O   UNL     1      10.331  -1.623  21.706  0.00  0.00    -0.392 OA
ATOM     41  H   UNL     1       9.991  -2.383  22.219  0.00  0.00    +0.210 HD
ENDBRANCH  39  40
ENDBRANCH   5  39
TORSDOF 22
ENDMDL
MODEL 7
REMARK VINA RESULT:      -5.8      2.777      5.005
REMARK  Name = 
REMARK  23 active torsions:
REMARK  status: ('A' for Active; 'I' for Inactive)
REMARK    1  A    between atoms: C_1  and  C_2
REMARK    2  A    between atoms: C_2  and  C_3
REMARK    3  A    between atoms: C_3  and  C_4
REMARK    4  A    between atoms: C_4  and  C_5
REMARK    5  A    between atoms: C_5  and  C_6
REMARK    6  A    between atoms: C_6  and  C_7
REMARK    7  A    between atoms: C_7  and  C_8
REMARK    8  A    between atoms: C_8  and  C_9
REMARK    9  A    between atoms: C_9  and  C_10
REMARK   10  A    between atoms: C_10  and  C_11
REMARK   11  A    between atoms: C_11  and  O_12
REMARK   12  A    between atoms: O_12  and  C_13
REMARK   13  A    between atoms: C_16  and  C_18
REMARK   14  A    between atoms: C_18  and  O_19
REMARK   15  A    between atoms: C_20  and  O_22
REMARK   16  A    between atoms: O_22  and  C_23
REMARK   17  A    between atoms: C_26  and  C_28
REMARK   18  A    between atoms: C_28  and  O_29
REMARK   19  A    between atoms: C_30  and  O_32
REMARK   20  A    between atoms: C_33  and  O_35
REMARK   21  A    between atoms: C_36  and  O_38
REMARK   22  A    between atoms: C_39  and  O_41
REMARK   23  A    between atoms: C_42  and  O_44
REMARK                            x       y       z     vdW  Elec       q    Type
REMARK                         _______ _______ _______ _____ _____    ______ ____
ROOT
ATOM      1  C   UNL     1       6.911   2.202  24.360  0.00  0.00    +0.282 C 
ATOM      2  C   UNL     1       6.185   1.198  25.301  0.00  0.00    +0.201 C 
ATOM      3  C   UNL     1       7.153   0.114  25.826  0.00  0.00    +0.179 C 
ATOM      4  C   UNL     1       7.967  -0.479  24.648  0.00  0.00    +0.183 C 
ATOM      5  C   UNL     1       8.662   0.627  23.829  0.00  0.00    +0.178 C 
ATOM      6  O   UNL     1       7.718   1.587  23.359  0.00  0.00    -0.341 OA
ENDROOT
BRANCH   3   7
ATOM      7  O   UNL     1       7.953   0.590  26.906  0.00  0.00    -0.386 OA
ATOM      8  H   UNL     1       7.373   0.920  27.627  0.00  0.00    +0.210 HD
ENDBRANCH   3   7
BRANCH   2   9
ATOM      9  O   UNL     1       5.109   0.519  24.630  0.00  0.00    -0.384 OA
ATOM     10  H   UNL     1       4.658  -0.025  25.300  0.00  0.00    +0.210 HD
ENDBRANCH   2   9
BRANCH   1  11
ATOM     11  O   UNL     1       6.030   3.197  23.832  0.00  0.00    -0.349 OA
BRANCH  11  12
ATOM     12  C   UNL     1       5.251   3.932  24.771  0.00  0.00    +0.163 C 
BRANCH  12  13
ATOM     13  C   UNL     1       5.270   5.404  24.409  0.00  0.00    +0.028 C 
BRANCH  13  14
ATOM     14  C   UNL     1       5.194   5.612  22.903  0.00  0.00    +0.002 C 
BRANCH  14  15
ATOM     15  C   UNL     1       6.118   6.747  22.497  0.00  0.00    +0.000 C 
BRANCH  15  16
ATOM     16  C   UNL     1       7.434   6.238  21.924  0.00  0.00    +0.000 C 
BRANCH  16  17
ATOM     17  C   UNL     1       8.537   6.398  22.963  0.00  0.00    +0.000 C 
BRANCH  17  18
ATOM     18  C   UNL     1       8.910   5.074  23.614  0.00  0.00    -0.000 C 
BRANCH  18  19
ATOM     19  C   UNL     1      10.172   5.255  24.455  0.00  0.00    -0.000 C 
BRANCH  19  20
ATOM     20  C   UNL     1      11.246   6.039  23.710  0.00  0.00    -0.000 C 
BRANCH  20  22
ATOM     21  C   UNL     1      13.135   5.544  22.117  0.00  0.00    +0.004 C 
ATOM     22  C   UNL     1      12.448   5.144  23.411  0.00  0.00    -0.003 C 
ENDBRANCH  20  22
ENDBRANCH  19  20
ENDBRANCH  18  19
ENDBRANCH  17  18
ENDBRANCH  16  17
ENDBRANCH  15  16
ENDBRANCH  14  15
ENDBRANCH  13  14
ENDBRANCH  12  13
ENDBRANCH  11  12
ENDBRANCH   1  11
BRANCH   4  23
ATOM     23  O   UNL     1       8.930  -1.506  24.933  0.00  0.00    -0.340 OA
BRANCH  23  24
ATOM     24  C   UNL     1       9.067  -2.527  23.934  0.00  0.00    +0.282 C 
ATOM     25  C   UNL     1       7.647  -2.858  23.399  0.00  0.00    +0.201 C 
ATOM     26  C   UNL     1       6.949  -3.934  24.243  0.00  0.00    +0.179 C 
ATOM     27  C   UNL     1       7.870  -5.149  24.389  0.00  0.00    +0.177 C 
ATOM     28  C   UNL     1       9.201  -4.745  25.040  0.00  0.00    +0.178 C 
ATOM     29  O   UNL     1       9.849  -3.641  24.383  0.00  0.00    -0.341 OA
BRANCH  27  30
ATOM     30  O   UNL     1       8.119  -5.700  23.081  0.00  0.00    -0.386 OA
ATOM     31  H   UNL     1       7.493  -5.279  22.461  0.00  0.00    +0.210 HD
ENDBRANCH  27  30
BRANCH  26  32
ATOM     32  O   UNL     1       6.542  -3.471  25.532  0.00  0.00    -0.386 OA
ATOM     33  H   UNL     1       6.214  -2.557  25.449  0.00  0.00    +0.210 HD
ENDBRANCH  26  32
BRANCH  25  34
ATOM     34  O   UNL     1       7.694  -3.265  22.022  0.00  0.00    -0.384 OA
ATOM     35  H   UNL     1       8.303  -4.033  21.968  0.00  0.00    +0.210 HD
ENDBRANCH  25  34
BRANCH  28  36
ATOM     36  C   UNL     1       9.093  -4.546  26.560  0.00  0.00    +0.190 C 
BRANCH  36  37
ATOM     37  O   UNL     1       8.298  -5.583  27.138  0.00  0.00    -0.392 OA
ATOM     38  H   UNL     1       7.551  -5.148  27.585  0.00  0.00    +0.210 HD
ENDBRANCH  36  37
ENDBRANCH  28  36
ENDBRANCH  23  24
ENDBRANCH   4  23
BRANCH   5  39
ATOM     39  C   UNL     1       9.897   1.313  24.453  0.00  0.00    +0.190 C 
BRANCH  39  40
ATOM     40  O   UNL     1      10.549   0.522  25.449  0.00  0.00    -0.392 OA
ATOM     41  H   UNL     1      11.021   1.146  26.038  0.00  0.00    +0.210 HD
ENDBRANCH  39  40
ENDBRANCH   5  39
TORSDOF 22
ENDMDL
MODEL 8
REMARK VINA RESULT:      -5.8      1.925      2.618
REMARK  Name = 
REMARK  23 active torsions:
REMARK  status: ('A' for Active; 'I' for Inactive)
REMARK    1  A    between atoms: C_1  and  C_2
REMARK    2  A    between atoms: C_2  and  C_3
REMARK    3  A    between atoms: C_3  and  C_4
REMARK    4  A    between atoms: C_4  and  C_5
REMARK    5  A    between atoms: C_5  and  C_6
REMARK    6  A    between atoms: C_6  and  C_7
REMARK    7  A    between atoms: C_7  and  C_8
REMARK    8  A    between atoms: C_8  and  C_9
REMARK    9  A    between atoms: C_9  and  C_10
REMARK   10  A    between atoms: C_10  and  C_11
REMARK   11  A    between atoms: C_11  and  O_12
REMARK   12  A    between atoms: O_12  and  C_13
REMARK   13  A    between atoms: C_16  and  C_18
REMARK   14  A    between atoms: C_18  and  O_19
REMARK   15  A    between atoms: C_20  and  O_22
REMARK   16  A    between atoms: O_22  and  C_23
REMARK   17  A    between atoms: C_26  and  C_28
REMARK   18  A    between atoms: C_28  and  O_29
REMARK   19  A    between atoms: C_30  and  O_32
REMARK   20  A    between atoms: C_33  and  O_35
REMARK   21  A    between atoms: C_36  and  O_38
REMARK   22  A    between atoms: C_39  and  O_41
REMARK   23  A    between atoms: C_42  and  O_44
REMARK                            x       y       z     vdW  Elec       q    Type
REMARK                         _______ _______ _______ _____ _____    ______ ____
ROOT
ATOM      1  C   UNL     1       8.985  -2.591  23.449  0.00  0.00    +0.282 C 
ATOM      2  C   UNL     1       8.043  -1.648  24.251  0.00  0.00    +0.201 C 
ATOM      3  C   UNL     1       7.539  -2.321  25.547  0.00  0.00    +0.179 C 
ATOM      4  C   UNL     1       7.015  -3.745  25.231  0.00  0.00    +0.183 C 
ATOM      5  C   UNL     1       8.068  -4.577  24.471  0.00  0.00    +0.178 C 
ATOM      6  O   UNL     1       8.482  -3.913  23.278  0.00  0.00    -0.341 OA
ENDROOT
BRANCH   3   7
ATOM      7  O   UNL     1       8.514  -2.276  26.587  0.00  0.00    -0.386 OA
ATOM      8  H   UNL     1       8.944  -3.155  26.675  0.00  0.00    +0.210 HD
ENDBRANCH   3   7
BRANCH   2   9
ATOM      9  O   UNL     1       6.884  -1.275  23.486  0.00  0.00    -0.384 OA
ATOM     10  H   UNL     1       6.106  -1.587  23.983  0.00  0.00    +0.210 HD
ENDBRANCH   2   9
BRANCH   1  11
ATOM     11  O   UNL     1       9.440  -2.006  22.226  0.00  0.00    -0.349 OA
BRANCH  11  12
ATOM     12  C   UNL     1      10.194  -0.802  22.329  0.00  0.00    +0.163 C 
BRANCH  12  13
ATOM     13  C   UNL     1       9.498   0.305  21.563  0.00  0.00    +0.028 C 
BRANCH  13  14
ATOM     14  C   UNL     1       9.865   1.679  22.105  0.00  0.00    +0.002 C 
BRANCH  14  15
ATOM     15  C   UNL     1      10.431   1.542  23.507  0.00  0.00    +0.000 C 
BRANCH  15  16
ATOM     16  C   UNL     1       9.446   2.008  24.571  0.00  0.00    +0.000 C 
BRANCH  16  17
ATOM     17  C   UNL     1       8.424   2.947  23.942  0.00  0.00    +0.000 C 
BRANCH  17  18
ATOM     18  C   UNL     1       7.707   3.796  24.983  0.00  0.00    -0.000 C 
BRANCH  18  19
ATOM     19  C   UNL     1       8.245   5.224  24.936  0.00  0.00    -0.000 C 
BRANCH  19  20
ATOM     20  C   UNL     1       8.874   5.553  23.587  0.00  0.00    -0.000 C 
BRANCH  20  22
ATOM     21  C   UNL     1      10.419   6.736  25.188  0.00  0.00    +0.004 C 
ATOM     22  C   UNL     1      10.250   6.188  23.781  0.00  0.00    -0.003 C 
ENDBRANCH  20  22
ENDBRANCH  19  20
ENDBRANCH  18  19
ENDBRANCH  17  18
ENDBRANCH  16  17
ENDBRANCH  15  16
ENDBRANCH  14  15
ENDBRANCH  13  14
ENDBRANCH  12  13
ENDBRANCH  11  12
ENDBRANCH   1  11
BRANCH   4  23
ATOM     23  O   UNL     1       6.503  -4.540  26.312  0.00  0.00    -0.340 OA
BRANCH  23  24
ATOM     24  C   UNL     1       5.467  -5.470  25.966  0.00  0.00    +0.282 C 
ATOM     25  C   UNL     1       4.102  -4.765  26.198  0.00  0.00    +0.201 C 
ATOM     26  C   UNL     1       3.609  -4.923  27.643  0.00  0.00    +0.179 C 
ATOM     27  C   UNL     1       3.631  -6.403  28.033  0.00  0.00    +0.177 C 
ATOM     28  C   UNL     1       5.046  -6.982  27.890  0.00  0.00    +0.178 C 
ATOM     29  O   UNL     1       5.634  -6.746  26.597  0.00  0.00    -0.341 OA
BRANCH  27  30
ATOM     30  O   UNL     1       2.726  -7.122  27.172  0.00  0.00    -0.386 OA
ATOM     31  H   UNL     1       2.718  -8.053  27.465  0.00  0.00    +0.210 HD
ENDBRANCH  27  30
BRANCH  26  32
ATOM     32  O   UNL     1       4.359  -4.158  28.588  0.00  0.00    -0.386 OA
ATOM     33  H   UNL     1       5.007  -4.742  29.023  0.00  0.00    +0.210 HD
ENDBRANCH  26  32
BRANCH  25  34
ATOM     34  O   UNL     1       3.107  -5.249  25.281  0.00  0.00    -0.384 OA
ATOM     35  H   UNL     1       2.929  -4.527  24.640  0.00  0.00    +0.210 HD
ENDBRANCH  25  34
BRANCH  28  36
ATOM     36  C   UNL     1       5.981  -6.583  29.044  0.00  0.00    +0.190 C 
BRANCH  36  37
ATOM     37  O   UNL     1       7.320  -6.445  28.568  0.00  0.00    -0.392 OA
ATOM     38  H   UNL     1       7.899  -6.453  29.350  0.00  0.00    +0.210 HD
ENDBRANCH  36  37
ENDBRANCH  28  36
ENDBRANCH  23  24
ENDBRANCH   4  23
BRANCH   5  39
ATOM     39  C   UNL     1       9.279  -5.104  25.270  0.00  0.00    +0.190 C 
BRANCH  39  40
ATOM     40  O   UNL     1       9.034  -5.218  26.673  0.00  0.00    -0.392 OA
ATOM     41  H   UNL     1       8.265  -5.815  26.776  0.00  0.00    +0.210 HD
ENDBRANCH  39  40
ENDBRANCH   5  39
TORSDOF 22
ENDMDL
MODEL 9
REMARK VINA RESULT:      -5.8      3.539      9.245
REMARK  Name = 
REMARK  23 active torsions:
REMARK  status: ('A' for Active; 'I' for Inactive)
REMARK    1  A    between atoms: C_1  and  C_2
REMARK    2  A    between atoms: C_2  and  C_3
REMARK    3  A    between atoms: C_3  and  C_4
REMARK    4  A    between atoms: C_4  and  C_5
REMARK    5  A    between atoms: C_5  and  C_6
REMARK    6  A    between atoms: C_6  and  C_7
REMARK    7  A    between atoms: C_7  and  C_8
REMARK    8  A    between atoms: C_8  and  C_9
REMARK    9  A    between atoms: C_9  and  C_10
REMARK   10  A    between atoms: C_10  and  C_11
REMARK   11  A    between atoms: C_11  and  O_12
REMARK   12  A    between atoms: O_12  and  C_13
REMARK   13  A    between atoms: C_16  and  C_18
REMARK   14  A    between atoms: C_18  and  O_19
REMARK   15  A    between atoms: C_20  and  O_22
REMARK   16  A    between atoms: O_22  and  C_23
REMARK   17  A    between atoms: C_26  and  C_28
REMARK   18  A    between atoms: C_28  and  O_29
REMARK   19  A    between atoms: C_30  and  O_32
REMARK   20  A    between atoms: C_33  and  O_35
REMARK   21  A    between atoms: C_36  and  O_38
REMARK   22  A    between atoms: C_39  and  O_41
REMARK   23  A    between atoms: C_42  and  O_44
REMARK                            x       y       z     vdW  Elec       q    Type
REMARK                         _______ _______ _______ _____ _____    ______ ____
ROOT
ATOM      1  C   UNL     1       9.532  -0.646  23.270  0.00  0.00    +0.282 C 
ATOM      2  C   UNL     1       8.435  -0.275  22.232  0.00  0.00    +0.201 C 
ATOM      3  C   UNL     1       8.339   1.254  22.033  0.00  0.00    +0.179 C 
ATOM      4  C   UNL     1       8.281   1.962  23.410  0.00  0.00    +0.183 C 
ATOM      5  C   UNL     1       9.450   1.528  24.317  0.00  0.00    +0.178 C 
ATOM      6  O   UNL     1       9.476   0.110  24.477  0.00  0.00    -0.341 OA
ENDROOT
BRANCH   3   7
ATOM      7  O   UNL     1       9.362   1.745  21.168  0.00  0.00    -0.386 OA
ATOM      8  H   UNL     1      10.121   1.122  21.167  0.00  0.00    +0.210 HD
ENDBRANCH   3   7
BRANCH   2   9
ATOM      9  O   UNL     1       7.134  -0.733  22.643  0.00  0.00    -0.384 OA
ATOM     10  H   UNL     1       6.516  -0.502  21.926  0.00  0.00    +0.210 HD
ENDBRANCH   2   9
BRANCH   1  11
ATOM     11  O   UNL     1       9.618  -2.055  23.500  0.00  0.00    -0.349 OA
BRANCH  11  12
ATOM     12  C   UNL     1       9.184  -2.528  24.771  0.00  0.00    +0.163 C 
BRANCH  12  13
ATOM     13  C   UNL     1       8.017  -3.479  24.591  0.00  0.00    +0.028 C 
BRANCH  13  14
ATOM     14  C   UNL     1       8.413  -4.917  24.893  0.00  0.00    +0.002 C 
BRANCH  14  15
ATOM     15  C   UNL     1       7.799  -5.351  26.212  0.00  0.00    +0.000 C 
BRANCH  15  16
ATOM     16  C   UNL     1       6.336  -4.943  26.325  0.00  0.00    +0.000 C 
BRANCH  16  17
ATOM     17  C   UNL     1       5.453  -6.181  26.230  0.00  0.00    +0.000 C 
BRANCH  17  18
ATOM     18  C   UNL     1       4.932  -6.409  24.817  0.00  0.00    -0.000 C 
BRANCH  18  19
ATOM     19  C   UNL     1       4.446  -5.084  24.233  0.00  0.00    -0.000 C 
BRANCH  19  20
ATOM     20  C   UNL     1       5.081  -4.791  22.878  0.00  0.00    -0.000 C 
BRANCH  20  22
ATOM     21  C   UNL     1       7.044  -5.611  21.529  0.00  0.00    +0.004 C 
ATOM     22  C   UNL     1       5.847  -6.012  22.374  0.00  0.00    -0.003 C 
ENDBRANCH  20  22
ENDBRANCH  19  20
ENDBRANCH  18  19
ENDBRANCH  17  18
ENDBRANCH  16  17
ENDBRANCH  15  16
ENDBRANCH  14  15
ENDBRANCH  13  14
ENDBRANCH  12  13
ENDBRANCH  11  12
ENDBRANCH   1  11
BRANCH   4  23
ATOM     23  O   UNL     1       8.192   3.395  23.439  0.00  0.00    -0.340 OA
BRANCH  23  24
ATOM     24  C   UNL     1       7.410   3.993  22.395  0.00  0.00    +0.282 C 
ATOM     25  C   UNL     1       7.458   5.533  22.592  0.00  0.00    +0.201 C 
ATOM     26  C   UNL     1       6.360   6.027  23.546  0.00  0.00    +0.179 C 
ATOM     27  C   UNL     1       5.003   5.490  23.087  0.00  0.00    +0.177 C 
ATOM     28  C   UNL     1       5.013   3.955  23.041  0.00  0.00    +0.178 C 
ATOM     29  O   UNL     1       6.105   3.412  22.277  0.00  0.00    -0.341 OA
BRANCH  27  30
ATOM     30  O   UNL     1       4.720   6.011  21.773  0.00  0.00    -0.386 OA
ATOM     31  H   UNL     1       4.256   6.862  21.888  0.00  0.00    +0.210 HD
ENDBRANCH  27  30
BRANCH  26  32
ATOM     32  O   UNL     1       6.591   5.673  24.911  0.00  0.00    -0.386 OA
ATOM     33  H   UNL     1       7.509   5.359  25.004  0.00  0.00    +0.210 HD
ENDBRANCH  26  32
BRANCH  25  34
ATOM     34  O   UNL     1       7.364   6.219  21.334  0.00  0.00    -0.384 OA
ATOM     35  H   UNL     1       7.226   7.171  21.533  0.00  0.00    +0.210 HD
ENDBRANCH  25  34
BRANCH  28  36
ATOM     36  C   UNL     1       4.887   3.309  24.430  0.00  0.00    +0.190 C 
BRANCH  36  37
ATOM     37  O   UNL     1       4.193   2.064  24.333  0.00  0.00    -0.392 OA
ATOM     38  H   UNL     1       4.789   1.382  24.690  0.00  0.00    +0.210 HD
ENDBRANCH  36  37
ENDBRANCH  28  36
ENDBRANCH  23  24
ENDBRANCH   4  23
BRANCH   5  39
ATOM     39  C   UNL     1      10.853   2.083  23.993  0.00  0.00    +0.190 C 
BRANCH  39  40
ATOM     40  O   UNL     1      10.836   3.199  23.101  0.00  0.00    -0.392 OA
ATOM     41  H   UNL     1      11.122   3.978  23.620  0.00  0.00    +0.210 HD
ENDBRANCH  39  40
ENDBRANCH   5  39
TORSDOF 22
ENDMDL
