MODEL 1
REMARK VINA RESULT:      -6.9      0.000      0.000
REMARK  Name = 
REMARK  11 active torsions:
REMARK  status: ('A' for Active; 'I' for Inactive)
REMARK    1  A    between atoms: O_1  and  C_2
REMARK    2  A    between atoms: C_2  and  C_3
REMARK    3  A    between atoms: C_3  and  O_4
REMARK    4  A    between atoms: O_4  and  C_5
REMARK    5  A    between atoms: C_5  and  C_6
REMARK    6  A    between atoms: C_6  and  O_7
REMARK    7  A    between atoms: O_7  and  C_8
REMARK    8  A    between atoms: C_8  and  C_10
REMARK    9  A    between atoms: C_15  and  N_16
REMARK   10  A    between atoms: N_16  and  C_17
REMARK   11  A    between atoms: C_21  and  C_23
REMARK                            x       y       z     vdW  Elec       q    Type
REMARK                         _______ _______ _______ _____ _____    ______ ____
ROOT
ATOM      1  C   UNL     1       7.809  -4.762  23.713  0.00  0.00    +0.080 A 
ATOM      2  C   UNL     1       7.088  -3.555  23.573  0.00  0.00    +0.045 A 
ATOM      3  C   UNL     1       6.168  -3.453  22.508  0.00  0.00    +0.024 A 
ATOM      4  C   UNL     1       6.027  -4.466  21.559  0.00  0.00    +0.002 A 
ATOM      5  C   UNL     1       6.790  -5.618  21.660  0.00  0.00    +0.001 A 
ATOM      6  C   UNL     1       7.665  -5.771  22.736  0.00  0.00    +0.017 A 
ENDROOT
BRANCH   1   7
ATOM      7  C   UNL     1       8.792  -4.970  24.822  0.00  0.00    +0.341 C 
ATOM      8  O   UNL     1       9.939  -4.548  24.809  0.00  0.00    -0.245 OA
BRANCH   7   9
ATOM      9  O   UNL     1       8.254  -5.760  25.789  0.00  0.00    -0.459 OA
BRANCH   9  10
ATOM     10  C   UNL     1       7.817  -5.079  26.969  0.00  0.00    +0.260 C 
BRANCH  10  11
ATOM     11  C   UNL     1       6.388  -5.421  27.378  0.00  0.00    +0.201 C 
BRANCH  11  12
ATOM     12  O   UNL     1       5.983  -6.549  26.595  0.00  0.00    -0.374 OA
BRANCH  12  13
ATOM     13  C   UNL     1       4.609  -6.508  26.222  0.00  0.00    +0.187 C 
BRANCH  13  14
ATOM     14  C   UNL     1       4.516  -6.250  24.722  0.00  0.00    +0.184 C 
BRANCH  14  15
ATOM     15  O   UNL     1       4.570  -7.474  23.998  0.00  0.00    -0.393 OA
ATOM     16  H   UNL     1       5.273  -8.011  24.405  0.00  0.00    +0.209 HD
ENDBRANCH  14  15
ENDBRANCH  13  14
ENDBRANCH  12  13
ENDBRANCH  11  12
ENDBRANCH  10  11
ENDBRANCH   9  10
ENDBRANCH   7   9
ENDBRANCH   1   7
BRANCH   2  17
ATOM     17  N   UNL     1       7.222  -2.452  24.462  0.00  0.00    -0.314 N 
ATOM     18  H   UNL     1       7.130  -2.736  25.445  0.00  0.00    +0.152 HD
BRANCH  17  19
ATOM     19  C   UNL     1       8.119  -1.361  24.339  0.00  0.00    +0.032 A 
ATOM     20  C   UNL     1       8.219  -0.585  23.173  0.00  0.00    +0.035 A 
ATOM     21  C   UNL     1       9.151   0.465  23.064  0.00  0.00    +0.057 A 
ATOM     22  C   UNL     1       9.982   0.748  24.154  0.00  0.00    +0.012 A 
ATOM     23  C   UNL     1       9.899  -0.018  25.316  0.00  0.00    +0.002 A 
ATOM     24  C   UNL     1       8.986  -1.074  25.399  0.00  0.00    +0.023 A 
BRANCH  21  25
ATOM     25  C   UNL     1       9.254   1.255  21.782  0.00  0.00    +0.417 C 
ATOM     26  F   UNL     1       9.150   0.472  20.672  0.00  0.00    -0.166 F 
ATOM     27  F   UNL     1      10.445   1.909  21.667  0.00  0.00    -0.166 F 
ATOM     28  F   UNL     1       8.293   2.213  21.650  0.00  0.00    -0.166 F 
ENDBRANCH  21  25
ENDBRANCH  17  19
ENDBRANCH   2  17
TORSDOF 11
ENDMDL
MODEL 2
REMARK VINA RESULT:      -6.6      1.316      1.764
REMARK  Name = 
REMARK  11 active torsions:
REMARK  status: ('A' for Active; 'I' for Inactive)
REMARK    1  A    between atoms: O_1  and  C_2
REMARK    2  A    between atoms: C_2  and  C_3
REMARK    3  A    between atoms: C_3  and  O_4
REMARK    4  A    between atoms: O_4  and  C_5
REMARK    5  A    between atoms: C_5  and  C_6
REMARK    6  A    between atoms: C_6  and  O_7
REMARK    7  A    between atoms: O_7  and  C_8
REMARK    8  A    between atoms: C_8  and  C_10
REMARK    9  A    between atoms: C_15  and  N_16
REMARK   10  A    between atoms: N_16  and  C_17
REMARK   11  A    between atoms: C_21  and  C_23
REMARK                            x       y       z     vdW  Elec       q    Type
REMARK                         _______ _______ _______ _____ _____    ______ ____
ROOT
ATOM      1  C   UNL     1       7.889  -4.583  23.595  0.00  0.00    +0.080 A 
ATOM      2  C   UNL     1       7.219  -3.402  23.205  0.00  0.00    +0.045 A 
ATOM      3  C   UNL     1       6.225  -3.502  22.209  0.00  0.00    +0.024 A 
ATOM      4  C   UNL     1       5.961  -4.704  21.553  0.00  0.00    +0.002 A 
ATOM      5  C   UNL     1       6.673  -5.845  21.888  0.00  0.00    +0.001 A 
ATOM      6  C   UNL     1       7.621  -5.789  22.910  0.00  0.00    +0.017 A 
ENDROOT
BRANCH   1   7
ATOM      7  C   UNL     1       8.945  -4.578  24.655  0.00  0.00    +0.341 C 
ATOM      8  O   UNL     1      10.046  -4.065  24.525  0.00  0.00    -0.245 OA
BRANCH   7   9
ATOM      9  O   UNL     1       8.534  -5.297  25.735  0.00  0.00    -0.459 OA
BRANCH   9  10
ATOM     10  C   UNL     1       7.812  -4.560  26.727  0.00  0.00    +0.260 C 
BRANCH  10  11
ATOM     11  C   UNL     1       6.692  -5.358  27.386  0.00  0.00    +0.201 C 
BRANCH  11  12
ATOM     12  O   UNL     1       6.233  -6.314  26.425  0.00  0.00    -0.374 OA
BRANCH  12  13
ATOM     13  C   UNL     1       5.110  -5.859  25.675  0.00  0.00    +0.187 C 
BRANCH  13  14
ATOM     14  C   UNL     1       4.210  -7.052  25.369  0.00  0.00    +0.184 C 
BRANCH  14  15
ATOM     15  O   UNL     1       4.435  -7.525  24.047  0.00  0.00    -0.393 OA
ATOM     16  H   UNL     1       4.869  -8.393  24.129  0.00  0.00    +0.209 HD
ENDBRANCH  14  15
ENDBRANCH  13  14
ENDBRANCH  12  13
ENDBRANCH  11  12
ENDBRANCH  10  11
ENDBRANCH   9  10
ENDBRANCH   7   9
ENDBRANCH   1   7
BRANCH   2  17
ATOM     17  N   UNL     1       7.476  -2.126  23.782  0.00  0.00    -0.314 N 
ATOM     18  H   UNL     1       7.603  -2.183  24.800  0.00  0.00    +0.152 HD
BRANCH  17  19
ATOM     19  C   UNL     1       8.270  -1.086  23.236  0.00  0.00    +0.032 A 
ATOM     20  C   UNL     1       8.385   0.178  23.835  0.00  0.00    +0.035 A 
ATOM     21  C   UNL     1       9.146   1.206  23.246  0.00  0.00    +0.057 A 
ATOM     22  C   UNL     1       9.815   0.949  22.043  0.00  0.00    +0.012 A 
ATOM     23  C   UNL     1       9.704  -0.300  21.433  0.00  0.00    +0.002 A 
ATOM     24  C   UNL     1       8.924  -1.302  22.018  0.00  0.00    +0.023 A 
BRANCH  21  25
ATOM     25  C   UNL     1       9.218   2.564  23.900  0.00  0.00    +0.417 C 
ATOM     26  F   UNL     1       8.433   3.489  23.281  0.00  0.00    -0.166 F 
ATOM     27  F   UNL     1      10.480   3.081  23.891  0.00  0.00    -0.166 F 
ATOM     28  F   UNL     1       8.830   2.564  25.207  0.00  0.00    -0.166 F 
ENDBRANCH  21  25
ENDBRANCH  17  19
ENDBRANCH   2  17
TORSDOF 11
ENDMDL
MODEL 3
REMARK VINA RESULT:      -6.5      4.486      8.159
REMARK  Name = 
REMARK  11 active torsions:
REMARK  status: ('A' for Active; 'I' for Inactive)
REMARK    1  A    between atoms: O_1  and  C_2
REMARK    2  A    between atoms: C_2  and  C_3
REMARK    3  A    between atoms: C_3  and  O_4
REMARK    4  A    between atoms: O_4  and  C_5
REMARK    5  A    between atoms: C_5  and  C_6
REMARK    6  A    between atoms: C_6  and  O_7
REMARK    7  A    between atoms: O_7  and  C_8
REMARK    8  A    between atoms: C_8  and  C_10
REMARK    9  A    between atoms: C_15  and  N_16
REMARK   10  A    between atoms: N_16  and  C_17
REMARK   11  A    between atoms: C_21  and  C_23
REMARK                            x       y       z     vdW  Elec       q    Type
REMARK                         _______ _______ _______ _____ _____    ______ ____
ROOT
ATOM      1  C   UNL     1       7.951   0.778  22.706  0.00  0.00    +0.080 A 
ATOM      2  C   UNL     1       7.803  -0.119  23.788  0.00  0.00    +0.045 A 
ATOM      3  C   UNL     1       6.676   0.031  24.623  0.00  0.00    +0.024 A 
ATOM      4  C   UNL     1       5.774   1.082  24.459  0.00  0.00    +0.002 A 
ATOM      5  C   UNL     1       5.965   2.003  23.440  0.00  0.00    +0.001 A 
ATOM      6  C   UNL     1       7.037   1.845  22.563  0.00  0.00    +0.017 A 
ENDROOT
BRANCH   1   7
ATOM      7  C   UNL     1       9.104   0.686  21.756  0.00  0.00    +0.341 C 
ATOM      8  O   UNL     1       9.338  -0.286  21.055  0.00  0.00    -0.245 OA
BRANCH   7   9
ATOM      9  O   UNL     1       9.887   1.794  21.855  0.00  0.00    -0.459 OA
BRANCH   9  10
ATOM     10  C   UNL     1      10.483   2.014  23.138  0.00  0.00    +0.260 C 
BRANCH  10  11
ATOM     11  C   UNL     1      10.533   3.484  23.544  0.00  0.00    +0.201 C 
BRANCH  11  12
ATOM     12  O   UNL     1      11.892   3.912  23.416  0.00  0.00    -0.374 OA
BRANCH  12  13
ATOM     13  C   UNL     1      12.021   5.316  23.213  0.00  0.00    +0.187 C 
BRANCH  13  14
ATOM     14  C   UNL     1      13.283   5.579  22.398  0.00  0.00    +0.184 C 
BRANCH  14  15
ATOM     15  O   UNL     1      14.435   5.121  23.094  0.00  0.00    -0.393 OA
ATOM     16  H   UNL     1      15.154   5.060  22.439  0.00  0.00    +0.209 HD
ENDBRANCH  14  15
ENDBRANCH  13  14
ENDBRANCH  12  13
ENDBRANCH  11  12
ENDBRANCH  10  11
ENDBRANCH   9  10
ENDBRANCH   7   9
ENDBRANCH   1   7
BRANCH   2  17
ATOM     17  N   UNL     1       8.714  -1.178  24.060  0.00  0.00    -0.314 N 
ATOM     18  H   UNL     1       9.287  -0.990  24.891  0.00  0.00    +0.152 HD
BRANCH  17  19
ATOM     19  C   UNL     1       8.470  -2.569  23.924  0.00  0.00    +0.032 A 
ATOM     20  C   UNL     1       7.662  -3.104  22.908  0.00  0.00    +0.035 A 
ATOM     21  C   UNL     1       7.403  -4.486  22.825  0.00  0.00    +0.057 A 
ATOM     22  C   UNL     1       7.981  -5.341  23.771  0.00  0.00    +0.012 A 
ATOM     23  C   UNL     1       8.779  -4.823  24.789  0.00  0.00    +0.002 A 
ATOM     24  C   UNL     1       9.008  -3.446  24.872  0.00  0.00    +0.023 A 
BRANCH  21  25
ATOM     25  C   UNL     1       6.501  -5.022  21.740  0.00  0.00    +0.417 C 
ATOM     26  F   UNL     1       5.969  -4.037  20.964  0.00  0.00    -0.166 F 
ATOM     27  F   UNL     1       5.440  -5.717  22.241  0.00  0.00    -0.166 F 
ATOM     28  F   UNL     1       7.127  -5.875  20.879  0.00  0.00    -0.166 F 
ENDBRANCH  21  25
ENDBRANCH  17  19
ENDBRANCH   2  17
TORSDOF 11
ENDMDL
MODEL 4
REMARK VINA RESULT:      -6.5      3.602      5.796
REMARK  Name = 
REMARK  11 active torsions:
REMARK  status: ('A' for Active; 'I' for Inactive)
REMARK    1  A    between atoms: O_1  and  C_2
REMARK    2  A    between atoms: C_2  and  C_3
REMARK    3  A    between atoms: C_3  and  O_4
REMARK    4  A    between atoms: O_4  and  C_5
REMARK    5  A    between atoms: C_5  and  C_6
REMARK    6  A    between atoms: C_6  and  O_7
REMARK    7  A    between atoms: O_7  and  C_8
REMARK    8  A    between atoms: C_8  and  C_10
REMARK    9  A    between atoms: C_15  and  N_16
REMARK   10  A    between atoms: N_16  and  C_17
REMARK   11  A    between atoms: C_21  and  C_23
REMARK                            x       y       z     vdW  Elec       q    Type
REMARK                         _______ _______ _______ _____ _____    ______ ____
ROOT
ATOM      1  C   UNL     1       9.735  -0.333  23.027  0.00  0.00    +0.080 A 
ATOM      2  C   UNL     1       9.671   0.141  24.356  0.00  0.00    +0.045 A 
ATOM      3  C   UNL     1       9.638   1.536  24.561  0.00  0.00    +0.024 A 
ATOM      4  C   UNL     1       9.757   2.437  23.503  0.00  0.00    +0.002 A 
ATOM      5  C   UNL     1       9.894   1.966  22.207  0.00  0.00    +0.001 A 
ATOM      6  C   UNL     1       9.870   0.592  21.968  0.00  0.00    +0.017 A 
ENDROOT
BRANCH   1   7
ATOM      7  C   UNL     1       9.756  -1.796  22.710  0.00  0.00    +0.341 C 
ATOM      8  O   UNL     1      10.606  -2.574  23.115  0.00  0.00    -0.245 OA
BRANCH   7   9
ATOM      9  O   UNL     1       8.752  -2.106  21.845  0.00  0.00    -0.459 OA
BRANCH   9  10
ATOM     10  C   UNL     1       7.517  -2.501  22.451  0.00  0.00    +0.260 C 
BRANCH  10  11
ATOM     11  C   UNL     1       7.426  -3.999  22.727  0.00  0.00    +0.201 C 
BRANCH  11  12
ATOM     12  O   UNL     1       6.050  -4.298  22.985  0.00  0.00    -0.374 OA
BRANCH  12  13
ATOM     13  C   UNL     1       5.658  -5.583  22.511  0.00  0.00    +0.187 C 
BRANCH  13  14
ATOM     14  C   UNL     1       6.545  -5.962  21.330  0.00  0.00    +0.184 C 
BRANCH  14  15
ATOM     15  O   UNL     1       5.926  -5.602  20.101  0.00  0.00    -0.393 OA
ATOM     16  H   UNL     1       4.970  -5.538  20.276  0.00  0.00    +0.209 HD
ENDBRANCH  14  15
ENDBRANCH  13  14
ENDBRANCH  12  13
ENDBRANCH  11  12
ENDBRANCH  10  11
ENDBRANCH   9  10
ENDBRANCH   7   9
ENDBRANCH   1   7
BRANCH   2  17
ATOM     17  N   UNL     1       9.610  -0.714  25.492  0.00  0.00    -0.314 N 
ATOM     18  H   UNL     1      10.084  -0.307  26.307  0.00  0.00    +0.152 HD
BRANCH  17  19
ATOM     19  C   UNL     1       8.512  -1.514  25.901  0.00  0.00    +0.032 A 
ATOM     20  C   UNL     1       8.585  -2.912  26.002  0.00  0.00    +0.035 A 
ATOM     21  C   UNL     1       7.466  -3.684  26.368  0.00  0.00    +0.057 A 
ATOM     22  C   UNL     1       6.259  -3.033  26.653  0.00  0.00    +0.012 A 
ATOM     23  C   UNL     1       6.170  -1.646  26.550  0.00  0.00    +0.002 A 
ATOM     24  C   UNL     1       7.284  -0.896  26.161  0.00  0.00    +0.023 A 
BRANCH  21  25
ATOM     25  C   UNL     1       7.572  -5.188  26.433  0.00  0.00    +0.417 C 
ATOM     26  F   UNL     1       8.681  -5.665  25.801  0.00  0.00    -0.166 F 
ATOM     27  F   UNL     1       6.511  -5.811  25.845  0.00  0.00    -0.166 F 
ATOM     28  F   UNL     1       7.630  -5.679  27.703  0.00  0.00    -0.166 F 
ENDBRANCH  21  25
ENDBRANCH  17  19
ENDBRANCH   2  17
TORSDOF 11
ENDMDL
MODEL 5
REMARK VINA RESULT:      -6.5      2.179      3.254
REMARK  Name = 
REMARK  11 active torsions:
REMARK  status: ('A' for Active; 'I' for Inactive)
REMARK    1  A    between atoms: O_1  and  C_2
REMARK    2  A    between atoms: C_2  and  C_3
REMARK    3  A    between atoms: C_3  and  O_4
REMARK    4  A    between atoms: O_4  and  C_5
REMARK    5  A    between atoms: C_5  and  C_6
REMARK    6  A    between atoms: C_6  and  O_7
REMARK    7  A    between atoms: O_7  and  C_8
REMARK    8  A    between atoms: C_8  and  C_10
REMARK    9  A    between atoms: C_15  and  N_16
REMARK   10  A    between atoms: N_16  and  C_17
REMARK   11  A    between atoms: C_21  and  C_23
REMARK                            x       y       z     vdW  Elec       q    Type
REMARK                         _______ _______ _______ _____ _____    ______ ____
ROOT
ATOM      1  C   UNL     1       6.086  -3.558  23.699  0.00  0.00    +0.080 A 
ATOM      2  C   UNL     1       7.341  -3.955  23.184  0.00  0.00    +0.045 A 
ATOM      3  C   UNL     1       7.371  -5.025  22.264  0.00  0.00    +0.024 A 
ATOM      4  C   UNL     1       6.221  -5.741  21.932  0.00  0.00    +0.002 A 
ATOM      5  C   UNL     1       5.004  -5.394  22.496  0.00  0.00    +0.001 A 
ATOM      6  C   UNL     1       4.934  -4.303  23.363  0.00  0.00    +0.017 A 
ENDROOT
BRANCH   1   7
ATOM      7  C   UNL     1       5.953  -2.423  24.665  0.00  0.00    +0.341 C 
ATOM      8  O   UNL     1       5.198  -1.476  24.509  0.00  0.00    -0.245 OA
BRANCH   7   9
ATOM      9  O   UNL     1       6.847  -2.561  25.681  0.00  0.00    -0.459 OA
BRANCH   9  10
ATOM     10  C   UNL     1       6.280  -2.803  26.972  0.00  0.00    +0.260 C 
BRANCH  10  11
ATOM     11  C   UNL     1       6.056  -4.281  27.273  0.00  0.00    +0.201 C 
BRANCH  11  12
ATOM     12  O   UNL     1       7.331  -4.844  27.598  0.00  0.00    -0.374 OA
BRANCH  12  13
ATOM     13  C   UNL     1       7.975  -5.456  26.484  0.00  0.00    +0.187 C 
BRANCH  13  14
ATOM     14  C   UNL     1       9.405  -4.932  26.397  0.00  0.00    +0.184 C 
BRANCH  14  15
ATOM     15  O   UNL     1      10.088  -5.518  25.295  0.00  0.00    -0.393 OA
ATOM     16  H   UNL     1      10.906  -5.912  25.648  0.00  0.00    +0.209 HD
ENDBRANCH  14  15
ENDBRANCH  13  14
ENDBRANCH  12  13
ENDBRANCH  11  12
ENDBRANCH  10  11
ENDBRANCH   9  10
ENDBRANCH   7   9
ENDBRANCH   1   7
BRANCH   2  17
ATOM     17  N   UNL     1       8.567  -3.316  23.523  0.00  0.00    -0.314 N 
ATOM     18  H   UNL     1       9.343  -3.985  23.595  0.00  0.00    +0.152 HD
BRANCH  17  19
ATOM     19  C   UNL     1       9.031  -2.060  23.058  0.00  0.00    +0.032 A 
ATOM     20  C   UNL     1       9.568  -1.083  23.913  0.00  0.00    +0.035 A 
ATOM     21  C   UNL     1       9.981   0.173  23.428  0.00  0.00    +0.057 A 
ATOM     22  C   UNL     1       9.865   0.442  22.059  0.00  0.00    +0.012 A 
ATOM     23  C   UNL     1       9.327  -0.515  21.200  0.00  0.00    +0.002 A 
ATOM     24  C   UNL     1       8.899  -1.749  21.700  0.00  0.00    +0.023 A 
BRANCH  21  25
ATOM     25  C   UNL     1      10.521   1.210  24.381  0.00  0.00    +0.417 C 
ATOM     26  F   UNL     1      11.201   2.205  23.745  0.00  0.00    -0.166 F 
ATOM     27  F   UNL     1      11.393   0.683  25.287  0.00  0.00    -0.166 F 
ATOM     28  F   UNL     1       9.557   1.833  25.117  0.00  0.00    -0.166 F 
ENDBRANCH  21  25
ENDBRANCH  17  19
ENDBRANCH   2  17
TORSDOF 11
ENDMDL
MODEL 6
REMARK VINA RESULT:      -6.4      1.579      2.754
REMARK  Name = 
REMARK  11 active torsions:
REMARK  status: ('A' for Active; 'I' for Inactive)
REMARK    1  A    between atoms: O_1  and  C_2
REMARK    2  A    between atoms: C_2  and  C_3
REMARK    3  A    between atoms: C_3  and  O_4
REMARK    4  A    between atoms: O_4  and  C_5
REMARK    5  A    between atoms: C_5  and  C_6
REMARK    6  A    between atoms: C_6  and  O_7
REMARK    7  A    between atoms: O_7  and  C_8
REMARK    8  A    between atoms: C_8  and  C_10
REMARK    9  A    between atoms: C_15  and  N_16
REMARK   10  A    between atoms: N_16  and  C_17
REMARK   11  A    between atoms: C_21  and  C_23
REMARK                            x       y       z     vdW  Elec       q    Type
REMARK                         _______ _______ _______ _____ _____    ______ ____
ROOT
ATOM      1  C   UNL     1       5.391  -3.964  23.917  0.00  0.00    +0.080 A 
ATOM      2  C   UNL     1       6.084  -3.117  23.023  0.00  0.00    +0.045 A 
ATOM      3  C   UNL     1       6.656  -3.696  21.871  0.00  0.00    +0.024 A 
ATOM      4  C   UNL     1       6.628  -5.073  21.650  0.00  0.00    +0.002 A 
ATOM      5  C   UNL     1       6.010  -5.908  22.567  0.00  0.00    +0.001 A 
ATOM      6  C   UNL     1       5.385  -5.357  23.686  0.00  0.00    +0.017 A 
ENDROOT
BRANCH   1   7
ATOM      7  C   UNL     1       4.737  -3.438  25.156  0.00  0.00    +0.341 C 
ATOM      8  O   UNL     1       4.268  -2.315  25.261  0.00  0.00    -0.245 OA
BRANCH   7   9
ATOM      9  O   UNL     1       4.821  -4.353  26.159  0.00  0.00    -0.459 OA
BRANCH   9  10
ATOM     10  C   UNL     1       5.820  -4.091  27.151  0.00  0.00    +0.260 C 
BRANCH  10  11
ATOM     11  C   UNL     1       6.377  -5.351  27.804  0.00  0.00    +0.201 C 
BRANCH  11  12
ATOM     12  O   UNL     1       7.424  -5.837  26.958  0.00  0.00    -0.374 OA
BRANCH  12  13
ATOM     13  C   UNL     1       8.331  -4.819  26.547  0.00  0.00    +0.187 C 
BRANCH  13  14
ATOM     14  C   UNL     1       8.869  -5.171  25.164  0.00  0.00    +0.184 C 
BRANCH  14  15
ATOM     15  O   UNL     1      10.167  -5.744  25.260  0.00  0.00    -0.393 OA
ATOM     16  H   UNL     1      10.243  -6.392  24.536  0.00  0.00    +0.209 HD
ENDBRANCH  14  15
ENDBRANCH  13  14
ENDBRANCH  12  13
ENDBRANCH  11  12
ENDBRANCH  10  11
ENDBRANCH   9  10
ENDBRANCH   7   9
ENDBRANCH   1   7
BRANCH   2  17
ATOM     17  N   UNL     1       6.211  -1.712  23.212  0.00  0.00    -0.314 N 
ATOM     18  H   UNL     1       5.340  -1.289  23.555  0.00  0.00    +0.152 HD
BRANCH  17  19
ATOM     19  C   UNL     1       7.338  -1.017  23.719  0.00  0.00    +0.032 A 
ATOM     20  C   UNL     1       7.942   0.052  23.038  0.00  0.00    +0.035 A 
ATOM     21  C   UNL     1       9.088   0.695  23.545  0.00  0.00    +0.057 A 
ATOM     22  C   UNL     1       9.621   0.263  24.766  0.00  0.00    +0.012 A 
ATOM     23  C   UNL     1       9.036  -0.801  25.449  0.00  0.00    +0.002 A 
ATOM     24  C   UNL     1       7.913  -1.445  24.920  0.00  0.00    +0.023 A 
BRANCH  21  25
ATOM     25  C   UNL     1       9.732   1.817  22.769  0.00  0.00    +0.417 C 
ATOM     26  F   UNL     1       8.865   2.831  22.493  0.00  0.00    -0.166 F 
ATOM     27  F   UNL     1      10.219   1.405  21.564  0.00  0.00    -0.166 F 
ATOM     28  F   UNL     1      10.785   2.396  23.413  0.00  0.00    -0.166 F 
ENDBRANCH  21  25
ENDBRANCH  17  19
ENDBRANCH   2  17
TORSDOF 11
ENDMDL
MODEL 7
REMARK VINA RESULT:      -6.3      1.146      1.262
REMARK  Name = 
REMARK  11 active torsions:
REMARK  status: ('A' for Active; 'I' for Inactive)
REMARK    1  A    between atoms: O_1  and  C_2
REMARK    2  A    between atoms: C_2  and  C_3
REMARK    3  A    between atoms: C_3  and  O_4
REMARK    4  A    between atoms: O_4  and  C_5
REMARK    5  A    between atoms: C_5  and  C_6
REMARK    6  A    between atoms: C_6  and  O_7
REMARK    7  A    between atoms: O_7  and  C_8
REMARK    8  A    between atoms: C_8  and  C_10
REMARK    9  A    between atoms: C_15  and  N_16
REMARK   10  A    between atoms: N_16  and  C_17
REMARK   11  A    between atoms: C_21  and  C_23
REMARK                            x       y       z     vdW  Elec       q    Type
REMARK                         _______ _______ _______ _____ _____    ______ ____
ROOT
ATOM      1  C   UNL     1       7.904  -4.658  23.886  0.00  0.00    +0.080 A 
ATOM      2  C   UNL     1       8.109  -3.410  23.255  0.00  0.00    +0.045 A 
ATOM      3  C   UNL     1       7.201  -3.022  22.247  0.00  0.00    +0.024 A 
ATOM      4  C   UNL     1       6.183  -3.869  21.809  0.00  0.00    +0.002 A 
ATOM      5  C   UNL     1       6.033  -5.122  22.381  0.00  0.00    +0.001 A 
ATOM      6  C   UNL     1       6.878  -5.509  23.420  0.00  0.00    +0.017 A 
ENDROOT
BRANCH   1   7
ATOM      7  C   UNL     1       8.804  -5.147  24.978  0.00  0.00    +0.341 C 
ATOM      8  O   UNL     1      10.023  -5.089  24.940  0.00  0.00    -0.245 OA
BRANCH   7   9
ATOM      9  O   UNL     1       8.073  -5.736  25.963  0.00  0.00    -0.459 OA
BRANCH   9  10
ATOM     10  C   UNL     1       7.467  -4.839  26.900  0.00  0.00    +0.260 C 
BRANCH  10  11
ATOM     11  C   UNL     1       6.384  -5.490  27.755  0.00  0.00    +0.201 C 
BRANCH  11  12
ATOM     12  O   UNL     1       5.965  -6.676  27.074  0.00  0.00    -0.374 OA
BRANCH  12  13
ATOM     13  C   UNL     1       4.549  -6.782  26.952  0.00  0.00    +0.187 C 
BRANCH  13  14
ATOM     14  C   UNL     1       4.200  -7.025  25.488  0.00  0.00    +0.184 C 
BRANCH  14  15
ATOM     15  O   UNL     1       3.384  -8.182  25.351  0.00  0.00    -0.393 OA
ATOM     16  H   UNL     1       2.747  -7.994  24.638  0.00  0.00    +0.209 HD
ENDBRANCH  14  15
ENDBRANCH  13  14
ENDBRANCH  12  13
ENDBRANCH  11  12
ENDBRANCH  10  11
ENDBRANCH   9  10
ENDBRANCH   7   9
ENDBRANCH   1   7
BRANCH   2  17
ATOM     17  N   UNL     1       9.161  -2.518  23.602  0.00  0.00    -0.314 N 
ATOM     18  H   UNL     1       9.977  -2.627  22.988  0.00  0.00    +0.152 HD
BRANCH  17  19
ATOM     19  C   UNL     1       9.033  -1.171  24.028  0.00  0.00    +0.032 A 
ATOM     20  C   UNL     1       9.475  -0.084  23.258  0.00  0.00    +0.035 A 
ATOM     21  C   UNL     1       9.373   1.241  23.727  0.00  0.00    +0.057 A 
ATOM     22  C   UNL     1       8.803   1.471  24.984  0.00  0.00    +0.012 A 
ATOM     23  C   UNL     1       8.366   0.401  25.763  0.00  0.00    +0.002 A 
ATOM     24  C   UNL     1       8.496  -0.910  25.294  0.00  0.00    +0.023 A 
BRANCH  21  25
ATOM     25  C   UNL     1       9.891   2.382  22.887  0.00  0.00    +0.417 C 
ATOM     26  F   UNL     1      10.449   1.963  21.716  0.00  0.00    -0.166 F 
ATOM     27  F   UNL     1      10.858   3.102  23.524  0.00  0.00    -0.166 F 
ATOM     28  F   UNL     1       8.930   3.284  22.537  0.00  0.00    -0.166 F 
ENDBRANCH  21  25
ENDBRANCH  17  19
ENDBRANCH   2  17
TORSDOF 11
ENDMDL
MODEL 8
REMARK VINA RESULT:      -6.3      2.060      3.494
REMARK  Name = 
REMARK  11 active torsions:
REMARK  status: ('A' for Active; 'I' for Inactive)
REMARK    1  A    between atoms: O_1  and  C_2
REMARK    2  A    between atoms: C_2  and  C_3
REMARK    3  A    between atoms: C_3  and  O_4
REMARK    4  A    between atoms: O_4  and  C_5
REMARK    5  A    between atoms: C_5  and  C_6
REMARK    6  A    between atoms: C_6  and  O_7
REMARK    7  A    between atoms: O_7  and  C_8
REMARK    8  A    between atoms: C_8  and  C_10
REMARK    9  A    between atoms: C_15  and  N_16
REMARK   10  A    between atoms: N_16  and  C_17
REMARK   11  A    between atoms: C_21  and  C_23
REMARK                            x       y       z     vdW  Elec       q    Type
REMARK                         _______ _______ _______ _____ _____    ______ ____
ROOT
ATOM      1  C   UNL     1       7.671  -4.591  23.273  0.00  0.00    +0.080 A 
ATOM      2  C   UNL     1       6.933  -3.497  22.769  0.00  0.00    +0.045 A 
ATOM      3  C   UNL     1       6.086  -3.721  21.663  0.00  0.00    +0.024 A 
ATOM      4  C   UNL     1       6.036  -4.956  21.015  0.00  0.00    +0.002 A 
ATOM      5  C   UNL     1       6.818  -6.006  21.469  0.00  0.00    +0.001 A 
ATOM      6  C   UNL     1       7.620  -5.830  22.596  0.00  0.00    +0.017 A 
ENDROOT
BRANCH   1   7
ATOM      7  C   UNL     1       8.580  -4.454  24.454  0.00  0.00    +0.341 C 
ATOM      8  O   UNL     1       9.735  -4.060  24.388  0.00  0.00    -0.245 OA
BRANCH   7   9
ATOM      9  O   UNL     1       7.965  -4.910  25.578  0.00  0.00    -0.459 OA
BRANCH   9  10
ATOM     10  C   UNL     1       7.943  -3.998  26.681  0.00  0.00    +0.260 C 
BRANCH  10  11
ATOM     11  C   UNL     1       6.738  -3.064  26.676  0.00  0.00    +0.201 C 
BRANCH  11  12
ATOM     12  O   UNL     1       7.228  -1.743  26.423  0.00  0.00    -0.374 OA
BRANCH  12  13
ATOM     13  C   UNL     1       8.617  -1.597  26.705  0.00  0.00    +0.187 C 
BRANCH  13  14
ATOM     14  C   UNL     1       9.148  -0.390  25.939  0.00  0.00    +0.184 C 
BRANCH  14  15
ATOM     15  O   UNL     1       8.347   0.758  26.193  0.00  0.00    -0.393 OA
ATOM     16  H   UNL     1       7.932   0.624  27.064  0.00  0.00    +0.209 HD
ENDBRANCH  14  15
ENDBRANCH  13  14
ENDBRANCH  12  13
ENDBRANCH  11  12
ENDBRANCH  10  11
ENDBRANCH   9  10
ENDBRANCH   7   9
ENDBRANCH   1   7
BRANCH   2  17
ATOM     17  N   UNL     1       6.978  -2.192  23.336  0.00  0.00    -0.314 N 
ATOM     18  H   UNL     1       7.088  -2.219  24.357  0.00  0.00    +0.152 HD
BRANCH  17  19
ATOM     19  C   UNL     1       7.617  -1.048  22.793  0.00  0.00    +0.032 A 
ATOM     20  C   UNL     1       7.101   0.250  22.935  0.00  0.00    +0.035 A 
ATOM     21  C   UNL     1       7.734   1.363  22.348  0.00  0.00    +0.057 A 
ATOM     22  C   UNL     1       8.914   1.164  21.621  0.00  0.00    +0.012 A 
ATOM     23  C   UNL     1       9.434  -0.120  21.466  0.00  0.00    +0.002 A 
ATOM     24  C   UNL     1       8.780  -1.217  22.035  0.00  0.00    +0.023 A 
BRANCH  21  25
ATOM     25  C   UNL     1       7.132   2.739  22.492  0.00  0.00    +0.417 C 
ATOM     26  F   UNL     1       7.096   3.165  23.785  0.00  0.00    -0.166 F 
ATOM     27  F   UNL     1       5.845   2.794  22.045  0.00  0.00    -0.166 F 
ATOM     28  F   UNL     1       7.803   3.705  21.802  0.00  0.00    -0.166 F 
ENDBRANCH  21  25
ENDBRANCH  17  19
ENDBRANCH   2  17
TORSDOF 11
ENDMDL
MODEL 9
REMARK VINA RESULT:      -6.1      3.346      5.882
REMARK  Name = 
REMARK  11 active torsions:
REMARK  status: ('A' for Active; 'I' for Inactive)
REMARK    1  A    between atoms: O_1  and  C_2
REMARK    2  A    between atoms: C_2  and  C_3
REMARK    3  A    between atoms: C_3  and  O_4
REMARK    4  A    between atoms: O_4  and  C_5
REMARK    5  A    between atoms: C_5  and  C_6
REMARK    6  A    between atoms: C_6  and  O_7
REMARK    7  A    between atoms: O_7  and  C_8
REMARK    8  A    between atoms: C_8  and  C_10
REMARK    9  A    between atoms: C_15  and  N_16
REMARK   10  A    between atoms: N_16  and  C_17
REMARK   11  A    between atoms: C_21  and  C_23
REMARK                            x       y       z     vdW  Elec       q    Type
REMARK                         _______ _______ _______ _____ _____    ______ ____
ROOT
ATOM      1  C   UNL     1       9.311   1.182  23.693  0.00  0.00    +0.080 A 
ATOM      2  C   UNL     1       8.537   0.636  22.645  0.00  0.00    +0.045 A 
ATOM      3  C   UNL     1       7.712   1.511  21.905  0.00  0.00    +0.024 A 
ATOM      4  C   UNL     1       7.582   2.858  22.243  0.00  0.00    +0.002 A 
ATOM      5  C   UNL     1       8.288   3.373  23.318  0.00  0.00    +0.001 A 
ATOM      6  C   UNL     1       9.155   2.545  24.031  0.00  0.00    +0.017 A 
ENDROOT
BRANCH   1   7
ATOM      7  C   UNL     1      10.228   0.337  24.520  0.00  0.00    +0.341 C 
ATOM      8  O   UNL     1      11.411   0.581  24.699  0.00  0.00    -0.245 OA
BRANCH   7   9
ATOM      9  O   UNL     1       9.576  -0.773  24.962  0.00  0.00    -0.459 OA
BRANCH   9  10
ATOM     10  C   UNL     1       8.957  -0.653  26.247  0.00  0.00    +0.260 C 
BRANCH  10  11
ATOM     11  C   UNL     1       8.225  -1.915  26.692  0.00  0.00    +0.201 C 
BRANCH  11  12
ATOM     12  O   UNL     1       8.518  -2.934  25.731  0.00  0.00    -0.374 OA
BRANCH  12  13
ATOM     13  C   UNL     1       8.440  -4.251  26.269  0.00  0.00    +0.187 C 
BRANCH  13  14
ATOM     14  C   UNL     1       9.828  -4.882  26.221  0.00  0.00    +0.184 C 
BRANCH  14  15
ATOM     15  O   UNL     1       9.782  -6.149  25.576  0.00  0.00    -0.393 OA
ATOM     16  H   UNL     1       9.078  -6.097  24.905  0.00  0.00    +0.209 HD
ENDBRANCH  14  15
ENDBRANCH  13  14
ENDBRANCH  12  13
ENDBRANCH  11  12
ENDBRANCH  10  11
ENDBRANCH   9  10
ENDBRANCH   7   9
ENDBRANCH   1   7
BRANCH   2  17
ATOM     17  N   UNL     1       8.567  -0.739  22.280  0.00  0.00    -0.314 N 
ATOM     18  H   UNL     1       9.525  -1.107  22.244  0.00  0.00    +0.152 HD
BRANCH  17  19
ATOM     19  C   UNL     1       7.658  -1.749  22.686  0.00  0.00    +0.032 A 
ATOM     20  C   UNL     1       7.831  -3.104  22.358  0.00  0.00    +0.035 A 
ATOM     21  C   UNL     1       6.889  -4.080  22.738  0.00  0.00    +0.057 A 
ATOM     22  C   UNL     1       5.765  -3.684  23.473  0.00  0.00    +0.012 A 
ATOM     23  C   UNL     1       5.577  -2.343  23.799  0.00  0.00    +0.002 A 
ATOM     24  C   UNL     1       6.509  -1.382  23.394  0.00  0.00    +0.023 A 
BRANCH  21  25
ATOM     25  C   UNL     1       7.090  -5.520  22.338  0.00  0.00    +0.417 C 
ATOM     26  F   UNL     1       7.207  -5.681  20.991  0.00  0.00    -0.166 F 
ATOM     27  F   UNL     1       6.051  -6.317  22.720  0.00  0.00    -0.166 F 
ATOM     28  F   UNL     1       8.206  -6.088  22.878  0.00  0.00    -0.166 F 
ENDBRANCH  21  25
ENDBRANCH  17  19
ENDBRANCH   2  17
TORSDOF 11
ENDMDL
