MODEL 1
REMARK VINA RESULT:      -6.9      0.000      0.000
REMARK  Name = 
REMARK  6 active torsions:
REMARK  status: ('A' for Active; 'I' for Inactive)
REMARK    1  A    between atoms: O_1  and  C_2
REMARK    2  A    between atoms: C_2  and  C_4
REMARK    3  A    between atoms: C_4  and  C_5
REMARK    4  A    between atoms: C_5  and  C_6
REMARK    5  A    between atoms: C_10  and  O_11
REMARK    6  A    between atoms: C_19  and  O_20
REMARK                            x       y       z     vdW  Elec       q    Type
REMARK                         _______ _______ _______ _____ _____    ______ ____
ROOT
ATOM      1  C   UNL     1       6.859  -1.750  23.794  0.00  0.00    +0.057 C 
ATOM      2  C   UNL     1       7.735  -0.633  23.256  0.00  0.00    +0.003 A 
ATOM      3  C   UNL     1       7.181   0.606  22.888  0.00  0.00    +0.011 A 
ATOM      4  C   UNL     1       7.971   1.590  22.286  0.00  0.00    +0.046 A 
ATOM      5  C   UNL     1       9.320   1.342  22.064  0.00  0.00    +0.120 A 
ATOM      6  C   UNL     1       9.894   0.139  22.455  0.00  0.00    +0.092 A 
ATOM      7  C   UNL     1       9.102  -0.847  23.050  0.00  0.00    +0.136 A 
ATOM      8  O   UNL     1       9.742  -2.017  23.380  0.00  0.00    -0.455 OA
ATOM      9  C   UNL     1       9.056  -2.952  24.117  0.00  0.00    +0.136 A 
ATOM     10  C   UNL     1       9.796  -4.053  24.557  0.00  0.00    +0.092 A 
ATOM     11  C   UNL     1       9.171  -5.061  25.281  0.00  0.00    +0.120 A 
ATOM     12  C   UNL     1       7.833  -4.954  25.635  0.00  0.00    +0.046 A 
ATOM     13  C   UNL     1       7.112  -3.829  25.242  0.00  0.00    +0.011 A 
ATOM     14  C   UNL     1       7.694  -2.851  24.416  0.00  0.00    +0.003 A 
ENDROOT
BRANCH   5  15
ATOM     15  O   UNL     1      10.118   2.260  21.447  0.00  0.00    -0.507 OA
ATOM     16  H   UNL     1      10.159   3.059  21.997  0.00  0.00    +0.292 HD
ENDBRANCH   5  15
BRANCH  11  17
ATOM     17  O   UNL     1       9.907  -6.155  25.624  0.00  0.00    -0.507 OA
ATOM     18  H   UNL     1      10.561  -6.327  24.928  0.00  0.00    +0.292 HD
ENDBRANCH  11  17
BRANCH   1  19
ATOM     19  C   UNL     1       5.983  -2.293  22.630  0.00  0.00    +0.024 C 
BRANCH  19  20
ATOM     20  C   UNL     1       6.622  -3.407  21.803  0.00  0.00    +0.121 C 
BRANCH  20  21
ATOM     21  C   UNL     1       5.714  -4.602  21.719  0.00  0.00    +0.305 C 
ATOM     22  O   UNL     1       4.773  -4.794  22.469  0.00  0.00    -0.251 OA
BRANCH  21  23
ATOM     23  O   UNL     1       6.035  -5.447  20.711  0.00  0.00    -0.481 OA
ATOM     24  H   UNL     1       5.508  -6.269  20.690  0.00  0.00    +0.295 HD
ENDBRANCH  21  23
ENDBRANCH  20  21
ENDBRANCH  19  20
ENDBRANCH   1  19
TORSDOF 6
ENDMDL
MODEL 2
REMARK VINA RESULT:      -6.7      1.287      5.546
REMARK  Name = 
REMARK  6 active torsions:
REMARK  status: ('A' for Active; 'I' for Inactive)
REMARK    1  A    between atoms: O_1  and  C_2
REMARK    2  A    between atoms: C_2  and  C_4
REMARK    3  A    between atoms: C_4  and  C_5
REMARK    4  A    between atoms: C_5  and  C_6
REMARK    5  A    between atoms: C_10  and  O_11
REMARK    6  A    between atoms: C_19  and  O_20
REMARK                            x       y       z     vdW  Elec       q    Type
REMARK                         _______ _______ _______ _____ _____    ______ ____
ROOT
ATOM      1  C   UNL     1       7.340  -1.866  24.686  0.00  0.00    +0.057 C 
ATOM      2  C   UNL     1       6.805  -3.013  23.848  0.00  0.00    +0.003 A 
ATOM      3  C   UNL     1       5.953  -3.982  24.408  0.00  0.00    +0.011 A 
ATOM      4  C   UNL     1       5.557  -5.098  23.666  0.00  0.00    +0.046 A 
ATOM      5  C   UNL     1       6.001  -5.241  22.356  0.00  0.00    +0.120 A 
ATOM      6  C   UNL     1       6.812  -4.276  21.773  0.00  0.00    +0.092 A 
ATOM      7  C   UNL     1       7.214  -3.164  22.519  0.00  0.00    +0.136 A 
ATOM      8  O   UNL     1       8.038  -2.272  21.876  0.00  0.00    -0.455 OA
ATOM      9  C   UNL     1       8.326  -1.082  22.498  0.00  0.00    +0.136 A 
ATOM     10  C   UNL     1       9.040  -0.148  21.742  0.00  0.00    +0.092 A 
ATOM     11  C   UNL     1       9.401   1.069  22.308  0.00  0.00    +0.120 A 
ATOM     12  C   UNL     1       8.998   1.400  23.594  0.00  0.00    +0.046 A 
ATOM     13  C   UNL     1       8.239   0.488  24.326  0.00  0.00    +0.011 A 
ATOM     14  C   UNL     1       7.958  -0.792  23.815  0.00  0.00    +0.003 A 
ENDROOT
BRANCH   5  15
ATOM     15  O   UNL     1       5.668  -6.332  21.609  0.00  0.00    -0.507 OA
ATOM     16  H   UNL     1       6.460  -6.881  21.487  0.00  0.00    +0.292 HD
ENDBRANCH   5  15
BRANCH  11  17
ATOM     17  O   UNL     1      10.164   1.920  21.567  0.00  0.00    -0.507 OA
ATOM     18  H   UNL     1      11.095   1.658  21.644  0.00  0.00    +0.292 HD
ENDBRANCH  11  17
BRANCH   1  19
ATOM     19  C   UNL     1       8.371  -2.436  25.701  0.00  0.00    +0.024 C 
BRANCH  19  20
ATOM     20  C   UNL     1       9.359  -3.447  25.122  0.00  0.00    +0.121 C 
BRANCH  20  21
ATOM     21  C   UNL     1       9.354  -4.721  25.920  0.00  0.00    +0.305 C 
ATOM     22  O   UNL     1       8.702  -4.882  26.937  0.00  0.00    -0.251 OA
BRANCH  21  23
ATOM     23  O   UNL     1      10.139  -5.686  25.390  0.00  0.00    -0.481 OA
ATOM     24  H   UNL     1      11.094  -5.567  25.557  0.00  0.00    +0.295 HD
ENDBRANCH  21  23
ENDBRANCH  20  21
ENDBRANCH  19  20
ENDBRANCH   1  19
TORSDOF 6
ENDMDL
MODEL 3
REMARK VINA RESULT:      -6.7      1.726      3.708
REMARK  Name = 
REMARK  6 active torsions:
REMARK  status: ('A' for Active; 'I' for Inactive)
REMARK    1  A    between atoms: O_1  and  C_2
REMARK    2  A    between atoms: C_2  and  C_4
REMARK    3  A    between atoms: C_4  and  C_5
REMARK    4  A    between atoms: C_5  and  C_6
REMARK    5  A    between atoms: C_10  and  O_11
REMARK    6  A    between atoms: C_19  and  O_20
REMARK                            x       y       z     vdW  Elec       q    Type
REMARK                         _______ _______ _______ _____ _____    ______ ____
ROOT
ATOM      1  C   UNL     1       8.995  -2.958  24.189  0.00  0.00    +0.057 C 
ATOM      2  C   UNL     1       9.327  -1.655  23.484  0.00  0.00    +0.003 A 
ATOM      3  C   UNL     1      10.345  -0.812  23.964  0.00  0.00    +0.011 A 
ATOM      4  C   UNL     1      10.570   0.438  23.382  0.00  0.00    +0.046 A 
ATOM      5  C   UNL     1       9.785   0.843  22.308  0.00  0.00    +0.120 A 
ATOM      6  C   UNL     1       8.800   0.010  21.795  0.00  0.00    +0.092 A 
ATOM      7  C   UNL     1       8.571  -1.238  22.383  0.00  0.00    +0.136 A 
ATOM      8  O   UNL     1       7.560  -1.988  21.833  0.00  0.00    -0.455 OA
ATOM      9  C   UNL     1       7.402  -3.285  22.257  0.00  0.00    +0.136 A 
ATOM     10  C   UNL     1       6.463  -4.051  21.561  0.00  0.00    +0.092 A 
ATOM     11  C   UNL     1       6.219  -5.363  21.948  0.00  0.00    +0.120 A 
ATOM     12  C   UNL     1       6.948  -5.948  22.973  0.00  0.00    +0.046 A 
ATOM     13  C   UNL     1       7.922  -5.197  23.629  0.00  0.00    +0.011 A 
ATOM     14  C   UNL     1       8.109  -3.836  23.329  0.00  0.00    +0.003 A 
ENDROOT
BRANCH   5  15
ATOM     15  O   UNL     1       9.947   2.070  21.734  0.00  0.00    -0.507 OA
ATOM     16  H   UNL     1      10.038   2.735  22.436  0.00  0.00    +0.292 HD
ENDBRANCH   5  15
BRANCH  11  17
ATOM     17  O   UNL     1       5.240  -6.052  21.295  0.00  0.00    -0.507 OA
ATOM     18  H   UNL     1       4.952  -5.537  20.525  0.00  0.00    +0.292 HD
ENDBRANCH  11  17
BRANCH   1  19
ATOM     19  C   UNL     1       8.315  -2.624  25.547  0.00  0.00    +0.024 C 
BRANCH  19  20
ATOM     20  C   UNL     1       8.653  -3.575  26.692  0.00  0.00    +0.121 C 
BRANCH  20  21
ATOM     21  C   UNL     1       7.510  -4.514  26.966  0.00  0.00    +0.305 C 
ATOM     22  O   UNL     1       6.339  -4.228  26.787  0.00  0.00    -0.251 OA
BRANCH  21  23
ATOM     23  O   UNL     1       7.910  -5.723  27.421  0.00  0.00    -0.481 OA
ATOM     24  H   UNL     1       8.778  -6.016  27.082  0.00  0.00    +0.295 HD
ENDBRANCH  21  23
ENDBRANCH  20  21
ENDBRANCH  19  20
ENDBRANCH   1  19
TORSDOF 6
ENDMDL
MODEL 4
REMARK VINA RESULT:      -6.5      2.103      5.859
REMARK  Name = 
REMARK  6 active torsions:
REMARK  status: ('A' for Active; 'I' for Inactive)
REMARK    1  A    between atoms: O_1  and  C_2
REMARK    2  A    between atoms: C_2  and  C_4
REMARK    3  A    between atoms: C_4  and  C_5
REMARK    4  A    between atoms: C_5  and  C_6
REMARK    5  A    between atoms: C_10  and  O_11
REMARK    6  A    between atoms: C_19  and  O_20
REMARK                            x       y       z     vdW  Elec       q    Type
REMARK                         _______ _______ _______ _____ _____    ______ ____
ROOT
ATOM      1  C   UNL     1       6.902  -1.459  23.569  0.00  0.00    +0.057 C 
ATOM      2  C   UNL     1       7.622  -2.723  24.006  0.00  0.00    +0.003 A 
ATOM      3  C   UNL     1       6.903  -3.875  24.370  0.00  0.00    +0.011 A 
ATOM      4  C   UNL     1       7.564  -4.996  24.880  0.00  0.00    +0.046 A 
ATOM      5  C   UNL     1       8.947  -4.972  25.014  0.00  0.00    +0.120 A 
ATOM      6  C   UNL     1       9.679  -3.858  24.624  0.00  0.00    +0.092 A 
ATOM      7  C   UNL     1       9.016  -2.735  24.121  0.00  0.00    +0.136 A 
ATOM      8  O   UNL     1       9.811  -1.665  23.786  0.00  0.00    -0.455 OA
ATOM      9  C   UNL     1       9.237  -0.602  23.132  0.00  0.00    +0.136 A 
ATOM     10  C   UNL     1      10.112   0.388  22.678  0.00  0.00    +0.092 A 
ATOM     11  C   UNL     1       9.609   1.513  22.035  0.00  0.00    +0.120 A 
ATOM     12  C   UNL     1       8.252   1.632  21.773  0.00  0.00    +0.046 A 
ATOM     13  C   UNL     1       7.388   0.617  22.179  0.00  0.00    +0.011 A 
ATOM     14  C   UNL     1       7.859  -0.476  22.928  0.00  0.00    +0.003 A 
ENDROOT
BRANCH   5  15
ATOM     15  O   UNL     1       9.627  -6.031  25.541  0.00  0.00    -0.507 OA
ATOM     16  H   UNL     1      10.377  -6.241  24.962  0.00  0.00    +0.292 HD
ENDBRANCH   5  15
BRANCH  11  17
ATOM     17  O   UNL     1      10.486   2.493  21.678  0.00  0.00    -0.507 OA
ATOM     18  H   UNL     1      10.811   2.934  22.479  0.00  0.00    +0.292 HD
ENDBRANCH  11  17
BRANCH   1  19
ATOM     19  C   UNL     1       6.201  -0.838  24.811  0.00  0.00    +0.024 C 
BRANCH  19  20
ATOM     20  C   UNL     1       6.948  -1.012  26.131  0.00  0.00    +0.121 C 
BRANCH  20  21
ATOM     21  C   UNL     1       7.836   0.171  26.406  0.00  0.00    +0.305 C 
ATOM     22  O   UNL     1       7.427   1.314  26.521  0.00  0.00    -0.251 OA
BRANCH  21  23
ATOM     23  O   UNL     1       9.142  -0.159  26.528  0.00  0.00    -0.481 OA
ATOM     24  H   UNL     1       9.318  -0.886  27.156  0.00  0.00    +0.295 HD
ENDBRANCH  21  23
ENDBRANCH  20  21
ENDBRANCH  19  20
ENDBRANCH   1  19
TORSDOF 6
ENDMDL
MODEL 5
REMARK VINA RESULT:      -6.5      2.018      3.362
REMARK  Name = 
REMARK  6 active torsions:
REMARK  status: ('A' for Active; 'I' for Inactive)
REMARK    1  A    between atoms: O_1  and  C_2
REMARK    2  A    between atoms: C_2  and  C_4
REMARK    3  A    between atoms: C_4  and  C_5
REMARK    4  A    between atoms: C_5  and  C_6
REMARK    5  A    between atoms: C_10  and  O_11
REMARK    6  A    between atoms: C_19  and  O_20
REMARK                            x       y       z     vdW  Elec       q    Type
REMARK                         _______ _______ _______ _____ _____    ______ ____
ROOT
ATOM      1  C   UNL     1       9.033  -2.218  24.841  0.00  0.00    +0.057 C 
ATOM      2  C   UNL     1       9.432  -1.061  23.943  0.00  0.00    +0.003 A 
ATOM      3  C   UNL     1      10.289  -0.047  24.408  0.00  0.00    +0.011 A 
ATOM      4  C   UNL     1      10.561   1.074  23.618  0.00  0.00    +0.046 A 
ATOM      5  C   UNL     1       9.988   1.177  22.356  0.00  0.00    +0.120 A 
ATOM      6  C   UNL     1       9.169   0.168  21.864  0.00  0.00    +0.092 A 
ATOM      7  C   UNL     1       8.892  -0.949  22.658  0.00  0.00    +0.136 A 
ATOM      8  O   UNL     1       8.051  -1.886  22.108  0.00  0.00    -0.455 OA
ATOM      9  C   UNL     1       7.878  -3.078  22.768  0.00  0.00    +0.136 A 
ATOM     10  C   UNL     1       7.138  -4.054  22.094  0.00  0.00    +0.092 A 
ATOM     11  C   UNL     1       6.889  -5.276  22.706  0.00  0.00    +0.120 A 
ATOM     12  C   UNL     1       7.428  -5.570  23.951  0.00  0.00    +0.046 A 
ATOM     13  C   UNL     1       8.211  -4.614  24.596  0.00  0.00    +0.011 A 
ATOM     14  C   UNL     1       8.384  -3.331  24.046  0.00  0.00    +0.003 A 
ENDROOT
BRANCH   5  15
ATOM     15  O   UNL     1      10.197   2.271  21.568  0.00  0.00    -0.507 OA
ATOM     16  H   UNL     1      10.839   2.853  22.006  0.00  0.00    +0.292 HD
ENDBRANCH   5  15
BRANCH  11  17
ATOM     17  O   UNL     1       6.098  -6.172  22.051  0.00  0.00    -0.507 OA
ATOM     18  H   UNL     1       6.412  -6.261  21.137  0.00  0.00    +0.292 HD
ENDBRANCH  11  17
BRANCH   1  19
ATOM     19  C   UNL     1       8.079  -1.678  25.945  0.00  0.00    +0.024 C 
BRANCH  19  20
ATOM     20  C   UNL     1       6.591  -1.759  25.610  0.00  0.00    +0.121 C 
BRANCH  20  21
ATOM     21  C   UNL     1       6.075  -0.430  25.132  0.00  0.00    +0.305 C 
ATOM     22  O   UNL     1       5.965   0.552  25.845  0.00  0.00    -0.251 OA
BRANCH  21  23
ATOM     23  O   UNL     1       5.755  -0.423  23.817  0.00  0.00    -0.481 OA
ATOM     24  H   UNL     1       6.518  -0.518  23.215  0.00  0.00    +0.295 HD
ENDBRANCH  21  23
ENDBRANCH  20  21
ENDBRANCH  19  20
ENDBRANCH   1  19
TORSDOF 6
ENDMDL
MODEL 6
REMARK VINA RESULT:      -6.4      1.800      5.358
REMARK  Name = 
REMARK  6 active torsions:
REMARK  status: ('A' for Active; 'I' for Inactive)
REMARK    1  A    between atoms: O_1  and  C_2
REMARK    2  A    between atoms: C_2  and  C_4
REMARK    3  A    between atoms: C_4  and  C_5
REMARK    4  A    between atoms: C_5  and  C_6
REMARK    5  A    between atoms: C_10  and  O_11
REMARK    6  A    between atoms: C_19  and  O_20
REMARK                            x       y       z     vdW  Elec       q    Type
REMARK                         _______ _______ _______ _____ _____    ______ ____
ROOT
ATOM      1  C   UNL     1       9.253  -2.428  23.302  0.00  0.00    +0.057 C 
ATOM      2  C   UNL     1       8.938  -3.308  24.498  0.00  0.00    +0.003 A 
ATOM      3  C   UNL     1       9.024  -4.709  24.407  0.00  0.00    +0.011 A 
ATOM      4  C   UNL     1       8.623  -5.518  25.474  0.00  0.00    +0.046 A 
ATOM      5  C   UNL     1       8.150  -4.928  26.640  0.00  0.00    +0.120 A 
ATOM      6  C   UNL     1       8.093  -3.546  26.763  0.00  0.00    +0.092 A 
ATOM      7  C   UNL     1       8.487  -2.737  25.692  0.00  0.00    +0.136 A 
ATOM      8  O   UNL     1       8.373  -1.382  25.886  0.00  0.00    -0.455 OA
ATOM      9  C   UNL     1       8.901  -0.538  24.939  0.00  0.00    +0.136 A 
ATOM     10  C   UNL     1       8.897   0.823  25.255  0.00  0.00    +0.092 A 
ATOM     11  C   UNL     1       9.382   1.746  24.337  0.00  0.00    +0.120 A 
ATOM     12  C   UNL     1       9.940   1.328  23.137  0.00  0.00    +0.046 A 
ATOM     13  C   UNL     1       9.992  -0.035  22.849  0.00  0.00    +0.011 A 
ATOM     14  C   UNL     1       9.407  -0.979  23.712  0.00  0.00    +0.003 A 
ENDROOT
BRANCH   5  15
ATOM     15  O   UNL     1       7.714  -5.681  27.691  0.00  0.00    -0.507 OA
ATOM     16  H   UNL     1       7.204  -6.432  27.347  0.00  0.00    +0.292 HD
ENDBRANCH   5  15
BRANCH  11  17
ATOM     17  O   UNL     1       9.289   3.070  24.648  0.00  0.00    -0.507 OA
ATOM     18  H   UNL     1       9.814   3.581  24.011  0.00  0.00    +0.292 HD
ENDBRANCH  11  17
BRANCH   1  19
ATOM     19  C   UNL     1       8.119  -2.602  22.251  0.00  0.00    +0.024 C 
BRANCH  19  20
ATOM     20  C   UNL     1       6.736  -2.141  22.708  0.00  0.00    +0.121 C 
BRANCH  20  21
ATOM     21  C   UNL     1       5.717  -3.230  22.521  0.00  0.00    +0.305 C 
ATOM     22  O   UNL     1       5.137  -3.782  23.440  0.00  0.00    -0.251 OA
BRANCH  21  23
ATOM     23  O   UNL     1       5.492  -3.533  21.222  0.00  0.00    -0.481 OA
ATOM     24  H   UNL     1       6.191  -4.075  20.806  0.00  0.00    +0.295 HD
ENDBRANCH  21  23
ENDBRANCH  20  21
ENDBRANCH  19  20
ENDBRANCH   1  19
TORSDOF 6
ENDMDL
MODEL 7
REMARK VINA RESULT:      -6.2      2.078      6.168
REMARK  Name = 
REMARK  6 active torsions:
REMARK  status: ('A' for Active; 'I' for Inactive)
REMARK    1  A    between atoms: O_1  and  C_2
REMARK    2  A    between atoms: C_2  and  C_4
REMARK    3  A    between atoms: C_4  and  C_5
REMARK    4  A    between atoms: C_5  and  C_6
REMARK    5  A    between atoms: C_10  and  O_11
REMARK    6  A    between atoms: C_19  and  O_20
REMARK                            x       y       z     vdW  Elec       q    Type
REMARK                         _______ _______ _______ _____ _____    ______ ____
ROOT
ATOM      1  C   UNL     1       8.617   0.166  24.982  0.00  0.00    +0.057 C 
ATOM      2  C   UNL     1       7.754  -1.037  24.646  0.00  0.00    +0.003 A 
ATOM      3  C   UNL     1       7.795  -2.200  25.436  0.00  0.00    +0.011 A 
ATOM      4  C   UNL     1       7.088  -3.344  25.057  0.00  0.00    +0.046 A 
ATOM      5  C   UNL     1       6.325  -3.323  23.895  0.00  0.00    +0.120 A 
ATOM      6  C   UNL     1       6.241  -2.173  23.122  0.00  0.00    +0.092 A 
ATOM      7  C   UNL     1       6.956  -1.031  23.497  0.00  0.00    +0.136 A 
ATOM      8  O   UNL     1       6.841   0.054  22.663  0.00  0.00    -0.455 OA
ATOM      9  C   UNL     1       7.381   1.251  23.067  0.00  0.00    +0.136 A 
ATOM     10  C   UNL     1       7.105   2.356  22.258  0.00  0.00    +0.092 A 
ATOM     11  C   UNL     1       7.640   3.598  22.578  0.00  0.00    +0.120 A 
ATOM     12  C   UNL     1       8.388   3.771  23.734  0.00  0.00    +0.046 A 
ATOM     13  C   UNL     1       8.616   2.677  24.568  0.00  0.00    +0.011 A 
ATOM     14  C   UNL     1       8.178   1.390  24.207  0.00  0.00    +0.003 A 
ENDROOT
BRANCH   5  15
ATOM     15  O   UNL     1       5.649  -4.429  23.470  0.00  0.00    -0.507 OA
ATOM     16  H   UNL     1       5.102  -4.187  22.706  0.00  0.00    +0.292 HD
ENDBRANCH   5  15
BRANCH  11  17
ATOM     17  O   UNL     1       7.414   4.634  21.723  0.00  0.00    -0.507 OA
ATOM     18  H   UNL     1       8.168   4.713  21.116  0.00  0.00    +0.292 HD
ENDBRANCH  11  17
BRANCH   1  19
ATOM     19  C   UNL     1      10.100  -0.193  24.683  0.00  0.00    +0.024 C 
BRANCH  19  20
ATOM     20  C   UNL     1      10.536   0.012  23.233  0.00  0.00    +0.121 C 
BRANCH  20  21
ATOM     21  C   UNL     1      10.253  -1.213  22.409  0.00  0.00    +0.305 C 
ATOM     22  O   UNL     1      10.548  -2.345  22.752  0.00  0.00    -0.251 OA
BRANCH  21  23
ATOM     23  O   UNL     1       9.620  -0.939  21.245  0.00  0.00    -0.481 OA
ATOM     24  H   UNL     1       9.323  -1.728  20.752  0.00  0.00    +0.295 HD
ENDBRANCH  21  23
ENDBRANCH  20  21
ENDBRANCH  19  20
ENDBRANCH   1  19
TORSDOF 6
ENDMDL
MODEL 8
REMARK VINA RESULT:      -6.2      2.531      5.601
REMARK  Name = 
REMARK  6 active torsions:
REMARK  status: ('A' for Active; 'I' for Inactive)
REMARK    1  A    between atoms: O_1  and  C_2
REMARK    2  A    between atoms: C_2  and  C_4
REMARK    3  A    between atoms: C_4  and  C_5
REMARK    4  A    between atoms: C_5  and  C_6
REMARK    5  A    between atoms: C_10  and  O_11
REMARK    6  A    between atoms: C_19  and  O_20
REMARK                            x       y       z     vdW  Elec       q    Type
REMARK                         _______ _______ _______ _____ _____    ______ ____
ROOT
ATOM      1  C   UNL     1       8.092  -2.407  22.968  0.00  0.00    +0.057 C 
ATOM      2  C   UNL     1       8.155  -3.368  24.143  0.00  0.00    +0.003 A 
ATOM      3  C   UNL     1       7.598  -4.656  24.053  0.00  0.00    +0.011 A 
ATOM      4  C   UNL     1       7.555  -5.493  25.171  0.00  0.00    +0.046 A 
ATOM      5  C   UNL     1       8.083  -5.049  26.378  0.00  0.00    +0.120 A 
ATOM      6  C   UNL     1       8.671  -3.795  26.477  0.00  0.00    +0.092 A 
ATOM      7  C   UNL     1       8.706  -2.955  25.360  0.00  0.00    +0.136 A 
ATOM      8  O   UNL     1       9.279  -1.722  25.551  0.00  0.00    -0.455 OA
ATOM      9  C   UNL     1       9.494  -0.923  24.454  0.00  0.00    +0.136 A 
ATOM     10  C   UNL     1      10.217   0.252  24.679  0.00  0.00    +0.092 A 
ATOM     11  C   UNL     1      10.449   1.131  23.628  0.00  0.00    +0.120 A 
ATOM     12  C   UNL     1      10.035   0.823  22.340  0.00  0.00    +0.046 A 
ATOM     13  C   UNL     1       9.362  -0.375  22.110  0.00  0.00    +0.011 A 
ATOM     14  C   UNL     1       9.019  -1.227  23.175  0.00  0.00    +0.003 A 
ENDROOT
BRANCH   5  15
ATOM     15  O   UNL     1       8.029  -5.820  27.503  0.00  0.00    -0.507 OA
ATOM     16  H   UNL     1       8.480  -5.354  28.224  0.00  0.00    +0.292 HD
ENDBRANCH   5  15
BRANCH  11  17
ATOM     17  O   UNL     1      11.089   2.303  23.903  0.00  0.00    -0.507 OA
ATOM     18  H   UNL     1      10.604   2.771  24.602  0.00  0.00    +0.292 HD
ENDBRANCH  11  17
BRANCH   1  19
ATOM     19  C   UNL     1       6.618  -1.945  22.788  0.00  0.00    +0.024 C 
BRANCH  19  20
ATOM     20  C   UNL     1       5.821  -1.802  24.083  0.00  0.00    +0.121 C 
BRANCH  20  21
ATOM     21  C   UNL     1       5.748  -0.363  24.512  0.00  0.00    +0.305 C 
ATOM     22  O   UNL     1       6.302   0.550  23.925  0.00  0.00    -0.251 OA
BRANCH  21  23
ATOM     23  O   UNL     1       4.989  -0.173  25.616  0.00  0.00    -0.481 OA
ATOM     24  H   UNL     1       4.129  -0.636  25.599  0.00  0.00    +0.295 HD
ENDBRANCH  21  23
ENDBRANCH  20  21
ENDBRANCH  19  20
ENDBRANCH   1  19
TORSDOF 6
ENDMDL
MODEL 9
REMARK VINA RESULT:      -6.0      2.512      4.079
REMARK  Name = 
REMARK  6 active torsions:
REMARK  status: ('A' for Active; 'I' for Inactive)
REMARK    1  A    between atoms: O_1  and  C_2
REMARK    2  A    between atoms: C_2  and  C_4
REMARK    3  A    between atoms: C_4  and  C_5
REMARK    4  A    between atoms: C_5  and  C_6
REMARK    5  A    between atoms: C_10  and  O_11
REMARK    6  A    between atoms: C_19  and  O_20
REMARK                            x       y       z     vdW  Elec       q    Type
REMARK                         _______ _______ _______ _____ _____    ______ ____
ROOT
ATOM      1  C   UNL     1       7.341  -3.434  25.727  0.00  0.00    +0.057 C 
ATOM      2  C   UNL     1       8.105  -2.830  24.562  0.00  0.00    +0.003 A 
ATOM      3  C   UNL     1       9.114  -1.875  24.777  0.00  0.00    +0.011 A 
ATOM      4  C   UNL     1       9.734  -1.238  23.698  0.00  0.00    +0.046 A 
ATOM      5  C   UNL     1       9.355  -1.566  22.402  0.00  0.00    +0.120 A 
ATOM      6  C   UNL     1       8.387  -2.534  22.168  0.00  0.00    +0.092 A 
ATOM      7  C   UNL     1       7.762  -3.164  23.248  0.00  0.00    +0.136 A 
ATOM      8  O   UNL     1       6.797  -4.088  22.930  0.00  0.00    -0.455 OA
ATOM      9  C   UNL     1       6.271  -4.859  23.939  0.00  0.00    +0.136 A 
ATOM     10  C   UNL     1       5.407  -5.885  23.545  0.00  0.00    +0.092 A 
ATOM     11  C   UNL     1       4.807  -6.689  24.506  0.00  0.00    +0.120 A 
ATOM     12  C   UNL     1       5.110  -6.534  25.851  0.00  0.00    +0.046 A 
ATOM     13  C   UNL     1       6.013  -5.545  26.236  0.00  0.00    +0.011 A 
ATOM     14  C   UNL     1       6.547  -4.648  25.293  0.00  0.00    +0.003 A 
ENDROOT
BRANCH   5  15
ATOM     15  O   UNL     1       9.908  -0.942  21.322  0.00  0.00    -0.507 OA
ATOM     16  H   UNL     1      10.829  -1.234  21.229  0.00  0.00    +0.292 HD
ENDBRANCH   5  15
BRANCH  11  17
ATOM     17  O   UNL     1       3.911  -7.628  24.088  0.00  0.00    -0.507 OA
ATOM     18  H   UNL     1       3.050  -7.201  23.946  0.00  0.00    +0.292 HD
ENDBRANCH  11  17
BRANCH   1  19
ATOM     19  C   UNL     1       6.416  -2.338  26.330  0.00  0.00    +0.024 C 
BRANCH  19  20
ATOM     20  C   UNL     1       5.370  -1.774  25.371  0.00  0.00    +0.121 C 
BRANCH  20  21
ATOM     21  C   UNL     1       5.581  -0.302  25.151  0.00  0.00    +0.305 C 
ATOM     22  O   UNL     1       5.421   0.543  26.014  0.00  0.00    -0.251 OA
BRANCH  21  23
ATOM     23  O   UNL     1       5.983  -0.003  23.894  0.00  0.00    -0.481 OA
ATOM     24  H   UNL     1       5.730  -0.664  23.221  0.00  0.00    +0.295 HD
ENDBRANCH  21  23
ENDBRANCH  20  21
ENDBRANCH  19  20
ENDBRANCH   1  19
TORSDOF 6
ENDMDL
