MODEL 1
REMARK VINA RESULT:      -7.2      0.000      0.000
REMARK  Name = 
REMARK  8 active torsions:
REMARK  status: ('A' for Active; 'I' for Inactive)
REMARK    1  A    between atoms: C_2  and  N_3
REMARK    2  A    between atoms: C_2  and  C_4
REMARK    3  A    between atoms: C_2  and  C_22
REMARK    4  A    between atoms: C_4  and  O_5
REMARK    5  A    between atoms: O_5  and  C_6
REMARK    6  A    between atoms: C_8  and  C_12
REMARK    7  A    between atoms: C_18  and  C_19
REMARK    8  A    between atoms: C_22  and  C_23
REMARK                            x       y       z     vdW  Elec       q    Type
REMARK                         _______ _______ _______ _____ _____    ______ ____
ROOT
ATOM      1  C   UNL     1       7.984  -4.107  26.462  0.00  0.00    +0.139 A 
ATOM      2  C   UNL     1       8.961  -5.065  26.227  0.00  0.00    +0.156 A 
ATOM      3  N   UNL     1       9.884  -4.973  25.245  0.00  0.00    -0.259 NA
ATOM      4  C   UNL     1       9.819  -3.874  24.450  0.00  0.00    +0.119 A 
ATOM      5  C   UNL     1       8.867  -2.855  24.556  0.00  0.00    +0.004 A 
ATOM      6  C   UNL     1       7.932  -3.019  25.594  0.00  0.00    +0.057 A 
ENDROOT
BRANCH   5   7
ATOM      7  C   UNL     1       8.839  -1.682  23.652  0.00  0.00    -0.016 A 
ATOM      8  C   UNL     1       7.906  -0.640  23.853  0.00  0.00    +0.020 A 
ATOM      9  C   UNL     1       7.841   0.450  22.962  0.00  0.00    +0.023 A 
ATOM     10  C   UNL     1       8.737   0.508  21.909  0.00  0.00    +0.066 A 
ATOM     11  N   UNL     1       8.430   1.665  21.241  0.00  0.00    -0.277 N 
ATOM     12  H   UNL     1       8.878   2.040  20.415  0.00  0.00    +0.189 HD
ATOM     13  N   UNL     1       7.400   2.350  21.770  0.00  0.00    -0.178 NA
ATOM     14  C   UNL     1       9.699  -0.473  21.676  0.00  0.00    +0.028 A 
ATOM     15  C   UNL     1       7.032   1.608  22.824  0.00  0.00    +0.067 A 
ATOM     16  C   UNL     1       5.886   2.017  23.671  0.00  0.00    +0.068 C 
ATOM     17  C   UNL     1       9.720  -1.566  22.560  0.00  0.00    +0.010 A 
ENDBRANCH   5   7
BRANCH   1  18
ATOM     18  O   UNL     1       7.047  -4.127  27.454  0.00  0.00    -0.489 OA
BRANCH  18  19
ATOM     19  C   UNL     1       5.711  -4.438  27.029  0.00  0.00    +0.247 C 
BRANCH  19  20
ATOM     20  C   UNL     1       5.715  -5.806  26.312  0.00  0.00    +0.093 C 
BRANCH  20  21
ATOM     21  N   UNL     1       5.288  -6.877  27.232  0.00  0.00    -0.324 NA
ATOM     22  H   UNL     1       6.023  -7.072  27.907  0.00  0.00    +0.119 HD
ATOM     23  H   UNL     1       4.477  -6.548  27.758  0.00  0.00    +0.119 HD
ENDBRANCH  20  21
BRANCH  20  24
ATOM     24  C   UNL     1       4.877  -5.783  25.013  0.00  0.00    +0.057 C 
BRANCH  24  25
ATOM     25  C   UNL     1       5.486  -5.023  23.855  0.00  0.00    -0.046 A 
ATOM     26  C   UNL     1       6.575  -5.559  23.155  0.00  0.00    +0.004 A 
ATOM     27  C   UNL     1       7.113  -4.887  22.056  0.00  0.00    +0.000 A 
ATOM     28  C   UNL     1       6.566  -3.674  21.643  0.00  0.00    +0.000 A 
ATOM     29  C   UNL     1       5.490  -3.126  22.338  0.00  0.00    +0.000 A 
ATOM     30  C   UNL     1       4.957  -3.792  23.444  0.00  0.00    +0.004 A 
ENDBRANCH  24  25
ENDBRANCH  20  24
ENDBRANCH  19  20
ENDBRANCH  18  19
ENDBRANCH   1  18
TORSDOF 7
ENDMDL
MODEL 2
REMARK VINA RESULT:      -7.0      1.533      2.325
REMARK  Name = 
REMARK  8 active torsions:
REMARK  status: ('A' for Active; 'I' for Inactive)
REMARK    1  A    between atoms: C_2  and  N_3
REMARK    2  A    between atoms: C_2  and  C_4
REMARK    3  A    between atoms: C_2  and  C_22
REMARK    4  A    between atoms: C_4  and  O_5
REMARK    5  A    between atoms: O_5  and  C_6
REMARK    6  A    between atoms: C_8  and  C_12
REMARK    7  A    between atoms: C_18  and  C_19
REMARK    8  A    between atoms: C_22  and  C_23
REMARK                            x       y       z     vdW  Elec       q    Type
REMARK                         _______ _______ _______ _____ _____    ______ ____
ROOT
ATOM      1  C   UNL     1       8.354  -4.716  26.532  0.00  0.00    +0.139 A 
ATOM      2  C   UNL     1       9.203  -5.301  25.603  0.00  0.00    +0.156 A 
ATOM      3  N   UNL     1       9.839  -4.616  24.628  0.00  0.00    -0.259 NA
ATOM      4  C   UNL     1       9.606  -3.279  24.572  0.00  0.00    +0.119 A 
ATOM      5  C   UNL     1       8.749  -2.573  25.422  0.00  0.00    +0.004 A 
ATOM      6  C   UNL     1       8.112  -3.349  26.407  0.00  0.00    +0.057 A 
ENDROOT
BRANCH   5   7
ATOM      7  C   UNL     1       8.524  -1.113  25.306  0.00  0.00    -0.016 A 
ATOM      8  C   UNL     1       9.055  -0.387  24.217  0.00  0.00    +0.020 A 
ATOM      9  C   UNL     1       8.889   1.010  24.133  0.00  0.00    +0.023 A 
ATOM     10  C   UNL     1       8.158   1.657  25.115  0.00  0.00    +0.066 A 
ATOM     11  N   UNL     1       8.172   2.981  24.757  0.00  0.00    -0.277 N 
ATOM     12  H   UNL     1       7.737   3.756  25.240  0.00  0.00    +0.189 HD
ATOM     13  N   UNL     1       8.864   3.240  23.633  0.00  0.00    -0.178 NA
ATOM     14  C   UNL     1       7.586   0.992  26.197  0.00  0.00    +0.028 A 
ATOM     15  C   UNL     1       9.309   2.036  23.247  0.00  0.00    +0.067 A 
ATOM     16  C   UNL     1      10.155   1.897  22.038  0.00  0.00    +0.068 C 
ATOM     17  C   UNL     1       7.795  -0.395  26.274  0.00  0.00    +0.010 A 
ENDBRANCH   5   7
BRANCH   1  18
ATOM     18  O   UNL     1       7.709  -5.346  27.556  0.00  0.00    -0.489 OA
BRANCH  18  19
ATOM     19  C   UNL     1       6.284  -5.167  27.585  0.00  0.00    +0.247 C 
BRANCH  19  20
ATOM     20  C   UNL     1       5.638  -6.083  26.524  0.00  0.00    +0.093 C 
BRANCH  20  21
ATOM     21  N   UNL     1       4.968  -7.231  27.164  0.00  0.00    -0.324 NA
ATOM     22  H   UNL     1       5.552  -8.059  27.096  0.00  0.00    +0.119 HD
ATOM     23  H   UNL     1       4.853  -7.025  28.158  0.00  0.00    +0.119 HD
ENDBRANCH  20  21
BRANCH  20  24
ATOM     24  C   UNL     1       4.690  -5.303  25.583  0.00  0.00    +0.057 C 
BRANCH  24  25
ATOM     25  C   UNL     1       5.355  -4.607  24.416  0.00  0.00    -0.046 A 
ATOM     26  C   UNL     1       5.171  -3.232  24.216  0.00  0.00    +0.004 A 
ATOM     27  C   UNL     1       5.819  -2.573  23.171  0.00  0.00    +0.000 A 
ATOM     28  C   UNL     1       6.662  -3.280  22.316  0.00  0.00    +0.000 A 
ATOM     29  C   UNL     1       6.845  -4.650  22.497  0.00  0.00    +0.000 A 
ATOM     30  C   UNL     1       6.190  -5.312  23.537  0.00  0.00    +0.004 A 
ENDBRANCH  24  25
ENDBRANCH  20  24
ENDBRANCH  19  20
ENDBRANCH  18  19
ENDBRANCH   1  18
TORSDOF 7
ENDMDL
MODEL 3
REMARK VINA RESULT:      -6.9      3.100      7.210
REMARK  Name = 
REMARK  8 active torsions:
REMARK  status: ('A' for Active; 'I' for Inactive)
REMARK    1  A    between atoms: C_2  and  N_3
REMARK    2  A    between atoms: C_2  and  C_4
REMARK    3  A    between atoms: C_2  and  C_22
REMARK    4  A    between atoms: C_4  and  O_5
REMARK    5  A    between atoms: O_5  and  C_6
REMARK    6  A    between atoms: C_8  and  C_12
REMARK    7  A    between atoms: C_18  and  C_19
REMARK    8  A    between atoms: C_22  and  C_23
REMARK                            x       y       z     vdW  Elec       q    Type
REMARK                         _______ _______ _______ _____ _____    ______ ____
ROOT
ATOM      1  C   UNL     1       7.207   2.690  25.680  0.00  0.00    +0.139 A 
ATOM      2  C   UNL     1       7.084   2.579  27.058  0.00  0.00    +0.156 A 
ATOM      3  N   UNL     1       7.004   1.401  27.715  0.00  0.00    -0.259 NA
ATOM      4  C   UNL     1       7.035   0.277  26.954  0.00  0.00    +0.119 A 
ATOM      5  C   UNL     1       7.120   0.249  25.558  0.00  0.00    +0.004 A 
ATOM      6  C   UNL     1       7.191   1.510  24.939  0.00  0.00    +0.057 A 
ENDROOT
BRANCH   5   7
ATOM      7  C   UNL     1       7.140  -1.010  24.778  0.00  0.00    -0.016 A 
ATOM      8  C   UNL     1       7.885  -2.124  25.227  0.00  0.00    +0.020 A 
ATOM      9  C   UNL     1       7.949  -3.304  24.459  0.00  0.00    +0.023 A 
ATOM     10  C   UNL     1       7.234  -3.372  23.276  0.00  0.00    +0.066 A 
ATOM     11  N   UNL     1       7.491  -4.623  22.774  0.00  0.00    -0.277 N 
ATOM     12  H   UNL     1       7.137  -5.030  21.919  0.00  0.00    +0.189 HD
ATOM     13  N   UNL     1       8.324  -5.359  23.531  0.00  0.00    -0.178 NA
ATOM     14  C   UNL     1       6.459  -2.319  22.796  0.00  0.00    +0.028 A 
ATOM     15  C   UNL     1       8.611  -4.555  24.565  0.00  0.00    +0.067 A 
ATOM     16  C   UNL     1       9.542  -4.998  25.630  0.00  0.00    +0.068 C 
ATOM     17  C   UNL     1       6.439  -1.142  23.563  0.00  0.00    +0.010 A 
ENDBRANCH   5   7
BRANCH   1  18
ATOM     18  O   UNL     1       7.324   3.845  24.963  0.00  0.00    -0.489 OA
BRANCH  18  19
ATOM     19  C   UNL     1       8.612   4.477  25.026  0.00  0.00    +0.247 C 
BRANCH  19  20
ATOM     20  C   UNL     1       9.279   4.403  23.636  0.00  0.00    +0.093 C 
BRANCH  20  21
ATOM     21  N   UNL     1       9.589   5.756  23.134  0.00  0.00    -0.324 NA
ATOM     22  H   UNL     1       9.159   5.898  22.224  0.00  0.00    +0.119 HD
ATOM     23  H   UNL     1       9.178   6.440  23.772  0.00  0.00    +0.119 HD
ENDBRANCH  20  21
BRANCH  20  24
ATOM     24  C   UNL     1      10.520   3.481  23.634  0.00  0.00    +0.057 C 
BRANCH  24  25
ATOM     25  C   UNL     1      10.272   2.053  23.199  0.00  0.00    -0.046 A 
ATOM     26  C   UNL     1       9.607   1.788  21.995  0.00  0.00    +0.004 A 
ATOM     27  C   UNL     1       9.417   0.474  21.562  0.00  0.00    +0.000 A 
ATOM     28  C   UNL     1       9.893  -0.588  22.328  0.00  0.00    +0.000 A 
ATOM     29  C   UNL     1      10.546  -0.338  23.533  0.00  0.00    +0.000 A 
ATOM     30  C   UNL     1      10.729   0.976  23.971  0.00  0.00    +0.004 A 
ENDBRANCH  24  25
ENDBRANCH  20  24
ENDBRANCH  19  20
ENDBRANCH  18  19
ENDBRANCH   1  18
TORSDOF 7
ENDMDL
MODEL 4
REMARK VINA RESULT:      -6.8      2.928      3.832
REMARK  Name = 
REMARK  8 active torsions:
REMARK  status: ('A' for Active; 'I' for Inactive)
REMARK    1  A    between atoms: C_2  and  N_3
REMARK    2  A    between atoms: C_2  and  C_4
REMARK    3  A    between atoms: C_2  and  C_22
REMARK    4  A    between atoms: C_4  and  O_5
REMARK    5  A    between atoms: O_5  and  C_6
REMARK    6  A    between atoms: C_8  and  C_12
REMARK    7  A    between atoms: C_18  and  C_19
REMARK    8  A    between atoms: C_22  and  C_23
REMARK                            x       y       z     vdW  Elec       q    Type
REMARK                         _______ _______ _______ _____ _____    ______ ____
ROOT
ATOM      1  C   UNL     1       9.151  -2.120  24.837  0.00  0.00    +0.139 A 
ATOM      2  C   UNL     1       9.837  -2.628  23.743  0.00  0.00    +0.156 A 
ATOM      3  N   UNL     1      10.407  -1.859  22.789  0.00  0.00    -0.259 NA
ATOM      4  C   UNL     1      10.272  -0.515  22.929  0.00  0.00    +0.119 A 
ATOM      5  C   UNL     1       9.577   0.124  23.961  0.00  0.00    +0.004 A 
ATOM      6  C   UNL     1       9.002  -0.737  24.914  0.00  0.00    +0.057 A 
ENDROOT
BRANCH   5   7
ATOM      7  C   UNL     1       9.454   1.597  24.058  0.00  0.00    -0.016 A 
ATOM      8  C   UNL     1      10.517   2.436  23.657  0.00  0.00    +0.020 A 
ATOM      9  C   UNL     1      10.423   3.835  23.798  0.00  0.00    +0.023 A 
ATOM     10  C   UNL     1       9.252   4.380  24.297  0.00  0.00    +0.066 A 
ATOM     11  N   UNL     1       9.465   5.734  24.309  0.00  0.00    -0.277 N 
ATOM     12  H   UNL     1       8.825   6.458  24.610  0.00  0.00    +0.189 HD
ATOM     13  N   UNL     1      10.682   6.105  23.872  0.00  0.00    -0.178 NA
ATOM     14  C   UNL     1       8.159   3.606  24.682  0.00  0.00    +0.028 A 
ATOM     15  C   UNL     1      11.276   4.944  23.560  0.00  0.00    +0.067 A 
ATOM     16  C   UNL     1      12.670   4.921  23.057  0.00  0.00    +0.068 C 
ATOM     17  C   UNL     1       8.292   2.213  24.562  0.00  0.00    +0.010 A 
ENDBRANCH   5   7
BRANCH   1  18
ATOM     18  O   UNL     1       8.584  -2.840  25.848  0.00  0.00    -0.489 OA
BRANCH  18  19
ATOM     19  C   UNL     1       9.183  -4.120  26.100  0.00  0.00    +0.247 C 
BRANCH  19  20
ATOM     20  C   UNL     1       8.079  -5.200  26.117  0.00  0.00    +0.093 C 
BRANCH  20  21
ATOM     21  N   UNL     1       7.882  -5.721  27.483  0.00  0.00    -0.324 NA
ATOM     22  H   UNL     1       7.783  -4.951  28.140  0.00  0.00    +0.119 HD
ATOM     23  H   UNL     1       7.007  -6.248  27.505  0.00  0.00    +0.119 HD
ENDBRANCH  20  21
BRANCH  20  24
ATOM     24  C   UNL     1       6.760  -4.692  25.489  0.00  0.00    +0.057 C 
BRANCH  24  25
ATOM     25  C   UNL     1       6.487  -5.160  24.077  0.00  0.00    -0.046 A 
ATOM     26  C   UNL     1       5.170  -5.366  23.644  0.00  0.00    +0.004 A 
ATOM     27  C   UNL     1       4.906  -5.751  22.329  0.00  0.00    +0.000 A 
ATOM     28  C   UNL     1       5.956  -5.931  21.431  0.00  0.00    +0.000 A 
ATOM     29  C   UNL     1       7.271  -5.740  21.852  0.00  0.00    +0.000 A 
ATOM     30  C   UNL     1       7.537  -5.363  23.170  0.00  0.00    +0.004 A 
ENDBRANCH  24  25
ENDBRANCH  20  24
ENDBRANCH  19  20
ENDBRANCH  18  19
ENDBRANCH   1  18
TORSDOF 7
ENDMDL
MODEL 5
REMARK VINA RESULT:      -6.7      2.931      5.533
REMARK  Name = 
REMARK  8 active torsions:
REMARK  status: ('A' for Active; 'I' for Inactive)
REMARK    1  A    between atoms: C_2  and  N_3
REMARK    2  A    between atoms: C_2  and  C_4
REMARK    3  A    between atoms: C_2  and  C_22
REMARK    4  A    between atoms: C_4  and  O_5
REMARK    5  A    between atoms: O_5  and  C_6
REMARK    6  A    between atoms: C_8  and  C_12
REMARK    7  A    between atoms: C_18  and  C_19
REMARK    8  A    between atoms: C_22  and  C_23
REMARK                            x       y       z     vdW  Elec       q    Type
REMARK                         _______ _______ _______ _____ _____    ______ ____
ROOT
ATOM      1  C   UNL     1       6.556  -1.102  25.505  0.00  0.00    +0.139 A 
ATOM      2  C   UNL     1       5.321  -1.014  26.132  0.00  0.00    +0.156 A 
ATOM      3  N   UNL     1       4.541   0.089  26.107  0.00  0.00    -0.259 NA
ATOM      4  C   UNL     1       5.026   1.162  25.432  0.00  0.00    +0.119 A 
ATOM      5  C   UNL     1       6.267   1.218  24.788  0.00  0.00    +0.004 A 
ATOM      6  C   UNL     1       7.030   0.039  24.862  0.00  0.00    +0.057 A 
ENDROOT
BRANCH   5   7
ATOM      7  C   UNL     1       6.750   2.423  24.075  0.00  0.00    -0.016 A 
ATOM      8  C   UNL     1       7.496   3.412  24.755  0.00  0.00    +0.020 A 
ATOM      9  C   UNL     1       7.909   4.585  24.091  0.00  0.00    +0.023 A 
ATOM     10  C   UNL     1       7.611   4.735  22.748  0.00  0.00    +0.066 A 
ATOM     11  N   UNL     1       8.141   5.950  22.397  0.00  0.00    -0.277 N 
ATOM     12  H   UNL     1       8.118   6.395  21.489  0.00  0.00    +0.189 HD
ATOM     13  N   UNL     1       8.743   6.601  23.409  0.00  0.00    -0.178 NA
ATOM     14  C   UNL     1       6.905   3.782  22.017  0.00  0.00    +0.028 A 
ATOM     15  C   UNL     1       8.602   5.770  24.452  0.00  0.00    +0.067 A 
ATOM     16  C   UNL     1       9.118   6.145  25.790  0.00  0.00    +0.068 C 
ATOM     17  C   UNL     1       6.476   2.638  22.710  0.00  0.00    +0.010 A 
ENDBRANCH   5   7
BRANCH   1  18
ATOM     18  O   UNL     1       7.374  -2.194  25.467  0.00  0.00    -0.489 OA
BRANCH  18  19
ATOM     19  C   UNL     1       7.910  -2.513  24.173  0.00  0.00    +0.247 C 
BRANCH  19  20
ATOM     20  C   UNL     1       9.439  -2.691  24.291  0.00  0.00    +0.093 C 
BRANCH  20  21
ATOM     21  N   UNL     1       9.784  -4.112  24.490  0.00  0.00    -0.324 NA
ATOM     22  H   UNL     1      10.572  -4.194  25.126  0.00  0.00    +0.119 HD
ATOM     23  H   UNL     1       8.990  -4.579  24.932  0.00  0.00    +0.119 HD
ENDBRANCH  20  21
BRANCH  20  24
ATOM     24  C   UNL     1      10.191  -2.070  23.091  0.00  0.00    +0.057 C 
BRANCH  24  25
ATOM     25  C   UNL     1      10.203  -0.559  23.038  0.00  0.00    -0.046 A 
ATOM     26  C   UNL     1      10.647   0.183  24.142  0.00  0.00    +0.004 A 
ATOM     27  C   UNL     1      10.706   1.576  24.085  0.00  0.00    +0.000 A 
ATOM     28  C   UNL     1      10.324   2.243  22.922  0.00  0.00    +0.000 A 
ATOM     29  C   UNL     1       9.870   1.518  21.823  0.00  0.00    +0.000 A 
ATOM     30  C   UNL     1       9.802   0.125  21.881  0.00  0.00    +0.004 A 
ENDBRANCH  24  25
ENDBRANCH  20  24
ENDBRANCH  19  20
ENDBRANCH  18  19
ENDBRANCH   1  18
TORSDOF 7
ENDMDL
MODEL 6
REMARK VINA RESULT:      -6.6      2.869      7.255
REMARK  Name = 
REMARK  8 active torsions:
REMARK  status: ('A' for Active; 'I' for Inactive)
REMARK    1  A    between atoms: C_2  and  N_3
REMARK    2  A    between atoms: C_2  and  C_4
REMARK    3  A    between atoms: C_2  and  C_22
REMARK    4  A    between atoms: C_4  and  O_5
REMARK    5  A    between atoms: O_5  and  C_6
REMARK    6  A    between atoms: C_8  and  C_12
REMARK    7  A    between atoms: C_18  and  C_19
REMARK    8  A    between atoms: C_22  and  C_23
REMARK                            x       y       z     vdW  Elec       q    Type
REMARK                         _______ _______ _______ _____ _____    ______ ____
ROOT
ATOM      1  C   UNL     1       6.373   2.662  24.541  0.00  0.00    +0.139 A 
ATOM      2  C   UNL     1       5.058   2.676  24.986  0.00  0.00    +0.156 A 
ATOM      3  N   UNL     1       4.416   1.590  25.472  0.00  0.00    -0.259 NA
ATOM      4  C   UNL     1       5.120   0.430  25.503  0.00  0.00    +0.119 A 
ATOM      5  C   UNL     1       6.436   0.271  25.054  0.00  0.00    +0.004 A 
ATOM      6  C   UNL     1       7.040   1.438  24.553  0.00  0.00    +0.057 A 
ENDROOT
BRANCH   5   7
ATOM      7  C   UNL     1       7.152  -1.025  25.104  0.00  0.00    -0.016 A 
ATOM      8  C   UNL     1       7.003  -1.970  24.064  0.00  0.00    +0.020 A 
ATOM      9  C   UNL     1       7.640  -3.224  24.135  0.00  0.00    +0.023 A 
ATOM     10  C   UNL     1       8.451  -3.503  25.221  0.00  0.00    +0.066 A 
ATOM     11  N   UNL     1       8.921  -4.773  25.001  0.00  0.00    -0.277 N 
ATOM     12  H   UNL     1       9.546  -5.311  25.587  0.00  0.00    +0.189 HD
ATOM     13  N   UNL     1       8.467  -5.339  23.869  0.00  0.00    -0.178 NA
ATOM     14  C   UNL     1       8.660  -2.601  26.263  0.00  0.00    +0.028 A 
ATOM     15  C   UNL     1       7.678  -4.396  23.334  0.00  0.00    +0.067 A 
ATOM     16  C   UNL     1       6.951  -4.650  22.068  0.00  0.00    +0.068 C 
ATOM     17  C   UNL     1       7.987  -1.371  26.183  0.00  0.00    +0.010 A 
ENDBRANCH   5   7
BRANCH   1  18
ATOM     18  O   UNL     1       7.085   3.726  24.071  0.00  0.00    -0.489 OA
BRANCH  18  19
ATOM     19  C   UNL     1       8.400   3.879  24.629  0.00  0.00    +0.247 C 
BRANCH  19  20
ATOM     20  C   UNL     1       9.409   4.111  23.484  0.00  0.00    +0.093 C 
BRANCH  20  21
ATOM     21  N   UNL     1       9.853   5.517  23.458  0.00  0.00    -0.324 NA
ATOM     22  H   UNL     1      10.848   5.566  23.251  0.00  0.00    +0.119 HD
ATOM     23  H   UNL     1       9.364   5.997  22.700  0.00  0.00    +0.119 HD
ENDBRANCH  20  21
BRANCH  20  24
ATOM     24  C   UNL     1      10.599   3.124  23.550  0.00  0.00    +0.057 C 
BRANCH  24  25
ATOM     25  C   UNL     1      10.300   1.710  23.104  0.00  0.00    -0.046 A 
ATOM     26  C   UNL     1       9.688   1.475  21.865  0.00  0.00    +0.004 A 
ATOM     27  C   UNL     1       9.452   0.172  21.424  0.00  0.00    +0.000 A 
ATOM     28  C   UNL     1       9.829  -0.911  22.216  0.00  0.00    +0.000 A 
ATOM     29  C   UNL     1      10.428  -0.691  23.455  0.00  0.00    +0.000 A 
ATOM     30  C   UNL     1      10.656   0.613  23.901  0.00  0.00    +0.004 A 
ENDBRANCH  24  25
ENDBRANCH  20  24
ENDBRANCH  19  20
ENDBRANCH  18  19
ENDBRANCH   1  18
TORSDOF 7
ENDMDL
MODEL 7
REMARK VINA RESULT:      -6.6      2.661      7.077
REMARK  Name = 
REMARK  8 active torsions:
REMARK  status: ('A' for Active; 'I' for Inactive)
REMARK    1  A    between atoms: C_2  and  N_3
REMARK    2  A    between atoms: C_2  and  C_4
REMARK    3  A    between atoms: C_2  and  C_22
REMARK    4  A    between atoms: C_4  and  O_5
REMARK    5  A    between atoms: O_5  and  C_6
REMARK    6  A    between atoms: C_8  and  C_12
REMARK    7  A    between atoms: C_18  and  C_19
REMARK    8  A    between atoms: C_22  and  C_23
REMARK                            x       y       z     vdW  Elec       q    Type
REMARK                         _______ _______ _______ _____ _____    ______ ____
ROOT
ATOM      1  C   UNL     1      10.143   0.313  23.275  0.00  0.00    +0.139 A 
ATOM      2  C   UNL     1       9.819   0.139  21.936  0.00  0.00    +0.156 A 
ATOM      3  N   UNL     1       9.211  -0.964  21.446  0.00  0.00    -0.259 NA
ATOM      4  C   UNL     1       8.924  -1.948  22.337  0.00  0.00    +0.119 A 
ATOM      5  C   UNL     1       9.227  -1.914  23.703  0.00  0.00    +0.004 A 
ATOM      6  C   UNL     1       9.867  -0.742  24.143  0.00  0.00    +0.057 A 
ENDROOT
BRANCH   5   7
ATOM      7  C   UNL     1       8.899  -3.024  24.627  0.00  0.00    -0.016 A 
ATOM      8  C   UNL     1       7.734  -2.975  25.425  0.00  0.00    +0.020 A 
ATOM      9  C   UNL     1       7.448  -4.004  26.345  0.00  0.00    +0.023 A 
ATOM     10  C   UNL     1       8.305  -5.088  26.425  0.00  0.00    +0.066 A 
ATOM     11  N   UNL     1       7.763  -5.902  27.386  0.00  0.00    -0.277 N 
ATOM     12  H   UNL     1       8.118  -6.791  27.715  0.00  0.00    +0.189 HD
ATOM     13  N   UNL     1       6.635  -5.424  27.941  0.00  0.00    -0.178 NA
ATOM     14  C   UNL     1       9.453  -5.206  25.644  0.00  0.00    +0.028 A 
ATOM     15  C   UNL     1       6.438  -4.258  27.309  0.00  0.00    +0.067 A 
ATOM     16  C   UNL     1       5.287  -3.394  27.663  0.00  0.00    +0.068 C 
ATOM     17  C   UNL     1       9.732  -4.152  24.759  0.00  0.00    +0.010 A 
ENDBRANCH   5   7
BRANCH   1  18
ATOM     18  O   UNL     1      10.725   1.412  23.835  0.00  0.00    -0.489 OA
BRANCH  18  19
ATOM     19  C   UNL     1      10.579   2.631  23.089  0.00  0.00    +0.247 C 
BRANCH  19  20
ATOM     20  C   UNL     1       9.595   3.561  23.830  0.00  0.00    +0.093 C 
BRANCH  20  21
ATOM     21  N   UNL     1       9.943   4.976  23.601  0.00  0.00    -0.324 NA
ATOM     22  H   UNL     1      10.733   5.240  24.183  0.00  0.00    +0.119 HD
ATOM     23  H   UNL     1      10.237   5.084  22.629  0.00  0.00    +0.119 HD
ENDBRANCH  20  21
BRANCH  20  24
ATOM     24  C   UNL     1       8.122   3.256  23.468  0.00  0.00    +0.057 C 
BRANCH  24  25
ATOM     25  C   UNL     1       7.446   2.203  24.318  0.00  0.00    -0.046 A 
ATOM     26  C   UNL     1       6.606   1.250  23.725  0.00  0.00    +0.004 A 
ATOM     27  C   UNL     1       6.016   0.246  24.495  0.00  0.00    +0.000 A 
ATOM     28  C   UNL     1       6.263   0.181  25.865  0.00  0.00    +0.000 A 
ATOM     29  C   UNL     1       7.087   1.129  26.467  0.00  0.00    +0.000 A 
ATOM     30  C   UNL     1       7.671   2.140  25.701  0.00  0.00    +0.004 A 
ENDBRANCH  24  25
ENDBRANCH  20  24
ENDBRANCH  19  20
ENDBRANCH  18  19
ENDBRANCH   1  18
TORSDOF 7
ENDMDL
MODEL 8
REMARK VINA RESULT:      -6.5      2.185      3.005
REMARK  Name = 
REMARK  8 active torsions:
REMARK  status: ('A' for Active; 'I' for Inactive)
REMARK    1  A    between atoms: C_2  and  N_3
REMARK    2  A    between atoms: C_2  and  C_4
REMARK    3  A    between atoms: C_2  and  C_22
REMARK    4  A    between atoms: C_4  and  O_5
REMARK    5  A    between atoms: O_5  and  C_6
REMARK    6  A    between atoms: C_8  and  C_12
REMARK    7  A    between atoms: C_18  and  C_19
REMARK    8  A    between atoms: C_22  and  C_23
REMARK                            x       y       z     vdW  Elec       q    Type
REMARK                         _______ _______ _______ _____ _____    ______ ____
ROOT
ATOM      1  C   UNL     1       7.497  -4.347  22.811  0.00  0.00    +0.139 A 
ATOM      2  C   UNL     1       8.278  -5.003  23.753  0.00  0.00    +0.156 A 
ATOM      3  N   UNL     1       9.226  -4.395  24.500  0.00  0.00    -0.259 NA
ATOM      4  C   UNL     1       9.412  -3.068  24.285  0.00  0.00    +0.119 A 
ATOM      5  C   UNL     1       8.721  -2.297  23.344  0.00  0.00    +0.004 A 
ATOM      6  C   UNL     1       7.755  -2.994  22.596  0.00  0.00    +0.057 A 
ENDROOT
BRANCH   5   7
ATOM      7  C   UNL     1       8.974  -0.851  23.146  0.00  0.00    -0.016 A 
ATOM      8  C   UNL     1       8.543   0.094  24.105  0.00  0.00    +0.020 A 
ATOM      9  C   UNL     1       8.735   1.473  23.892  0.00  0.00    +0.023 A 
ATOM     10  C   UNL     1       9.392   1.890  22.747  0.00  0.00    +0.066 A 
ATOM     11  N   UNL     1       9.425   3.258  22.831  0.00  0.00    -0.277 N 
ATOM     12  H   UNL     1       9.830   3.908  22.169  0.00  0.00    +0.189 HD
ATOM     13  N   UNL     1       8.831   3.757  23.929  0.00  0.00    -0.178 NA
ATOM     14  C   UNL     1       9.864   1.005  21.780  0.00  0.00    +0.028 A 
ATOM     15  C   UNL     1       8.402   2.668  24.583  0.00  0.00    +0.067 A 
ATOM     16  C   UNL     1       7.655   2.798  25.857  0.00  0.00    +0.068 C 
ATOM     17  C   UNL     1       9.632  -0.363  22.000  0.00  0.00    +0.010 A 
ENDBRANCH   5   7
BRANCH   1  18
ATOM     18  O   UNL     1       6.506  -4.895  22.051  0.00  0.00    -0.489 OA
BRANCH  18  19
ATOM     19  C   UNL     1       5.778  -5.965  22.673  0.00  0.00    +0.247 C 
BRANCH  19  20
ATOM     20  C   UNL     1       4.415  -5.431  23.163  0.00  0.00    +0.093 C 
BRANCH  20  21
ATOM     21  N   UNL     1       3.312  -6.256  22.638  0.00  0.00    -0.324 NA
ATOM     22  H   UNL     1       3.503  -6.524  21.676  0.00  0.00    +0.119 HD
ATOM     23  H   UNL     1       3.263  -7.117  23.186  0.00  0.00    +0.119 HD
ENDBRANCH  20  21
BRANCH  20  24
ATOM     24  C   UNL     1       4.364  -5.298  24.704  0.00  0.00    +0.057 C 
BRANCH  24  25
ATOM     25  C   UNL     1       5.023  -4.063  25.275  0.00  0.00    -0.046 A 
ATOM     26  C   UNL     1       5.947  -4.175  26.324  0.00  0.00    +0.004 A 
ATOM     27  C   UNL     1       6.596  -3.046  26.824  0.00  0.00    +0.000 A 
ATOM     28  C   UNL     1       6.331  -1.791  26.280  0.00  0.00    +0.000 A 
ATOM     29  C   UNL     1       5.407  -1.663  25.245  0.00  0.00    +0.000 A 
ATOM     30  C   UNL     1       4.750  -2.792  24.749  0.00  0.00    +0.004 A 
ENDBRANCH  24  25
ENDBRANCH  20  24
ENDBRANCH  19  20
ENDBRANCH  18  19
ENDBRANCH   1  18
TORSDOF 7
ENDMDL
MODEL 9
REMARK VINA RESULT:      -6.3      2.786      7.011
REMARK  Name = 
REMARK  8 active torsions:
REMARK  status: ('A' for Active; 'I' for Inactive)
REMARK    1  A    between atoms: C_2  and  N_3
REMARK    2  A    between atoms: C_2  and  C_4
REMARK    3  A    between atoms: C_2  and  C_22
REMARK    4  A    between atoms: C_4  and  O_5
REMARK    5  A    between atoms: O_5  and  C_6
REMARK    6  A    between atoms: C_8  and  C_12
REMARK    7  A    between atoms: C_18  and  C_19
REMARK    8  A    between atoms: C_22  and  C_23
REMARK                            x       y       z     vdW  Elec       q    Type
REMARK                         _______ _______ _______ _____ _____    ______ ____
ROOT
ATOM      1  C   UNL     1       7.133   1.251  24.966  0.00  0.00    +0.139 A 
ATOM      2  C   UNL     1       7.284   1.182  26.344  0.00  0.00    +0.156 A 
ATOM      3  N   UNL     1       7.104   0.054  27.065  0.00  0.00    -0.259 NA
ATOM      4  C   UNL     1       6.743  -1.059  26.376  0.00  0.00    +0.119 A 
ATOM      5  C   UNL     1       6.523  -1.117  24.995  0.00  0.00    +0.004 A 
ATOM      6  C   UNL     1       6.720   0.094  24.308  0.00  0.00    +0.057 A 
ENDROOT
BRANCH   5   7
ATOM      7  C   UNL     1       6.119  -2.360  24.297  0.00  0.00    -0.016 A 
ATOM      8  C   UNL     1       5.747  -3.509  25.030  0.00  0.00    +0.020 A 
ATOM      9  C   UNL     1       5.415  -4.708  24.368  0.00  0.00    +0.023 A 
ATOM     10  C   UNL     1       5.415  -4.731  22.984  0.00  0.00    +0.066 A 
ATOM     11  N   UNL     1       5.052  -6.010  22.647  0.00  0.00    -0.277 N 
ATOM     12  H   UNL     1       4.946  -6.399  21.719  0.00  0.00    +0.189 HD
ATOM     13  N   UNL     1       4.832  -6.816  23.702  0.00  0.00    -0.178 NA
ATOM     14  C   UNL     1       5.745  -3.623  22.207  0.00  0.00    +0.028 A 
ATOM     15  C   UNL     1       5.056  -6.024  24.761  0.00  0.00    +0.067 A 
ATOM     16  C   UNL     1       4.943  -6.558  26.139  0.00  0.00    +0.068 C 
ATOM     17  C   UNL     1       6.104  -2.450  22.892  0.00  0.00    +0.010 A 
ENDBRANCH   5   7
BRANCH   1  18
ATOM     18  O   UNL     1       7.331   2.348  24.179  0.00  0.00    -0.489 OA
BRANCH  18  19
ATOM     19  C   UNL     1       8.393   3.220  24.599  0.00  0.00    +0.247 C 
BRANCH  19  20
ATOM     20  C   UNL     1       9.369   3.428  23.421  0.00  0.00    +0.093 C 
BRANCH  20  21
ATOM     21  N   UNL     1       9.820   4.832  23.361  0.00  0.00    -0.324 NA
ATOM     22  H   UNL     1      10.114   5.144  24.282  0.00  0.00    +0.119 HD
ATOM     23  H   UNL     1      10.638   4.883  22.750  0.00  0.00    +0.119 HD
ENDBRANCH  20  21
BRANCH  20  24
ATOM     24  C   UNL     1      10.554   2.435  23.466  0.00  0.00    +0.057 C 
BRANCH  24  25
ATOM     25  C   UNL     1      10.217   1.001  23.126  0.00  0.00    -0.046 A 
ATOM     26  C   UNL     1       9.711   0.675  21.860  0.00  0.00    +0.004 A 
ATOM     27  C   UNL     1       9.443  -0.652  21.522  0.00  0.00    +0.000 A 
ATOM     28  C   UNL     1       9.681  -1.669  22.444  0.00  0.00    +0.000 A 
ATOM     29  C   UNL     1      10.173  -1.357  23.710  0.00  0.00    +0.000 A 
ATOM     30  C   UNL     1      10.433  -0.029  24.053  0.00  0.00    +0.004 A 
ENDBRANCH  24  25
ENDBRANCH  20  24
ENDBRANCH  19  20
ENDBRANCH  18  19
ENDBRANCH   1  18
TORSDOF 7
ENDMDL
