MODEL 1
REMARK VINA RESULT:      -6.2      0.000      0.000
REMARK  Name = 
REMARK  5 active torsions:
REMARK  status: ('A' for Active; 'I' for Inactive)
REMARK    1  A    between atoms: C_2  and  C_4
REMARK    2  A    between atoms: C_4  and  S_5
REMARK    3  A    between atoms: S_5  and  C_7
REMARK    4  A    between atoms: C_7  and  C_8
REMARK    5  A    between atoms: C_7  and  C_14
REMARK                            x       y       z     vdW  Elec       q    Type
REMARK                         _______ _______ _______ _____ _____    ______ ____
ROOT
ATOM      1  C   UNL     1       8.229  -3.023  23.913  0.00  0.00    +0.139 C 
ENDROOT
BRANCH   1   2
ATOM      2  C   UNL     1       8.582  -1.677  23.273  0.00  0.00    -0.028 A 
ATOM      3  C   UNL     1       9.517  -1.572  22.226  0.00  0.00    +0.005 A 
ATOM      4  C   UNL     1       9.744  -0.356  21.579  0.00  0.00    +0.000 A 
ATOM      5  C   UNL     1       9.046   0.781  21.971  0.00  0.00    +0.000 A 
ATOM      6  C   UNL     1       8.134   0.705  23.021  0.00  0.00    +0.000 A 
ATOM      7  C   UNL     1       7.907  -0.511  23.673  0.00  0.00    +0.005 A 
ENDBRANCH   1   2
BRANCH   1   8
ATOM      8  C   UNL     1       7.444  -3.954  22.993  0.00  0.00    -0.028 A 
ATOM      9  C   UNL     1       7.787  -5.321  22.935  0.00  0.00    +0.005 A 
ATOM     10  C   UNL     1       7.133  -6.194  22.063  0.00  0.00    +0.000 A 
ATOM     11  C   UNL     1       6.128  -5.724  21.225  0.00  0.00    +0.000 A 
ATOM     12  C   UNL     1       5.768  -4.379  21.269  0.00  0.00    +0.000 A 
ATOM     13  C   UNL     1       6.413  -3.504  22.149  0.00  0.00    +0.005 A 
ENDBRANCH   1   8
BRANCH   1  14
ATOM     14  S   UNL     1       7.449  -2.724  25.569  0.00  0.00    +0.043 S 
ATOM     15  O   UNL     1       8.558  -2.651  26.585  0.00  0.00    -0.256 OA
BRANCH  14  16
ATOM     16  C   UNL     1       6.657  -4.337  25.797  0.00  0.00    +0.200 C 
BRANCH  16  20
ATOM     17  N   UNL     1       8.561  -5.706  26.489  0.00  0.00    -0.329 N 
ATOM     18  H   UNL     1       9.086  -5.277  25.731  0.00  0.00    +0.145 HD
ATOM     19  H   UNL     1       9.124  -6.091  27.243  0.00  0.00    +0.145 HD
ATOM     20  C   UNL     1       7.393  -5.105  26.877  0.00  0.00    +0.223 C 
ATOM     21  O   UNL     1       6.975  -5.219  28.024  0.00  0.00    -0.275 OA
ENDBRANCH  16  20
ENDBRANCH  14  16
ENDBRANCH   1  14
TORSDOF 5
ENDMDL
MODEL 2
REMARK VINA RESULT:      -6.0      1.471      4.525
REMARK  Name = 
REMARK  5 active torsions:
REMARK  status: ('A' for Active; 'I' for Inactive)
REMARK    1  A    between atoms: C_2  and  C_4
REMARK    2  A    between atoms: C_4  and  S_5
REMARK    3  A    between atoms: S_5  and  C_7
REMARK    4  A    between atoms: C_7  and  C_8
REMARK    5  A    between atoms: C_7  and  C_14
REMARK                            x       y       z     vdW  Elec       q    Type
REMARK                         _______ _______ _______ _____ _____    ______ ____
ROOT
ATOM      1  C   UNL     1       7.436  -3.226  24.477  0.00  0.00    +0.139 C 
ENDROOT
BRANCH   1   2
ATOM      2  C   UNL     1       6.804  -4.293  23.578  0.00  0.00    -0.028 A 
ATOM      3  C   UNL     1       5.436  -4.617  23.655  0.00  0.00    +0.005 A 
ATOM      4  C   UNL     1       4.853  -5.510  22.754  0.00  0.00    +0.000 A 
ATOM      5  C   UNL     1       5.628  -6.102  21.762  0.00  0.00    +0.000 A 
ATOM      6  C   UNL     1       6.989  -5.815  21.683  0.00  0.00    +0.000 A 
ATOM      7  C   UNL     1       7.576  -4.924  22.587  0.00  0.00    +0.005 A 
ENDBRANCH   1   2
BRANCH   1   8
ATOM      8  C   UNL     1       8.330  -2.242  23.727  0.00  0.00    -0.028 A 
ATOM      9  C   UNL     1       7.743  -1.158  23.043  0.00  0.00    +0.005 A 
ATOM     10  C   UNL     1       8.519  -0.268  22.296  0.00  0.00    +0.000 A 
ATOM     11  C   UNL     1       9.895  -0.444  22.209  0.00  0.00    +0.000 A 
ATOM     12  C   UNL     1      10.498  -1.505  22.880  0.00  0.00    +0.000 A 
ATOM     13  C   UNL     1       9.725  -2.391  23.639  0.00  0.00    +0.005 A 
ENDBRANCH   1   8
BRANCH   1  14
ATOM     14  S   UNL     1       8.236  -4.053  25.933  0.00  0.00    +0.043 S 
ATOM     15  O   UNL     1       8.583  -5.459  25.520  0.00  0.00    -0.256 OA
BRANCH  14  16
ATOM     16  C   UNL     1       6.785  -4.182  27.009  0.00  0.00    +0.200 C 
BRANCH  16  20
ATOM     17  N   UNL     1       5.825  -6.392  26.598  0.00  0.00    -0.329 N 
ATOM     18  H   UNL     1       5.800  -6.147  25.610  0.00  0.00    +0.145 HD
ATOM     19  H   UNL     1       5.826  -7.389  26.797  0.00  0.00    +0.145 HD
ATOM     20  C   UNL     1       6.602  -5.628  27.426  0.00  0.00    +0.223 C 
ATOM     21  O   UNL     1       7.085  -6.097  28.451  0.00  0.00    -0.275 OA
ENDBRANCH  16  20
ENDBRANCH  14  16
ENDBRANCH   1  14
TORSDOF 5
ENDMDL
MODEL 3
REMARK VINA RESULT:      -5.8      5.457      8.834
REMARK  Name = 
REMARK  5 active torsions:
REMARK  status: ('A' for Active; 'I' for Inactive)
REMARK    1  A    between atoms: C_2  and  C_4
REMARK    2  A    between atoms: C_4  and  S_5
REMARK    3  A    between atoms: S_5  and  C_7
REMARK    4  A    between atoms: C_7  and  C_8
REMARK    5  A    between atoms: C_7  and  C_14
REMARK                            x       y       z     vdW  Elec       q    Type
REMARK                         _______ _______ _______ _____ _____    ______ ____
ROOT
ATOM      1  C   UNL     1       9.150   3.598  23.434  0.00  0.00    +0.139 C 
ENDROOT
BRANCH   1   2
ATOM      2  C   UNL     1       9.614   2.162  23.173  0.00  0.00    -0.028 A 
ATOM      3  C   UNL     1      10.168   1.360  24.189  0.00  0.00    +0.005 A 
ATOM      4  C   UNL     1      10.482   0.019  23.961  0.00  0.00    +0.000 A 
ATOM      5  C   UNL     1      10.253  -0.546  22.711  0.00  0.00    +0.000 A 
ATOM      6  C   UNL     1       9.729   0.235  21.685  0.00  0.00    +0.000 A 
ATOM      7  C   UNL     1       9.418   1.579  21.908  0.00  0.00    +0.005 A 
ENDBRANCH   1   2
BRANCH   1   8
ATOM      8  C   UNL     1      10.283   4.553  23.796  0.00  0.00    -0.028 A 
ATOM      9  C   UNL     1      10.006   5.685  24.592  0.00  0.00    +0.005 A 
ATOM     10  C   UNL     1      11.002   6.616  24.898  0.00  0.00    +0.000 A 
ATOM     11  C   UNL     1      12.293   6.444  24.410  0.00  0.00    +0.000 A 
ATOM     12  C   UNL     1      12.591   5.332  23.626  0.00  0.00    +0.000 A 
ATOM     13  C   UNL     1      11.599   4.391  23.328  0.00  0.00    +0.005 A 
ENDBRANCH   1   8
BRANCH   1  14
ATOM     14  S   UNL     1       7.738   3.571  24.638  0.00  0.00    +0.043 S 
ATOM     15  O   UNL     1       6.962   2.304  24.396  0.00  0.00    -0.256 OA
BRANCH  14  16
ATOM     16  C   UNL     1       6.749   4.916  23.933  0.00  0.00    +0.200 C 
BRANCH  16  20
ATOM     17  N   UNL     1       6.177   3.728  21.874  0.00  0.00    -0.329 N 
ATOM     18  H   UNL     1       5.394   3.320  22.382  0.00  0.00    +0.145 HD
ATOM     19  H   UNL     1       6.076   3.745  20.862  0.00  0.00    +0.145 HD
ATOM     20  C   UNL     1       6.790   4.823  22.420  0.00  0.00    +0.223 C 
ATOM     21  O   UNL     1       7.355   5.649  21.712  0.00  0.00    -0.275 OA
ENDBRANCH  16  20
ENDBRANCH  14  16
ENDBRANCH   1  14
TORSDOF 5
ENDMDL
MODEL 4
REMARK VINA RESULT:      -5.7      1.607      2.246
REMARK  Name = 
REMARK  5 active torsions:
REMARK  status: ('A' for Active; 'I' for Inactive)
REMARK    1  A    between atoms: C_2  and  C_4
REMARK    2  A    between atoms: C_4  and  S_5
REMARK    3  A    between atoms: S_5  and  C_7
REMARK    4  A    between atoms: C_7  and  C_8
REMARK    5  A    between atoms: C_7  and  C_14
REMARK                            x       y       z     vdW  Elec       q    Type
REMARK                         _______ _______ _______ _____ _____    ______ ____
ROOT
ATOM      1  C   UNL     1       8.606  -3.723  24.530  0.00  0.00    +0.139 C 
ENDROOT
BRANCH   1   2
ATOM      2  C   UNL     1       9.136  -2.296  24.355  0.00  0.00    -0.028 A 
ATOM      3  C   UNL     1       8.929  -1.299  25.327  0.00  0.00    +0.005 A 
ATOM      4  C   UNL     1       9.514  -0.038  25.205  0.00  0.00    +0.000 A 
ATOM      5  C   UNL     1      10.311   0.255  24.103  0.00  0.00    +0.000 A 
ATOM      6  C   UNL     1      10.509  -0.708  23.117  0.00  0.00    +0.000 A 
ATOM      7  C   UNL     1       9.922  -1.971  23.236  0.00  0.00    +0.005 A 
ENDBRANCH   1   2
BRANCH   1   8
ATOM      8  C   UNL     1       7.752  -4.209  23.363  0.00  0.00    -0.028 A 
ATOM      9  C   UNL     1       6.818  -3.330  22.776  0.00  0.00    +0.005 A 
ATOM     10  C   UNL     1       5.976  -3.753  21.744  0.00  0.00    +0.000 A 
ATOM     11  C   UNL     1       6.041  -5.062  21.281  0.00  0.00    +0.000 A 
ATOM     12  C   UNL     1       6.958  -5.947  21.843  0.00  0.00    +0.000 A 
ATOM     13  C   UNL     1       7.811  -5.523  22.868  0.00  0.00    +0.005 A 
ENDBRANCH   1   8
BRANCH   1  14
ATOM     14  S   UNL     1       7.806  -3.874  26.197  0.00  0.00    +0.043 S 
ATOM     15  O   UNL     1       8.709  -4.718  27.057  0.00  0.00    -0.256 OA
BRANCH  14  16
ATOM     16  C   UNL     1       6.408  -4.931  25.738  0.00  0.00    +0.200 C 
BRANCH  16  20
ATOM     17  N   UNL     1       5.915  -4.948  28.133  0.00  0.00    -0.329 N 
ATOM     18  H   UNL     1       5.789  -3.940  28.067  0.00  0.00    +0.145 HD
ATOM     19  H   UNL     1       5.448  -5.393  28.919  0.00  0.00    +0.145 HD
ATOM     20  C   UNL     1       5.916  -5.668  26.969  0.00  0.00    +0.223 C 
ATOM     21  O   UNL     1       5.564  -6.842  26.952  0.00  0.00    -0.275 OA
ENDBRANCH  16  20
ENDBRANCH  14  16
ENDBRANCH   1  14
TORSDOF 5
ENDMDL
MODEL 5
REMARK VINA RESULT:      -5.7      2.163      5.008
REMARK  Name = 
REMARK  5 active torsions:
REMARK  status: ('A' for Active; 'I' for Inactive)
REMARK    1  A    between atoms: C_2  and  C_4
REMARK    2  A    between atoms: C_4  and  S_5
REMARK    3  A    between atoms: S_5  and  C_7
REMARK    4  A    between atoms: C_7  and  C_8
REMARK    5  A    between atoms: C_7  and  C_14
REMARK                            x       y       z     vdW  Elec       q    Type
REMARK                         _______ _______ _______ _____ _____    ______ ____
ROOT
ATOM      1  C   UNL     1       6.661  -1.950  23.535  0.00  0.00    +0.139 C 
ENDROOT
BRANCH   1   2
ATOM      2  C   UNL     1       6.694  -3.359  22.936  0.00  0.00    -0.028 A 
ATOM      3  C   UNL     1       6.024  -3.676  21.738  0.00  0.00    +0.005 A 
ATOM      4  C   UNL     1       6.157  -4.933  21.147  0.00  0.00    +0.000 A 
ATOM      5  C   UNL     1       6.956  -5.902  21.745  0.00  0.00    +0.000 A 
ATOM      6  C   UNL     1       7.608  -5.618  22.942  0.00  0.00    +0.000 A 
ATOM      7  C   UNL     1       7.474  -4.361  23.539  0.00  0.00    +0.005 A 
ENDBRANCH   1   2
BRANCH   1   8
ATOM      8  C   UNL     1       7.569  -0.955  22.819  0.00  0.00    -0.028 A 
ATOM      9  C   UNL     1       7.213   0.409  22.788  0.00  0.00    +0.005 A 
ATOM     10  C   UNL     1       7.985   1.343  22.093  0.00  0.00    +0.000 A 
ATOM     11  C   UNL     1       9.124   0.936  21.408  0.00  0.00    +0.000 A 
ATOM     12  C   UNL     1       9.498  -0.405  21.428  0.00  0.00    +0.000 A 
ATOM     13  C   UNL     1       8.734  -1.341  22.133  0.00  0.00    +0.005 A 
ENDBRANCH   1   8
BRANCH   1  14
ATOM     14  S   UNL     1       6.921  -2.063  25.369  0.00  0.00    +0.043 S 
ATOM     15  O   UNL     1       6.361  -0.807  25.983  0.00  0.00    -0.256 OA
BRANCH  14  16
ATOM     16  C   UNL     1       8.724  -1.885  25.403  0.00  0.00    +0.200 C 
BRANCH  16  20
ATOM     17  N   UNL     1       8.877  -0.427  27.360  0.00  0.00    -0.329 N 
ATOM     18  H   UNL     1       8.952  -1.271  27.925  0.00  0.00    +0.145 HD
ATOM     19  H   UNL     1       9.253   0.415  27.787  0.00  0.00    +0.145 HD
ATOM     20  C   UNL     1       9.080  -0.543  26.011  0.00  0.00    +0.223 C 
ATOM     21  O   UNL     1       9.498   0.403  25.352  0.00  0.00    -0.275 OA
ENDBRANCH  16  20
ENDBRANCH  14  16
ENDBRANCH   1  14
TORSDOF 5
ENDMDL
MODEL 6
REMARK VINA RESULT:      -5.6      1.601      4.431
REMARK  Name = 
REMARK  5 active torsions:
REMARK  status: ('A' for Active; 'I' for Inactive)
REMARK    1  A    between atoms: C_2  and  C_4
REMARK    2  A    between atoms: C_4  and  S_5
REMARK    3  A    between atoms: S_5  and  C_7
REMARK    4  A    between atoms: C_7  and  C_8
REMARK    5  A    between atoms: C_7  and  C_14
REMARK                            x       y       z     vdW  Elec       q    Type
REMARK                         _______ _______ _______ _____ _____    ______ ____
ROOT
ATOM      1  C   UNL     1       7.644  -1.993  24.046  0.00  0.00    +0.139 C 
ENDROOT
BRANCH   1   2
ATOM      2  C   UNL     1       6.739  -3.066  23.433  0.00  0.00    -0.028 A 
ATOM      3  C   UNL     1       6.887  -3.494  22.100  0.00  0.00    +0.005 A 
ATOM      4  C   UNL     1       6.130  -4.551  21.592  0.00  0.00    +0.000 A 
ATOM      5  C   UNL     1       5.204  -5.196  22.404  0.00  0.00    +0.000 A 
ATOM      6  C   UNL     1       5.024  -4.773  23.718  0.00  0.00    +0.000 A 
ATOM      7  C   UNL     1       5.778  -3.713  24.229  0.00  0.00    +0.005 A 
ENDBRANCH   1   2
BRANCH   1   8
ATOM      8  C   UNL     1       7.860  -0.782  23.143  0.00  0.00    -0.028 A 
ATOM      9  C   UNL     1       9.036  -0.697  22.370  0.00  0.00    +0.005 A 
ATOM     10  C   UNL     1       9.301   0.422  21.575  0.00  0.00    +0.000 A 
ATOM     11  C   UNL     1       8.402   1.482  21.540  0.00  0.00    +0.000 A 
ATOM     12  C   UNL     1       7.231   1.418  22.292  0.00  0.00    +0.000 A 
ATOM     13  C   UNL     1       6.958   0.294  23.079  0.00  0.00    +0.005 A 
ENDBRANCH   1   8
BRANCH   1  14
ATOM     14  S   UNL     1       9.200  -2.790  24.666  0.00  0.00    +0.043 S 
ATOM     15  O   UNL     1       9.464  -3.997  23.804  0.00  0.00    -0.256 OA
BRANCH  14  16
ATOM     16  C   UNL     1       8.578  -3.420  26.246  0.00  0.00    +0.200 C 
BRANCH  16  20
ATOM     17  N   UNL     1      10.054  -5.367  26.152  0.00  0.00    -0.329 N 
ATOM     18  H   UNL     1      10.803  -4.756  26.472  0.00  0.00    +0.145 HD
ATOM     19  H   UNL     1      10.196  -6.357  26.331  0.00  0.00    +0.145 HD
ATOM     20  C   UNL     1       8.766  -4.924  26.292  0.00  0.00    +0.223 C 
ATOM     21  O   UNL     1       7.837  -5.713  26.416  0.00  0.00    -0.275 OA
ENDBRANCH  16  20
ENDBRANCH  14  16
ENDBRANCH   1  14
TORSDOF 5
ENDMDL
MODEL 7
REMARK VINA RESULT:      -5.6      1.501      4.507
REMARK  Name = 
REMARK  5 active torsions:
REMARK  status: ('A' for Active; 'I' for Inactive)
REMARK    1  A    between atoms: C_2  and  C_4
REMARK    2  A    between atoms: C_4  and  S_5
REMARK    3  A    between atoms: S_5  and  C_7
REMARK    4  A    between atoms: C_7  and  C_8
REMARK    5  A    between atoms: C_7  and  C_14
REMARK                            x       y       z     vdW  Elec       q    Type
REMARK                         _______ _______ _______ _____ _____    ______ ____
ROOT
ATOM      1  C   UNL     1       6.921  -2.585  24.186  0.00  0.00    +0.139 C 
ENDROOT
BRANCH   1   2
ATOM      2  C   UNL     1       6.634  -3.657  23.130  0.00  0.00    -0.028 A 
ATOM      3  C   UNL     1       6.073  -3.339  21.878  0.00  0.00    +0.005 A 
ATOM      4  C   UNL     1       5.922  -4.310  20.886  0.00  0.00    +0.000 A 
ATOM      5  C   UNL     1       6.323  -5.619  21.129  0.00  0.00    +0.000 A 
ATOM      6  C   UNL     1       6.857  -5.961  22.368  0.00  0.00    +0.000 A 
ATOM      7  C   UNL     1       7.006  -4.992  23.365  0.00  0.00    +0.005 A 
ENDBRANCH   1   2
BRANCH   1   8
ATOM      8  C   UNL     1       8.182  -1.772  23.909  0.00  0.00    -0.028 A 
ATOM      9  C   UNL     1       8.319  -0.491  24.484  0.00  0.00    +0.005 A 
ATOM     10  C   UNL     1       9.430   0.310  24.209  0.00  0.00    +0.000 A 
ATOM     11  C   UNL     1      10.424  -0.144  23.349  0.00  0.00    +0.000 A 
ATOM     12  C   UNL     1      10.312  -1.407  22.774  0.00  0.00    +0.000 A 
ATOM     13  C   UNL     1       9.207  -2.217  23.056  0.00  0.00    +0.005 A 
ENDBRANCH   1   8
BRANCH   1  14
ATOM     14  S   UNL     1       6.845  -3.356  25.872  0.00  0.00    +0.043 S 
ATOM     15  O   UNL     1       6.238  -2.342  26.805  0.00  0.00    -0.256 OA
BRANCH  14  16
ATOM     16  C   UNL     1       8.618  -3.389  26.240  0.00  0.00    +0.200 C 
BRANCH  16  20
ATOM     17  N   UNL     1       8.525  -5.813  26.552  0.00  0.00    -0.329 N 
ATOM     18  H   UNL     1       7.538  -5.700  26.773  0.00  0.00    +0.145 HD
ATOM     19  H   UNL     1       8.795  -6.740  26.232  0.00  0.00    +0.145 HD
ATOM     20  C   UNL     1       9.164  -4.771  25.935  0.00  0.00    +0.223 C 
ATOM     21  O   UNL     1      10.133  -4.965  25.209  0.00  0.00    -0.275 OA
ENDBRANCH  16  20
ENDBRANCH  14  16
ENDBRANCH   1  14
TORSDOF 5
ENDMDL
MODEL 8
REMARK VINA RESULT:      -5.5      4.994      7.930
REMARK  Name = 
REMARK  5 active torsions:
REMARK  status: ('A' for Active; 'I' for Inactive)
REMARK    1  A    between atoms: C_2  and  C_4
REMARK    2  A    between atoms: C_4  and  S_5
REMARK    3  A    between atoms: S_5  and  C_7
REMARK    4  A    between atoms: C_7  and  C_8
REMARK    5  A    between atoms: C_7  and  C_14
REMARK                            x       y       z     vdW  Elec       q    Type
REMARK                         _______ _______ _______ _____ _____    ______ ____
ROOT
ATOM      1  C   UNL     1       9.118   3.485  23.317  0.00  0.00    +0.139 C 
ENDROOT
BRANCH   1   2
ATOM      2  C   UNL     1       9.614   2.041  23.193  0.00  0.00    -0.028 A 
ATOM      3  C   UNL     1      10.098   1.321  24.302  0.00  0.00    +0.005 A 
ATOM      4  C   UNL     1      10.440  -0.028  24.195  0.00  0.00    +0.000 A 
ATOM      5  C   UNL     1      10.312  -0.683  22.975  0.00  0.00    +0.000 A 
ATOM      6  C   UNL     1       9.858   0.016  21.860  0.00  0.00    +0.000 A 
ATOM      7  C   UNL     1       9.518   1.368  21.963  0.00  0.00    +0.005 A 
ENDBRANCH   1   2
BRANCH   1   8
ATOM      8  C   UNL     1      10.203   4.474  23.732  0.00  0.00    -0.028 A 
ATOM      9  C   UNL     1       9.861   5.576  24.544  0.00  0.00    +0.005 A 
ATOM     10  C   UNL     1      10.811   6.537  24.898  0.00  0.00    +0.000 A 
ATOM     11  C   UNL     1      12.121   6.424  24.445  0.00  0.00    +0.000 A 
ATOM     12  C   UNL     1      12.483   5.342  23.647  0.00  0.00    +0.000 A 
ATOM     13  C   UNL     1      11.537   4.372  23.300  0.00  0.00    +0.005 A 
ENDBRANCH   1   8
BRANCH   1  14
ATOM     14  S   UNL     1       7.591   3.516  24.370  0.00  0.00    +0.043 S 
ATOM     15  O   UNL     1       7.873   2.694  25.600  0.00  0.00    -0.256 OA
BRANCH  14  16
ATOM     16  C   UNL     1       6.512   2.506  23.321  0.00  0.00    +0.200 C 
BRANCH  16  20
ATOM     17  N   UNL     1       6.639   0.246  24.246  0.00  0.00    -0.329 N 
ATOM     18  H   UNL     1       7.652   0.324  24.175  0.00  0.00    +0.145 HD
ATOM     19  H   UNL     1       6.302  -0.435  24.922  0.00  0.00    +0.145 HD
ATOM     20  C   UNL     1       5.903   1.397  24.156  0.00  0.00    +0.223 C 
ATOM     21  O   UNL     1       4.809   1.491  24.701  0.00  0.00    -0.275 OA
ENDBRANCH  16  20
ENDBRANCH  14  16
ENDBRANCH   1  14
TORSDOF 5
ENDMDL
MODEL 9
REMARK VINA RESULT:      -5.4      2.313      5.140
REMARK  Name = 
REMARK  5 active torsions:
REMARK  status: ('A' for Active; 'I' for Inactive)
REMARK    1  A    between atoms: C_2  and  C_4
REMARK    2  A    between atoms: C_4  and  S_5
REMARK    3  A    between atoms: S_5  and  C_7
REMARK    4  A    between atoms: C_7  and  C_8
REMARK    5  A    between atoms: C_7  and  C_14
REMARK                            x       y       z     vdW  Elec       q    Type
REMARK                         _______ _______ _______ _____ _____    ______ ____
ROOT
ATOM      1  C   UNL     1       6.823  -3.337  24.899  0.00  0.00    +0.139 C 
ENDROOT
BRANCH   1   2
ATOM      2  C   UNL     1       6.395  -3.873  26.268  0.00  0.00    -0.028 A 
ATOM      3  C   UNL     1       5.366  -3.270  27.016  0.00  0.00    +0.005 A 
ATOM      4  C   UNL     1       4.913  -3.836  28.209  0.00  0.00    +0.000 A 
ATOM      5  C   UNL     1       5.484  -5.013  28.681  0.00  0.00    +0.000 A 
ATOM      6  C   UNL     1       6.521  -5.612  27.971  0.00  0.00    +0.000 A 
ATOM      7  C   UNL     1       6.979  -5.046  26.778  0.00  0.00    +0.005 A 
ENDBRANCH   1   2
BRANCH   1   8
ATOM      8  C   UNL     1       6.575  -4.312  23.752  0.00  0.00    -0.028 A 
ATOM      9  C   UNL     1       5.252  -4.693  23.442  0.00  0.00    +0.005 A 
ATOM     10  C   UNL     1       4.985  -5.628  22.439  0.00  0.00    +0.000 A 
ATOM     11  C   UNL     1       6.030  -6.210  21.729  0.00  0.00    +0.000 A 
ATOM     12  C   UNL     1       7.343  -5.846  22.016  0.00  0.00    +0.000 A 
ATOM     13  C   UNL     1       7.614  -4.901  23.011  0.00  0.00    +0.005 A 
ENDBRANCH   1   8
BRANCH   1  14
ATOM     14  S   UNL     1       8.560  -2.693  25.012  0.00  0.00    +0.043 S 
ATOM     15  O   UNL     1       8.661  -1.886  26.280  0.00  0.00    -0.256 OA
BRANCH  14  16
ATOM     16  C   UNL     1       8.501  -1.499  23.652  0.00  0.00    +0.200 C 
BRANCH  16  20
ATOM     17  N   UNL     1       9.651  -1.064  21.538  0.00  0.00    -0.329 N 
ATOM     18  H   UNL     1       9.159  -0.173  21.507  0.00  0.00    +0.145 HD
ATOM     19  H   UNL     1      10.508  -1.105  20.993  0.00  0.00    +0.145 HD
ATOM     20  C   UNL     1       9.684  -1.733  22.732  0.00  0.00    +0.223 C 
ATOM     21  O   UNL     1      10.607  -2.491  23.007  0.00  0.00    -0.275 OA
ENDBRANCH  16  20
ENDBRANCH  14  16
ENDBRANCH   1  14
TORSDOF 5
ENDMDL
