MODEL 1
REMARK VINA RESULT:      -4.3      0.000      0.000
REMARK  Name = 
REMARK  7 active torsions:
REMARK  status: ('A' for Active; 'I' for Inactive)
REMARK    1  A    between atoms: C_1  and  C_2
REMARK    2  A    between atoms: C_2  and  S_4
REMARK    3  A    between atoms: S_4  and  C_5
REMARK    4  A    between atoms: C_5  and  C_6
REMARK    5  A    between atoms: C_6  and  N_8
REMARK    6  A    between atoms: C_6  and  C_9
REMARK    7  A    between atoms: C_9  and  O_10
REMARK                            x       y       z     vdW  Elec       q    Type
REMARK                         _______ _______ _______ _____ _____    ______ ____
ROOT
ATOM      1  C   UNK     1       8.857  -5.487  25.331  0.00  0.00    +0.171 C 
ENDROOT
BRANCH   1   2
ATOM      2  N   UNK     1      10.354  -5.436  25.315  0.00  0.00    -0.318 NA
ATOM      3  H   UNK     1      10.641  -4.581  25.803  0.00  0.00    +0.119 HD
ATOM      4  H   UNK     1      10.681  -6.195  25.925  0.00  0.00    +0.119 HD
ENDBRANCH   1   2
BRANCH   1   5
ATOM      5  C   UNK     1       8.376  -4.901  26.663  0.00  0.00    +0.323 C 
ATOM      6  O   UNK     1       8.441  -3.724  26.976  0.00  0.00    -0.249 OA
BRANCH   5   7
ATOM      7  O   UNK     1       7.882  -5.869  27.480  0.00  0.00    -0.480 OA
ATOM      8  H   UNK     1       6.898  -5.767  27.471  0.00  0.00    +0.295 HD
ENDBRANCH   5   7
ENDBRANCH   1   5
BRANCH   1   9
ATOM      9  C   UNK     1       8.229  -4.672  24.194  0.00  0.00    +0.107 C 
BRANCH   9  10
ATOM     10  S   UNK     1       6.420  -4.915  24.150  0.00  0.00    -0.086 S 
BRANCH  10  12
ATOM     11  C   UNK     1       7.049  -5.828  21.641  0.00  0.00    +0.099 C 
ATOM     12  C   UNK     1       6.171  -4.877  22.405  0.00  0.00    +0.186 C 
ATOM     13  O   UNK     1       5.358  -4.132  21.876  0.00  0.00    -0.286 OA
ENDBRANCH  10  12
ENDBRANCH   9  10
ENDBRANCH   1   9
TORSDOF 6
ENDMDL
MODEL 2
REMARK VINA RESULT:      -4.2      1.785      1.876
REMARK  Name = 
REMARK  7 active torsions:
REMARK  status: ('A' for Active; 'I' for Inactive)
REMARK    1  A    between atoms: C_1  and  C_2
REMARK    2  A    between atoms: C_2  and  S_4
REMARK    3  A    between atoms: S_4  and  C_5
REMARK    4  A    between atoms: C_5  and  C_6
REMARK    5  A    between atoms: C_6  and  N_8
REMARK    6  A    between atoms: C_6  and  C_9
REMARK    7  A    between atoms: C_9  and  O_10
REMARK                            x       y       z     vdW  Elec       q    Type
REMARK                         _______ _______ _______ _____ _____    ______ ____
ROOT
ATOM      1  C   UNK     1       8.012  -4.729  25.860  0.00  0.00    +0.171 C 
ENDROOT
BRANCH   1   2
ATOM      2  N   UNK     1       8.119  -5.586  27.083  0.00  0.00    -0.318 NA
ATOM      3  H   UNK     1       8.572  -6.465  26.808  0.00  0.00    +0.119 HD
ATOM      4  H   UNK     1       8.805  -5.133  27.701  0.00  0.00    +0.119 HD
ENDBRANCH   1   2
BRANCH   1   5
ATOM      5  C   UNK     1       9.357  -4.778  25.125  0.00  0.00    +0.323 C 
ATOM      6  O   UNK     1       9.825  -3.871  24.457  0.00  0.00    -0.249 OA
BRANCH   5   7
ATOM      7  O   UNK     1       9.964  -5.984  25.287  0.00  0.00    -0.480 OA
ATOM      8  H   UNK     1      10.355  -5.979  26.196  0.00  0.00    +0.295 HD
ENDBRANCH   5   7
ENDBRANCH   1   5
BRANCH   1   9
ATOM      9  C   UNK     1       6.921  -5.213  24.896  0.00  0.00    +0.107 C 
BRANCH   9  10
ATOM     10  S   UNK     1       6.220  -3.811  23.959  0.00  0.00    -0.086 S 
BRANCH  10  12
ATOM     11  C   UNK     1       7.166  -5.711  22.221  0.00  0.00    +0.099 C 
ATOM     12  C   UNK     1       6.297  -4.491  22.333  0.00  0.00    +0.186 C 
ATOM     13  O   UNK     1       5.696  -3.998  21.390  0.00  0.00    -0.286 OA
ENDBRANCH  10  12
ENDBRANCH   9  10
ENDBRANCH   1   9
TORSDOF 6
ENDMDL
MODEL 3
REMARK VINA RESULT:      -4.1      2.641      2.814
REMARK  Name = 
REMARK  7 active torsions:
REMARK  status: ('A' for Active; 'I' for Inactive)
REMARK    1  A    between atoms: C_1  and  C_2
REMARK    2  A    between atoms: C_2  and  S_4
REMARK    3  A    between atoms: S_4  and  C_5
REMARK    4  A    between atoms: C_5  and  C_6
REMARK    5  A    between atoms: C_6  and  N_8
REMARK    6  A    between atoms: C_6  and  C_9
REMARK    7  A    between atoms: C_9  and  O_10
REMARK                            x       y       z     vdW  Elec       q    Type
REMARK                         _______ _______ _______ _____ _____    ______ ____
ROOT
ATOM      1  C   UNK     1       8.010  -4.820  26.284  0.00  0.00    +0.171 C 
ENDROOT
BRANCH   1   2
ATOM      2  N   UNK     1       7.962  -5.847  27.373  0.00  0.00    -0.318 NA
ATOM      3  H   UNK     1       8.195  -6.755  26.955  0.00  0.00    +0.119 HD
ATOM      4  H   UNK     1       8.752  -5.649  28.000  0.00  0.00    +0.119 HD
ENDBRANCH   1   2
BRANCH   1   5
ATOM      5  C   UNK     1       9.017  -5.293  25.229  0.00  0.00    +0.323 C 
ATOM      6  O   UNK     1       8.772  -5.444  24.044  0.00  0.00    -0.249 OA
BRANCH   5   7
ATOM      7  O   UNK     1      10.231  -5.552  25.785  0.00  0.00    -0.480 OA
ATOM      8  H   UNK     1      10.865  -5.662  25.033  0.00  0.00    +0.295 HD
ENDBRANCH   5   7
ENDBRANCH   1   5
BRANCH   1   9
ATOM      9  C   UNK     1       6.653  -4.627  25.597  0.00  0.00    +0.107 C 
BRANCH   9  10
ATOM     10  S   UNK     1       5.475  -5.920  26.121  0.00  0.00    -0.086 S 
BRANCH  10  12
ATOM     11  C   UNK     1       5.225  -5.495  23.422  0.00  0.00    +0.099 C 
ATOM     12  C   UNK     1       4.922  -6.459  24.535  0.00  0.00    +0.186 C 
ATOM     13  O   UNK     1       4.340  -7.521  24.371  0.00  0.00    -0.286 OA
ENDBRANCH  10  12
ENDBRANCH   9  10
ENDBRANCH   1   9
TORSDOF 6
ENDMDL
MODEL 4
REMARK VINA RESULT:      -4.1      2.733      3.212
REMARK  Name = 
REMARK  7 active torsions:
REMARK  status: ('A' for Active; 'I' for Inactive)
REMARK    1  A    between atoms: C_1  and  C_2
REMARK    2  A    between atoms: C_2  and  S_4
REMARK    3  A    between atoms: S_4  and  C_5
REMARK    4  A    between atoms: C_5  and  C_6
REMARK    5  A    between atoms: C_6  and  N_8
REMARK    6  A    between atoms: C_6  and  C_9
REMARK    7  A    between atoms: C_9  and  O_10
REMARK                            x       y       z     vdW  Elec       q    Type
REMARK                         _______ _______ _______ _____ _____    ______ ____
ROOT
ATOM      1  C   UNK     1       8.870  -4.974  24.930  0.00  0.00    +0.171 C 
ENDROOT
BRANCH   1   2
ATOM      2  N   UNK     1      10.168  -5.579  25.368  0.00  0.00    -0.318 NA
ATOM      3  H   UNK     1      10.488  -6.204  24.619  0.00  0.00    +0.119 HD
ATOM      4  H   UNK     1      10.860  -4.819  25.374  0.00  0.00    +0.119 HD
ENDBRANCH   1   2
BRANCH   1   5
ATOM      5  C   UNK     1       7.797  -5.355  25.957  0.00  0.00    +0.323 C 
ATOM      6  O   UNK     1       6.596  -5.363  25.745  0.00  0.00    -0.249 OA
BRANCH   5   7
ATOM      7  O   UNK     1       8.351  -5.662  27.160  0.00  0.00    -0.480 OA
ATOM      8  H   UNK     1       7.750  -5.282  27.849  0.00  0.00    +0.295 HD
ENDBRANCH   5   7
ENDBRANCH   1   5
BRANCH   1   9
ATOM      9  C   UNK     1       8.932  -3.444  24.847  0.00  0.00    +0.107 C 
BRANCH   9  10
ATOM     10  S   UNK     1       8.203  -2.853  23.280  0.00  0.00    -0.086 S 
BRANCH  10  12
ATOM     11  C   UNK     1       9.238  -0.849  21.720  0.00  0.00    +0.099 C 
ATOM     12  C   UNK     1       9.596  -1.993  22.626  0.00  0.00    +0.186 C 
ATOM     13  O   UNK     1      10.746  -2.315  22.888  0.00  0.00    -0.286 OA
ENDBRANCH  10  12
ENDBRANCH   9  10
ENDBRANCH   1   9
TORSDOF 6
ENDMDL
MODEL 5
REMARK VINA RESULT:      -4.0      5.516      6.439
REMARK  Name = 
REMARK  7 active torsions:
REMARK  status: ('A' for Active; 'I' for Inactive)
REMARK    1  A    between atoms: C_1  and  C_2
REMARK    2  A    between atoms: C_2  and  S_4
REMARK    3  A    between atoms: S_4  and  C_5
REMARK    4  A    between atoms: C_5  and  C_6
REMARK    5  A    between atoms: C_6  and  N_8
REMARK    6  A    between atoms: C_6  and  C_9
REMARK    7  A    between atoms: C_9  and  O_10
REMARK                            x       y       z     vdW  Elec       q    Type
REMARK                         _______ _______ _______ _____ _____    ______ ____
ROOT
ATOM      1  C   UNK     1       9.098  -1.501  22.504  0.00  0.00    +0.171 C 
ENDROOT
BRANCH   1   2
ATOM      2  N   UNK     1      10.224  -1.504  21.516  0.00  0.00    -0.318 NA
ATOM      3  H   UNK     1      10.192  -2.397  21.011  0.00  0.00    +0.119 HD
ATOM      4  H   UNK     1       9.990  -0.803  20.801  0.00  0.00    +0.119 HD
ENDBRANCH   1   2
BRANCH   1   5
ATOM      5  C   UNK     1       9.616  -2.101  23.816  0.00  0.00    +0.323 C 
ATOM      6  O   UNK     1      10.209  -3.162  23.916  0.00  0.00    -0.249 OA
BRANCH   5   7
ATOM      7  O   UNK     1       9.308  -1.308  24.877  0.00  0.00    -0.480 OA
ATOM      8  H   UNK     1      10.165  -0.941  25.209  0.00  0.00    +0.295 HD
ENDBRANCH   5   7
ENDBRANCH   1   5
BRANCH   1   9
ATOM      9  C   UNK     1       8.575  -0.089  22.796  0.00  0.00    +0.107 C 
BRANCH   9  10
ATOM     10  S   UNK     1       9.687   1.171  22.082  0.00  0.00    -0.086 S 
BRANCH  10  12
ATOM     11  C   UNK     1      10.909   3.261  23.372  0.00  0.00    +0.099 C 
ATOM     12  C   UNK     1      10.256   1.923  23.573  0.00  0.00    +0.186 C 
ATOM     13  O   UNK     1      10.130   1.388  24.665  0.00  0.00    -0.286 OA
ENDBRANCH  10  12
ENDBRANCH   9  10
ENDBRANCH   1   9
TORSDOF 6
ENDMDL
MODEL 6
REMARK VINA RESULT:      -4.0      5.909      6.777
REMARK  Name = 
REMARK  7 active torsions:
REMARK  status: ('A' for Active; 'I' for Inactive)
REMARK    1  A    between atoms: C_1  and  C_2
REMARK    2  A    between atoms: C_2  and  S_4
REMARK    3  A    between atoms: S_4  and  C_5
REMARK    4  A    between atoms: C_5  and  C_6
REMARK    5  A    between atoms: C_6  and  N_8
REMARK    6  A    between atoms: C_6  and  C_9
REMARK    7  A    between atoms: C_9  and  O_10
REMARK                            x       y       z     vdW  Elec       q    Type
REMARK                         _______ _______ _______ _____ _____    ______ ____
ROOT
ATOM      1  C   UNK     1      10.058   1.252  22.413  0.00  0.00    +0.171 C 
ENDROOT
BRANCH   1   2
ATOM      2  N   UNK     1       9.247   2.068  21.454  0.00  0.00    -0.318 NA
ATOM      3  H   UNK     1       9.064   1.486  20.629  0.00  0.00    +0.119 HD
ATOM      4  H   UNK     1       8.322   2.193  21.883  0.00  0.00    +0.119 HD
ENDBRANCH   1   2
BRANCH   1   5
ATOM      5  C   UNK     1      10.448   2.152  23.592  0.00  0.00    +0.323 C 
ATOM      6  O   UNK     1      11.061   3.203  23.499  0.00  0.00    -0.249 OA
BRANCH   5   7
ATOM      7  O   UNK     1      10.045   1.619  24.775  0.00  0.00    -0.480 OA
ATOM      8  H   UNK     1       9.062   1.518  24.716  0.00  0.00    +0.295 HD
ENDBRANCH   5   7
ENDBRANCH   1   5
BRANCH   1   9
ATOM      9  C   UNK     1       9.283   0.049  22.965  0.00  0.00    +0.107 C 
BRANCH   9  10
ATOM     10  S   UNK     1      10.170  -1.507  22.610  0.00  0.00    -0.086 S 
BRANCH  10  12
ATOM     11  C   UNK     1       8.828  -1.674  24.997  0.00  0.00    +0.099 C 
ATOM     12  C   UNK     1       9.685  -2.438  24.028  0.00  0.00    +0.186 C 
ATOM     13  O   UNK     1      10.030  -3.599  24.197  0.00  0.00    -0.286 OA
ENDBRANCH  10  12
ENDBRANCH   9  10
ENDBRANCH   1   9
TORSDOF 6
ENDMDL
MODEL 7
REMARK VINA RESULT:      -4.0      3.484      4.161
REMARK  Name = 
REMARK  7 active torsions:
REMARK  status: ('A' for Active; 'I' for Inactive)
REMARK    1  A    between atoms: C_1  and  C_2
REMARK    2  A    between atoms: C_2  and  S_4
REMARK    3  A    between atoms: S_4  and  C_5
REMARK    4  A    between atoms: C_5  and  C_6
REMARK    5  A    between atoms: C_6  and  N_8
REMARK    6  A    between atoms: C_6  and  C_9
REMARK    7  A    between atoms: C_9  and  O_10
REMARK                            x       y       z     vdW  Elec       q    Type
REMARK                         _______ _______ _______ _____ _____    ______ ____
ROOT
ATOM      1  C   UNK     1       9.140  -2.106  23.448  0.00  0.00    +0.171 C 
ENDROOT
BRANCH   1   2
ATOM      2  N   UNK     1       9.944  -3.204  24.073  0.00  0.00    -0.318 NA
ATOM      3  H   UNK     1      10.848  -3.243  23.588  0.00  0.00    +0.119 HD
ATOM      4  H   UNK     1      10.183  -2.891  25.022  0.00  0.00    +0.119 HD
ENDBRANCH   1   2
BRANCH   1   5
ATOM      5  C   UNK     1      10.108  -1.155  22.735  0.00  0.00    +0.323 C 
ATOM      6  O   UNK     1      10.659  -0.197  23.252  0.00  0.00    -0.249 OA
BRANCH   5   7
ATOM      7  O   UNK     1      10.264  -1.495  21.428  0.00  0.00    -0.480 OA
ATOM      8  H   UNK     1      10.172  -0.658  20.908  0.00  0.00    +0.295 HD
ENDBRANCH   5   7
ENDBRANCH   1   5
BRANCH   1   9
ATOM      9  C   UNK     1       8.134  -2.629  22.414  0.00  0.00    +0.107 C 
BRANCH   9  10
ATOM     10  S   UNK     1       6.821  -3.601  23.228  0.00  0.00    -0.086 S 
BRANCH  10  12
ATOM     11  C   UNK     1       6.617  -5.949  21.824  0.00  0.00    +0.099 C 
ATOM     12  C   UNK     1       7.411  -5.225  22.875  0.00  0.00    +0.186 C 
ATOM     13  O   UNK     1       8.377  -5.709  23.448  0.00  0.00    -0.286 OA
ENDBRANCH  10  12
ENDBRANCH   9  10
ENDBRANCH   1   9
TORSDOF 6
ENDMDL
MODEL 8
REMARK VINA RESULT:      -3.8      5.977      6.802
REMARK  Name = 
REMARK  7 active torsions:
REMARK  status: ('A' for Active; 'I' for Inactive)
REMARK    1  A    between atoms: C_1  and  C_2
REMARK    2  A    between atoms: C_2  and  S_4
REMARK    3  A    between atoms: S_4  and  C_5
REMARK    4  A    between atoms: C_5  and  C_6
REMARK    5  A    between atoms: C_6  and  N_8
REMARK    6  A    between atoms: C_6  and  C_9
REMARK    7  A    between atoms: C_9  and  O_10
REMARK                            x       y       z     vdW  Elec       q    Type
REMARK                         _______ _______ _______ _____ _____    ______ ____
ROOT
ATOM      1  C   UNK     1       9.416   1.605  23.985  0.00  0.00    +0.171 C 
ENDROOT
BRANCH   1   2
ATOM      2  N   UNK     1      10.307   1.040  25.049  0.00  0.00    -0.318 NA
ATOM      3  H   UNK     1      10.807   1.823  25.484  0.00  0.00    +0.119 HD
ATOM      4  H   UNK     1       9.690   0.691  25.794  0.00  0.00    +0.119 HD
ENDBRANCH   1   2
BRANCH   1   5
ATOM      5  C   UNK     1      10.288   2.410  23.013  0.00  0.00    +0.323 C 
ATOM      6  O   UNK     1      11.125   3.234  23.340  0.00  0.00    -0.249 OA
BRANCH   5   7
ATOM      7  O   UNK     1       9.994   2.108  21.721  0.00  0.00    -0.480 OA
ATOM      8  H   UNK     1      10.512   1.294  21.499  0.00  0.00    +0.295 HD
ENDBRANCH   5   7
ENDBRANCH   1   5
BRANCH   1   9
ATOM      9  C   UNK     1       8.689   0.516  23.187  0.00  0.00    +0.107 C 
BRANCH   9  10
ATOM     10  S   UNK     1       8.501  -1.000  24.187  0.00  0.00    -0.086 S 
BRANCH  10  12
ATOM     11  C   UNK     1      10.256  -1.445  22.127  0.00  0.00    +0.099 C 
ATOM     12  C   UNK     1       9.740  -1.997  23.426  0.00  0.00    +0.186 C 
ATOM     13  O   UNK     1      10.128  -3.047  23.918  0.00  0.00    -0.286 OA
ENDBRANCH  10  12
ENDBRANCH   9  10
ENDBRANCH   1   9
TORSDOF 6
ENDMDL
MODEL 9
REMARK VINA RESULT:      -3.8      5.500      6.491
REMARK  Name = 
REMARK  7 active torsions:
REMARK  status: ('A' for Active; 'I' for Inactive)
REMARK    1  A    between atoms: C_1  and  C_2
REMARK    2  A    between atoms: C_2  and  S_4
REMARK    3  A    between atoms: S_4  and  C_5
REMARK    4  A    between atoms: C_5  and  C_6
REMARK    5  A    between atoms: C_6  and  N_8
REMARK    6  A    between atoms: C_6  and  C_9
REMARK    7  A    between atoms: C_9  and  O_10
REMARK                            x       y       z     vdW  Elec       q    Type
REMARK                         _______ _______ _______ _____ _____    ______ ____
ROOT
ATOM      1  C   UNK     1       9.460   1.049  23.542  0.00  0.00    +0.171 C 
ENDROOT
BRANCH   1   2
ATOM      2  N   UNK     1       9.917   2.380  24.057  0.00  0.00    -0.318 NA
ATOM      3  H   UNK     1       9.136   2.798  24.575  0.00  0.00    +0.119 HD
ATOM      4  H   UNK     1      10.623   2.189  24.779  0.00  0.00    +0.119 HD
ENDBRANCH   1   2
BRANCH   1   5
ATOM      5  C   UNK     1       9.754   0.995  22.039  0.00  0.00    +0.323 C 
ATOM      6  O   UNK     1       9.650   0.001  21.340  0.00  0.00    -0.249 OA
BRANCH   5   7
ATOM      7  O   UNK     1      10.177   2.200  21.573  0.00  0.00    -0.480 OA
ATOM      8  H   UNK     1      11.055   2.042  21.145  0.00  0.00    +0.295 HD
ENDBRANCH   5   7
ENDBRANCH   1   5
BRANCH   1   9
ATOM      9  C   UNK     1      10.186  -0.123  24.215  0.00  0.00    +0.107 C 
BRANCH   9  10
ATOM     10  S   UNK     1       8.989  -1.256  25.000  0.00  0.00    -0.086 S 
BRANCH  10  12
ATOM     11  C   UNK     1       8.174  -2.771  22.863  0.00  0.00    +0.099 C 
ATOM     12  C   UNK     1       9.201  -2.661  23.955  0.00  0.00    +0.186 C 
ATOM     13  O   UNK     1      10.104  -3.469  24.121  0.00  0.00    -0.286 OA
ENDBRANCH  10  12
ENDBRANCH   9  10
ENDBRANCH   1   9
TORSDOF 6
ENDMDL
