MODEL 1
REMARK VINA RESULT:      -7.0      0.000      0.000
REMARK  Name = 
REMARK  3 active torsions:
REMARK  status: ('A' for Active; 'I' for Inactive)
REMARK    1  A    between atoms: C_1  and  N_2
REMARK    2  A    between atoms: C_9  and  C_12
REMARK    3  A    between atoms: C_15  and  O_16
REMARK                            x       y       z     vdW  Elec       q    Type
REMARK                         _______ _______ _______ _____ _____    ______ ____
ROOT
ATOM      1  C   UNL     1       5.641  -3.229  27.224  0.00  0.00    +0.152 C 
ATOM      2  N   UNL     1       6.749  -4.031  26.774  0.00  0.00    -0.314 N 
ATOM      3  C   UNL     1       7.739  -3.580  25.932  0.00  0.00    +0.089 A 
ATOM      4  C   UNL     1       8.010  -2.357  25.313  0.00  0.00    +0.039 A 
ATOM      5  C   UNL     1       9.120  -2.305  24.453  0.00  0.00    +0.002 A 
ATOM      6  C   UNL     1       9.869  -3.487  24.332  0.00  0.00    +0.121 A 
ATOM      7  N   UNL     1       9.644  -4.674  24.950  0.00  0.00    -0.234 NA
ATOM      8  C   UNL     1       8.552  -4.689  25.742  0.00  0.00    +0.180 A 
ATOM      9  N   UNL     1       8.091  -5.768  26.439  0.00  0.00    -0.195 NA
ATOM     10  C   UNL     1       6.997  -5.357  27.035  0.00  0.00    +0.195 A 
ATOM     11  N   UNL     1       6.197  -6.123  27.790  0.00  0.00    -0.329 N 
ATOM     12  H   UNL     1       6.561  -7.041  28.032  0.00  0.00    +0.145 HD
ATOM     13  H   UNL     1       5.529  -5.757  28.453  0.00  0.00    +0.145 HD
ENDROOT
BRANCH   5  14
ATOM     14  C   UNL     1       9.464  -1.066  23.715  0.00  0.00    -0.016 A 
ATOM     15  C   UNL     1       9.251  -0.962  22.326  0.00  0.00    +0.012 A 
ATOM     16  C   UNL     1       9.544   0.211  21.625  0.00  0.00    +0.046 A 
ATOM     17  C   UNL     1      10.068   1.300  22.300  0.00  0.00    +0.117 A 
ATOM     18  C   UNL     1      10.314   1.234  23.665  0.00  0.00    +0.046 A 
ATOM     19  C   UNL     1      10.009   0.059  24.365  0.00  0.00    +0.012 A 
BRANCH  17  20
ATOM     20  O   UNL     1      10.326   2.430  21.582  0.00  0.00    -0.507 OA
ATOM     21  H   UNL     1      10.668   3.110  22.184  0.00  0.00    +0.292 HD
ENDBRANCH  17  20
ENDBRANCH   5  14
TORSDOF 2
ENDMDL
MODEL 2
REMARK VINA RESULT:      -7.0      2.407      3.138
REMARK  Name = 
REMARK  3 active torsions:
REMARK  status: ('A' for Active; 'I' for Inactive)
REMARK    1  A    between atoms: C_1  and  N_2
REMARK    2  A    between atoms: C_9  and  C_12
REMARK    3  A    between atoms: C_15  and  O_16
REMARK                            x       y       z     vdW  Elec       q    Type
REMARK                         _______ _______ _______ _____ _____    ______ ____
ROOT
ATOM      1  C   UNL     1       5.710  -3.769  21.144  0.00  0.00    +0.152 C 
ATOM      2  N   UNL     1       6.647  -4.217  22.141  0.00  0.00    -0.314 N 
ATOM      3  C   UNL     1       7.610  -3.418  22.713  0.00  0.00    +0.089 A 
ATOM      4  C   UNL     1       7.967  -2.074  22.578  0.00  0.00    +0.039 A 
ATOM      5  C   UNL     1       9.078  -1.628  23.315  0.00  0.00    +0.002 A 
ATOM      6  C   UNL     1       9.696  -2.578  24.143  0.00  0.00    +0.121 A 
ATOM      7  N   UNL     1       9.345  -3.878  24.316  0.00  0.00    -0.234 NA
ATOM      8  C   UNL     1       8.292  -4.271  23.568  0.00  0.00    +0.180 A 
ATOM      9  N   UNL     1       7.773  -5.533  23.531  0.00  0.00    -0.195 NA
ATOM     10  C   UNL     1       6.799  -5.483  22.654  0.00  0.00    +0.195 A 
ATOM     11  N   UNL     1       6.049  -6.527  22.275  0.00  0.00    -0.329 N 
ATOM     12  H   UNL     1       6.154  -7.373  22.829  0.00  0.00    +0.145 HD
ATOM     13  H   UNL     1       5.150  -6.441  21.823  0.00  0.00    +0.145 HD
ENDROOT
BRANCH   5  14
ATOM     14  C   UNL     1       9.563  -0.232  23.205  0.00  0.00    -0.016 A 
ATOM     15  C   UNL     1      10.120   0.436  24.313  0.00  0.00    +0.012 A 
ATOM     16  C   UNL     1      10.608   1.742  24.214  0.00  0.00    +0.046 A 
ATOM     17  C   UNL     1      10.536   2.411  23.004  0.00  0.00    +0.117 A 
ATOM     18  C   UNL     1       9.975   1.798  21.891  0.00  0.00    +0.046 A 
ATOM     19  C   UNL     1       9.497   0.484  21.993  0.00  0.00    +0.012 A 
BRANCH  17  20
ATOM     20  O   UNL     1      11.035   3.677  22.946  0.00  0.00    -0.507 OA
ATOM     21  H   UNL     1      10.607   4.212  23.634  0.00  0.00    +0.292 HD
ENDBRANCH  17  20
ENDBRANCH   5  14
TORSDOF 2
ENDMDL
MODEL 3
REMARK VINA RESULT:      -6.7      2.309      2.780
REMARK  Name = 
REMARK  3 active torsions:
REMARK  status: ('A' for Active; 'I' for Inactive)
REMARK    1  A    between atoms: C_1  and  N_2
REMARK    2  A    between atoms: C_9  and  C_12
REMARK    3  A    between atoms: C_15  and  O_16
REMARK                            x       y       z     vdW  Elec       q    Type
REMARK                         _______ _______ _______ _____ _____    ______ ____
ROOT
ATOM      1  C   UNL     1       7.363  -5.028  26.776  0.00  0.00    +0.152 C 
ATOM      2  N   UNL     1       6.451  -5.096  25.664  0.00  0.00    -0.314 N 
ATOM      3  C   UNL     1       6.471  -4.232  24.593  0.00  0.00    +0.089 A 
ATOM      4  C   UNL     1       7.274  -3.148  24.230  0.00  0.00    +0.039 A 
ATOM      5  C   UNL     1       6.933  -2.462  23.052  0.00  0.00    +0.002 A 
ATOM      6  C   UNL     1       5.832  -2.963  22.338  0.00  0.00    +0.121 A 
ATOM      7  N   UNL     1       5.061  -4.035  22.654  0.00  0.00    -0.234 NA
ATOM      8  C   UNL     1       5.405  -4.645  23.807  0.00  0.00    +0.180 A 
ATOM      9  N   UNL     1       4.764  -5.715  24.361  0.00  0.00    -0.195 NA
ATOM     10  C   UNL     1       5.395  -5.957  25.485  0.00  0.00    +0.195 A 
ATOM     11  N   UNL     1       5.057  -6.904  26.370  0.00  0.00    -0.329 N 
ATOM     12  H   UNL     1       4.355  -7.572  26.059  0.00  0.00    +0.145 HD
ATOM     13  H   UNL     1       5.682  -7.264  27.077  0.00  0.00    +0.145 HD
ENDROOT
BRANCH   5  14
ATOM     14  C   UNL     1       7.695  -1.272  22.606  0.00  0.00    -0.016 A 
ATOM     15  C   UNL     1       7.211   0.031  22.833  0.00  0.00    +0.012 A 
ATOM     16  C   UNL     1       7.936   1.161  22.444  0.00  0.00    +0.046 A 
ATOM     17  C   UNL     1       9.156   1.007  21.806  0.00  0.00    +0.117 A 
ATOM     18  C   UNL     1       9.660  -0.260  21.543  0.00  0.00    +0.046 A 
ATOM     19  C   UNL     1       8.934  -1.389  21.945  0.00  0.00    +0.012 A 
BRANCH  17  20
ATOM     20  O   UNL     1       9.837   2.134  21.455  0.00  0.00    -0.507 OA
ATOM     21  H   UNL     1      10.597   2.237  22.051  0.00  0.00    +0.292 HD
ENDBRANCH  17  20
ENDBRANCH   5  14
TORSDOF 2
ENDMDL
MODEL 4
REMARK VINA RESULT:      -6.5      4.127      6.654
REMARK  Name = 
REMARK  3 active torsions:
REMARK  status: ('A' for Active; 'I' for Inactive)
REMARK    1  A    between atoms: C_1  and  N_2
REMARK    2  A    between atoms: C_9  and  C_12
REMARK    3  A    between atoms: C_15  and  O_16
REMARK                            x       y       z     vdW  Elec       q    Type
REMARK                         _______ _______ _______ _____ _____    ______ ____
ROOT
ATOM      1  C   UNL     1       6.759   1.186  22.701  0.00  0.00    +0.152 C 
ATOM      2  N   UNL     1       8.032   0.518  22.613  0.00  0.00    -0.314 N 
ATOM      3  C   UNL     1       8.293  -0.723  23.147  0.00  0.00    +0.089 A 
ATOM      4  C   UNL     1       7.531  -1.663  23.845  0.00  0.00    +0.039 A 
ATOM      5  C   UNL     1       8.190  -2.823  24.286  0.00  0.00    +0.002 A 
ATOM      6  C   UNL     1       9.548  -2.934  23.945  0.00  0.00    +0.121 A 
ATOM      7  N   UNL     1      10.298  -2.049  23.239  0.00  0.00    -0.234 NA
ATOM      8  C   UNL     1       9.633  -0.937  22.861  0.00  0.00    +0.180 A 
ATOM      9  N   UNL     1      10.171   0.116  22.179  0.00  0.00    -0.195 NA
ATOM     10  C   UNL     1       9.198   0.987  22.058  0.00  0.00    +0.195 A 
ATOM     11  N   UNL     1       9.312   2.194  21.488  0.00  0.00    -0.329 N 
ATOM     12  H   UNL     1      10.178   2.367  20.984  0.00  0.00    +0.145 HD
ATOM     13  H   UNL     1       8.527   2.737  21.157  0.00  0.00    +0.145 HD
ENDROOT
BRANCH   5  14
ATOM     14  C   UNL     1       7.481  -3.859  25.073  0.00  0.00    -0.016 A 
ATOM     15  C   UNL     1       6.419  -4.599  24.515  0.00  0.00    +0.012 A 
ATOM     16  C   UNL     1       5.762  -5.598  25.238  0.00  0.00    +0.046 A 
ATOM     17  C   UNL     1       6.147  -5.868  26.540  0.00  0.00    +0.117 A 
ATOM     18  C   UNL     1       7.174  -5.148  27.136  0.00  0.00    +0.046 A 
ATOM     19  C   UNL     1       7.836  -4.155  26.404  0.00  0.00    +0.012 A 
BRANCH  17  20
ATOM     20  O   UNL     1       5.490  -6.860  27.206  0.00  0.00    -0.507 OA
ATOM     21  H   UNL     1       4.980  -7.380  26.564  0.00  0.00    +0.292 HD
ENDBRANCH  17  20
ENDBRANCH   5  14
TORSDOF 2
ENDMDL
MODEL 5
REMARK VINA RESULT:      -6.5      1.616      1.876
REMARK  Name = 
REMARK  3 active torsions:
REMARK  status: ('A' for Active; 'I' for Inactive)
REMARK    1  A    between atoms: C_1  and  N_2
REMARK    2  A    between atoms: C_9  and  C_12
REMARK    3  A    between atoms: C_15  and  O_16
REMARK                            x       y       z     vdW  Elec       q    Type
REMARK                         _______ _______ _______ _____ _____    ______ ____
ROOT
ATOM      1  C   UNL     1       6.404  -3.452  27.115  0.00  0.00    +0.152 C 
ATOM      2  N   UNL     1       7.589  -3.790  26.369  0.00  0.00    -0.314 N 
ATOM      3  C   UNL     1       8.184  -2.962  25.445  0.00  0.00    +0.089 A 
ATOM      4  C   UNL     1       7.916  -1.674  24.976  0.00  0.00    +0.039 A 
ATOM      5  C   UNL     1       8.745  -1.177  23.955  0.00  0.00    +0.002 A 
ATOM      6  C   UNL     1       9.787  -2.020  23.535  0.00  0.00    +0.121 A 
ATOM      7  N   UNL     1      10.086  -3.260  24.002  0.00  0.00    -0.234 NA
ATOM      8  C   UNL     1       9.247  -3.709  24.958  0.00  0.00    +0.180 A 
ATOM      9  N   UNL     1       9.310  -4.934  25.557  0.00  0.00    -0.195 NA
ATOM     10  C   UNL     1       8.294  -4.970  26.385  0.00  0.00    +0.195 A 
ATOM     11  N   UNL     1       7.956  -6.021  27.145  0.00  0.00    -0.329 N 
ATOM     12  H   UNL     1       8.634  -6.777  27.183  0.00  0.00    +0.145 HD
ATOM     13  H   UNL     1       7.361  -5.959  27.960  0.00  0.00    +0.145 HD
ENDROOT
BRANCH   5  14
ATOM     14  C   UNL     1       8.515   0.160  23.360  0.00  0.00    -0.016 A 
ATOM     15  C   UNL     1       7.211   0.661  23.174  0.00  0.00    +0.012 A 
ATOM     16  C   UNL     1       6.983   1.933  22.641  0.00  0.00    +0.046 A 
ATOM     17  C   UNL     1       8.057   2.724  22.270  0.00  0.00    +0.117 A 
ATOM     18  C   UNL     1       9.358   2.261  22.416  0.00  0.00    +0.046 A 
ATOM     19  C   UNL     1       9.582   0.990  22.961  0.00  0.00    +0.012 A 
BRANCH  17  20
ATOM     20  O   UNL     1       7.791   3.963  21.767  0.00  0.00    -0.507 OA
ATOM     21  H   UNL     1       7.696   3.893  20.804  0.00  0.00    +0.292 HD
ENDBRANCH  17  20
ENDBRANCH   5  14
TORSDOF 2
ENDMDL
MODEL 6
REMARK VINA RESULT:      -6.4      1.765      1.909
REMARK  Name = 
REMARK  3 active torsions:
REMARK  status: ('A' for Active; 'I' for Inactive)
REMARK    1  A    between atoms: C_1  and  N_2
REMARK    2  A    between atoms: C_9  and  C_12
REMARK    3  A    between atoms: C_15  and  O_16
REMARK                            x       y       z     vdW  Elec       q    Type
REMARK                         _______ _______ _______ _____ _____    ______ ____
ROOT
ATOM      1  C   UNL     1       6.780  -3.830  27.038  0.00  0.00    +0.152 C 
ATOM      2  N   UNL     1       6.799  -4.176  25.640  0.00  0.00    -0.314 N 
ATOM      3  C   UNL     1       7.359  -3.394  24.656  0.00  0.00    +0.089 A 
ATOM      4  C   UNL     1       8.034  -2.171  24.651  0.00  0.00    +0.039 A 
ATOM      5  C   UNL     1       8.414  -1.653  23.400  0.00  0.00    +0.002 A 
ATOM      6  C   UNL     1       8.104  -2.442  22.281  0.00  0.00    +0.121 A 
ATOM      7  N   UNL     1       7.481  -3.648  22.267  0.00  0.00    -0.234 NA
ATOM      8  C   UNL     1       7.107  -4.093  23.485  0.00  0.00    +0.180 A 
ATOM      9  N   UNL     1       6.432  -5.253  23.734  0.00  0.00    -0.195 NA
ATOM     10  C   UNL     1       6.240  -5.274  25.031  0.00  0.00    +0.195 A 
ATOM     11  N   UNL     1       5.568  -6.224  25.695  0.00  0.00    -0.329 N 
ATOM     12  H   UNL     1       5.331  -7.056  25.160  0.00  0.00    +0.145 HD
ATOM     13  H   UNL     1       5.651  -6.383  26.689  0.00  0.00    +0.145 HD
ENDROOT
BRANCH   5  14
ATOM     14  C   UNL     1       9.095  -0.342  23.286  0.00  0.00    -0.016 A 
ATOM     15  C   UNL     1       9.258   0.288  22.036  0.00  0.00    +0.012 A 
ATOM     16  C   UNL     1       9.872   1.538  21.920  0.00  0.00    +0.046 A 
ATOM     17  C   UNL     1      10.347   2.177  23.052  0.00  0.00    +0.117 A 
ATOM     18  C   UNL     1      10.226   1.583  24.301  0.00  0.00    +0.046 A 
ATOM     19  C   UNL     1       9.600   0.334  24.414  0.00  0.00    +0.012 A 
BRANCH  17  20
ATOM     20  O   UNL     1      10.927   3.401  22.897  0.00  0.00    -0.507 OA
ATOM     21  H   UNL     1      10.232   4.053  22.709  0.00  0.00    +0.292 HD
ENDBRANCH  17  20
ENDBRANCH   5  14
TORSDOF 2
ENDMDL
MODEL 7
REMARK VINA RESULT:      -6.2      4.549      6.705
REMARK  Name = 
REMARK  3 active torsions:
REMARK  status: ('A' for Active; 'I' for Inactive)
REMARK    1  A    between atoms: C_1  and  N_2
REMARK    2  A    between atoms: C_9  and  C_12
REMARK    3  A    between atoms: C_15  and  O_16
REMARK                            x       y       z     vdW  Elec       q    Type
REMARK                         _______ _______ _______ _____ _____    ______ ____
ROOT
ATOM      1  C   UNL     1       7.631   2.253  21.867  0.00  0.00    +0.152 C 
ATOM      2  N   UNL     1       8.687   1.546  22.544  0.00  0.00    -0.314 N 
ATOM      3  C   UNL     1       8.654   0.203  22.841  0.00  0.00    +0.089 A 
ATOM      4  C   UNL     1       7.735  -0.823  22.610  0.00  0.00    +0.039 A 
ATOM      5  C   UNL     1       8.043  -2.091  23.133  0.00  0.00    +0.002 A 
ATOM      6  C   UNL     1       9.270  -2.203  23.807  0.00  0.00    +0.121 A 
ATOM      7  N   UNL     1      10.193  -1.228  24.012  0.00  0.00    -0.234 NA
ATOM      8  C   UNL     1       9.843  -0.021  23.520  0.00  0.00    +0.180 A 
ATOM      9  N   UNL     1      10.577   1.124  23.631  0.00  0.00    -0.195 NA
ATOM     10  C   UNL     1       9.856   2.057  23.056  0.00  0.00    +0.195 A 
ATOM     11  N   UNL     1      10.189   3.353  22.985  0.00  0.00    -0.329 N 
ATOM     12  H   UNL     1      11.139   3.583  23.265  0.00  0.00    +0.145 HD
ATOM     13  H   UNL     1       9.785   4.003  22.326  0.00  0.00    +0.145 HD
ENDROOT
BRANCH   5  14
ATOM     14  C   UNL     1       7.112  -3.233  22.980  0.00  0.00    -0.016 A 
ATOM     15  C   UNL     1       5.724  -3.070  23.156  0.00  0.00    +0.012 A 
ATOM     16  C   UNL     1       4.833  -4.134  22.985  0.00  0.00    +0.046 A 
ATOM     17  C   UNL     1       5.317  -5.387  22.649  0.00  0.00    +0.117 A 
ATOM     18  C   UNL     1       6.680  -5.596  22.487  0.00  0.00    +0.046 A 
ATOM     19  C   UNL     1       7.568  -4.524  22.648  0.00  0.00    +0.012 A 
BRANCH  17  20
ATOM     20  O   UNL     1       4.414  -6.393  22.478  0.00  0.00    -0.507 OA
ATOM     21  H   UNL     1       3.597  -6.162  22.949  0.00  0.00    +0.292 HD
ENDBRANCH  17  20
ENDBRANCH   5  14
TORSDOF 2
ENDMDL
MODEL 8
REMARK VINA RESULT:      -6.2      1.065      2.417
REMARK  Name = 
REMARK  3 active torsions:
REMARK  status: ('A' for Active; 'I' for Inactive)
REMARK    1  A    between atoms: C_1  and  N_2
REMARK    2  A    between atoms: C_9  and  C_12
REMARK    3  A    between atoms: C_15  and  O_16
REMARK                            x       y       z     vdW  Elec       q    Type
REMARK                         _______ _______ _______ _____ _____    ______ ____
ROOT
ATOM      1  C   UNL     1       9.393  -5.592  25.566  0.00  0.00    +0.152 C 
ATOM      2  N   UNL     1       8.378  -4.759  26.159  0.00  0.00    -0.314 N 
ATOM      3  C   UNL     1       8.178  -3.436  25.837  0.00  0.00    +0.089 A 
ATOM      4  C   UNL     1       8.777  -2.551  24.938  0.00  0.00    +0.039 A 
ATOM      5  C   UNL     1       8.317  -1.223  24.942  0.00  0.00    +0.002 A 
ATOM      6  C   UNL     1       7.271  -0.930  25.832  0.00  0.00    +0.121 A 
ATOM      7  N   UNL     1       6.652  -1.783  26.689  0.00  0.00    -0.234 NA
ATOM      8  C   UNL     1       7.145  -3.039  26.674  0.00  0.00    +0.180 A 
ATOM      9  N   UNL     1       6.723  -4.066  27.466  0.00  0.00    -0.195 NA
ATOM     10  C   UNL     1       7.490  -5.084  27.156  0.00  0.00    +0.195 A 
ATOM     11  N   UNL     1       7.444  -6.290  27.738  0.00  0.00    -0.329 N 
ATOM     12  H   UNL     1       6.651  -6.455  28.354  0.00  0.00    +0.145 HD
ATOM     13  H   UNL     1       7.828  -7.129  27.328  0.00  0.00    +0.145 HD
ENDROOT
BRANCH   5  14
ATOM     14  C   UNL     1       8.918  -0.198  24.057  0.00  0.00    -0.016 A 
ATOM     15  C   UNL     1       9.555   0.941  24.588  0.00  0.00    +0.012 A 
ATOM     16  C   UNL     1      10.151   1.900  23.763  0.00  0.00    +0.046 A 
ATOM     17  C   UNL     1      10.111   1.743  22.388  0.00  0.00    +0.117 A 
ATOM     18  C   UNL     1       9.475   0.646  21.822  0.00  0.00    +0.046 A 
ATOM     19  C   UNL     1       8.888  -0.318  22.653  0.00  0.00    +0.012 A 
BRANCH  17  20
ATOM     20  O   UNL     1      10.716   2.692  21.621  0.00  0.00    -0.507 OA
ATOM     21  H   UNL     1      10.066   3.380  21.407  0.00  0.00    +0.292 HD
ENDBRANCH  17  20
ENDBRANCH   5  14
TORSDOF 2
ENDMDL
MODEL 9
REMARK VINA RESULT:      -6.2      4.258      6.716
REMARK  Name = 
REMARK  3 active torsions:
REMARK  status: ('A' for Active; 'I' for Inactive)
REMARK    1  A    between atoms: C_1  and  N_2
REMARK    2  A    between atoms: C_9  and  C_12
REMARK    3  A    between atoms: C_15  and  O_16
REMARK                            x       y       z     vdW  Elec       q    Type
REMARK                         _______ _______ _______ _____ _____    ______ ____
ROOT
ATOM      1  C   UNL     1       8.901  -0.770  27.018  0.00  0.00    +0.152 C 
ATOM      2  N   UNL     1       9.025  -0.971  25.597  0.00  0.00    -0.314 N 
ATOM      3  C   UNL     1       8.374  -1.960  24.896  0.00  0.00    +0.089 A 
ATOM      4  C   UNL     1       7.471  -2.967  25.243  0.00  0.00    +0.039 A 
ATOM      5  C   UNL     1       7.063  -3.843  24.222  0.00  0.00    +0.002 A 
ATOM      6  C   UNL     1       7.583  -3.591  22.942  0.00  0.00    +0.121 A 
ATOM      7  N   UNL     1       8.434  -2.599  22.577  0.00  0.00    -0.234 NA
ATOM      8  C   UNL     1       8.823  -1.800  23.593  0.00  0.00    +0.180 A 
ATOM      9  N   UNL     1       9.701  -0.760  23.493  0.00  0.00    -0.195 NA
ATOM     10  C   UNL     1       9.824  -0.289  24.711  0.00  0.00    +0.195 A 
ATOM     11  N   UNL     1      10.635   0.715  25.070  0.00  0.00    -0.329 N 
ATOM     12  H   UNL     1      11.061   1.236  24.308  0.00  0.00    +0.145 HD
ATOM     13  H   UNL     1      10.532   1.245  25.924  0.00  0.00    +0.145 HD
ENDROOT
BRANCH   5  14
ATOM     14  C   UNL     1       6.141  -4.971  24.499  0.00  0.00    -0.016 A 
ATOM     15  C   UNL     1       5.903  -5.411  25.815  0.00  0.00    +0.012 A 
ATOM     16  C   UNL     1       5.014  -6.454  26.091  0.00  0.00    +0.046 A 
ATOM     17  C   UNL     1       4.355  -7.086  25.050  0.00  0.00    +0.117 A 
ATOM     18  C   UNL     1       4.577  -6.698  23.735  0.00  0.00    +0.046 A 
ATOM     19  C   UNL     1       5.461  -5.645  23.466  0.00  0.00    +0.012 A 
BRANCH  17  20
ATOM     20  O   UNL     1       3.486  -8.088  25.362  0.00  0.00    -0.507 OA
ATOM     21  H   UNL     1       3.222  -7.993  26.291  0.00  0.00    +0.292 HD
ENDBRANCH  17  20
ENDBRANCH   5  14
TORSDOF 2
ENDMDL
