MODEL 1
REMARK VINA RESULT:      -7.8      0.000      0.000
REMARK  Name = 
REMARK  2 active torsions:
REMARK  status: ('A' for Active; 'I' for Inactive)
REMARK    1  A    between atoms: C_2  and  C_4
REMARK    2  A    between atoms: C_5  and  N_6
REMARK                            x       y       z     vdW  Elec       q    Type
REMARK                         _______ _______ _______ _____ _____    ______ ____
ROOT
ATOM      1  C   UNL     1       7.765  -4.624  25.744  0.00  0.00    +0.077 A 
ATOM      2  C   UNL     1       7.081  -3.481  25.336  0.00  0.00    +0.033 A 
ATOM      3  C   UNL     1       7.702  -2.610  24.449  0.00  0.00    +0.085 A 
ATOM      4  C   UNL     1       8.967  -2.906  23.974  0.00  0.00    +0.233 A 
ATOM      5  O   UNL     1       9.657  -2.077  23.115  0.00  0.00    -0.437 OA
ATOM      6  C   UNL     1       9.073  -0.891  22.738  0.00  0.00    +0.141 A 
ATOM      7  C   UNL     1       9.818  -0.052  21.906  0.00  0.00    +0.050 A 
ATOM      8  C   UNL     1       9.278   1.167  21.485  0.00  0.00    +0.042 A 
ATOM      9  C   UNL     1       8.000   1.539  21.895  0.00  0.00    +0.124 A 
ATOM     10  F   UNL     1       7.490   2.708  21.487  0.00  0.00    -0.205 F 
ATOM     11  C   UNL     1       7.249   0.718  22.720  0.00  0.00    +0.053 A 
ATOM     12  C   UNL     1       7.796  -0.496  23.138  0.00  0.00    +0.067 A 
ATOM     13  N   UNL     1       9.632  -4.033  24.331  0.00  0.00    -0.197 NA
ATOM     14  C   UNL     1       7.041  -1.379  24.025  0.00  0.00    +0.202 A 
ATOM     15  O   UNL     1       5.917  -1.097  24.418  0.00  0.00    -0.286 OA
ATOM     16  C   UNL     1       9.031  -4.882  25.200  0.00  0.00    +0.132 A 
ENDROOT
BRANCH   1  20
ATOM     17  N   UNL     1       6.018  -6.236  26.243  0.00  0.00    -0.325 N 
ATOM     18  H   UNL     1       5.532  -6.004  25.387  0.00  0.00    +0.145 HD
ATOM     19  H   UNL     1       5.540  -6.833  26.905  0.00  0.00    +0.145 HD
ATOM     20  C   UNL     1       7.126  -5.565  26.692  0.00  0.00    +0.245 C 
ATOM     21  O   UNL     1       7.568  -5.744  27.819  0.00  0.00    -0.270 OA
ENDBRANCH   1  20
BRANCH  16  22
ATOM     22  N   UNL     1       9.812  -5.958  25.610  0.00  0.00    -0.342 N 
ATOM     23  H   UNL     1       9.225  -6.753  25.832  0.00  0.00    +0.144 HD
ATOM     24  H   UNL     1      10.467  -5.699  26.349  0.00  0.00    +0.144 HD
ENDBRANCH  16  22
TORSDOF 2
ENDMDL
MODEL 2
REMARK VINA RESULT:      -7.6      2.135      2.304
REMARK  Name = 
REMARK  2 active torsions:
REMARK  status: ('A' for Active; 'I' for Inactive)
REMARK    1  A    between atoms: C_2  and  C_4
REMARK    2  A    between atoms: C_5  and  N_6
REMARK                            x       y       z     vdW  Elec       q    Type
REMARK                         _______ _______ _______ _____ _____    ______ ____
ROOT
ATOM      1  C   UNL     1       7.679  -4.338  25.058  0.00  0.00    +0.077 A 
ATOM      2  C   UNL     1       8.186  -3.131  25.537  0.00  0.00    +0.033 A 
ATOM      3  C   UNL     1       8.501  -2.130  24.626  0.00  0.00    +0.085 A 
ATOM      4  C   UNL     1       8.285  -2.341  23.277  0.00  0.00    +0.233 A 
ATOM      5  O   UNL     1       8.599  -1.406  22.313  0.00  0.00    -0.437 OA
ATOM      6  C   UNL     1       9.179  -0.225  22.710  0.00  0.00    +0.141 A 
ATOM      7  C   UNL     1       9.530   0.680  21.705  0.00  0.00    +0.050 A 
ATOM      8  C   UNL     1      10.121   1.901  22.045  0.00  0.00    +0.042 A 
ATOM      9  C   UNL     1      10.357   2.210  23.382  0.00  0.00    +0.124 A 
ATOM     10  F   UNL     1      10.922   3.381  23.699  0.00  0.00    -0.205 F 
ATOM     11  C   UNL     1      10.015   1.323  24.390  0.00  0.00    +0.053 A 
ATOM     12  C   UNL     1       9.427   0.106  24.042  0.00  0.00    +0.067 A 
ATOM     13  N   UNL     1       7.758  -3.495  22.797  0.00  0.00    -0.197 NA
ATOM     14  C   UNL     1       9.072  -0.864  25.077  0.00  0.00    +0.202 A 
ATOM     15  O   UNL     1       9.262  -0.643  26.265  0.00  0.00    -0.286 OA
ATOM     16  C   UNL     1       7.454  -4.476  23.682  0.00  0.00    +0.132 A 
ENDROOT
BRANCH   1  20
ATOM     17  N   UNL     1       8.267  -5.706  26.976  0.00  0.00    -0.325 N 
ATOM     18  H   UNL     1       9.210  -5.342  26.972  0.00  0.00    +0.145 HD
ATOM     19  H   UNL     1       8.070  -6.487  27.590  0.00  0.00    +0.145 HD
ATOM     20  C   UNL     1       7.340  -5.422  26.008  0.00  0.00    +0.245 C 
ATOM     21  O   UNL     1       6.280  -6.030  25.940  0.00  0.00    -0.270 OA
ENDBRANCH   1  20
BRANCH  16  22
ATOM     22  N   UNL     1       7.024  -5.671  23.114  0.00  0.00    -0.342 N 
ATOM     23  H   UNL     1       7.622  -6.435  23.407  0.00  0.00    +0.144 HD
ATOM     24  H   UNL     1       6.904  -5.595  22.103  0.00  0.00    +0.144 HD
ENDBRANCH  16  22
TORSDOF 2
ENDMDL
MODEL 3
REMARK VINA RESULT:      -7.0      4.077      6.636
REMARK  Name = 
REMARK  2 active torsions:
REMARK  status: ('A' for Active; 'I' for Inactive)
REMARK    1  A    between atoms: C_2  and  C_4
REMARK    2  A    between atoms: C_5  and  N_6
REMARK                            x       y       z     vdW  Elec       q    Type
REMARK                         _______ _______ _______ _____ _____    ______ ____
ROOT
ATOM      1  C   UNL     1       9.524   1.871  23.854  0.00  0.00    +0.077 A 
ATOM      2  C   UNL     1       9.303   1.075  24.977  0.00  0.00    +0.033 A 
ATOM      3  C   UNL     1       9.121  -0.291  24.802  0.00  0.00    +0.085 A 
ATOM      4  C   UNL     1       9.185  -0.832  23.531  0.00  0.00    +0.233 A 
ATOM      5  O   UNL     1       8.986  -2.173  23.278  0.00  0.00    -0.437 OA
ATOM      6  C   UNL     1       8.682  -3.002  24.332  0.00  0.00    +0.141 A 
ATOM      7  C   UNL     1       8.438  -4.345  24.035  0.00  0.00    +0.050 A 
ATOM      8  C   UNL     1       8.127  -5.239  25.064  0.00  0.00    +0.042 A 
ATOM      9  C   UNL     1       8.062  -4.788  26.380  0.00  0.00    +0.124 A 
ATOM     10  F   UNL     1       7.764  -5.650  27.360  0.00  0.00    -0.205 F 
ATOM     11  C   UNL     1       8.300  -3.459  26.691  0.00  0.00    +0.053 A 
ATOM     12  C   UNL     1       8.609  -2.573  25.657  0.00  0.00    +0.067 A 
ATOM     13  N   UNL     1       9.436  -0.079  22.433  0.00  0.00    -0.197 NA
ATOM     14  C   UNL     1       8.846  -1.159  25.945  0.00  0.00    +0.202 A 
ATOM     15  O   UNL     1       8.797  -0.711  27.082  0.00  0.00    -0.286 OA
ATOM     16  C   UNL     1       9.609   1.255  22.598  0.00  0.00    +0.132 A 
ENDROOT
BRANCH   1  20
ATOM     17  N   UNL     1       8.784   3.998  24.763  0.00  0.00    -0.325 N 
ATOM     18  H   UNL     1       7.909   3.588  25.062  0.00  0.00    +0.145 HD
ATOM     19  H   UNL     1       8.874   5.004  24.825  0.00  0.00    +0.145 HD
ATOM     20  C   UNL     1       9.717   3.330  24.013  0.00  0.00    +0.245 C 
ATOM     21  O   UNL     1      10.667   3.913  23.508  0.00  0.00    -0.270 OA
ENDBRANCH   1  20
BRANCH  16  22
ATOM     22  N   UNL     1       9.751   1.983  21.420  0.00  0.00    -0.342 N 
ATOM     23  H   UNL     1       9.146   1.606  20.700  0.00  0.00    +0.144 HD
ATOM     24  H   UNL     1      10.728   2.077  21.142  0.00  0.00    +0.144 HD
ENDBRANCH  16  22
TORSDOF 2
ENDMDL
MODEL 4
REMARK VINA RESULT:      -6.9      2.996      3.963
REMARK  Name = 
REMARK  2 active torsions:
REMARK  status: ('A' for Active; 'I' for Inactive)
REMARK    1  A    between atoms: C_2  and  C_4
REMARK    2  A    between atoms: C_5  and  N_6
REMARK                            x       y       z     vdW  Elec       q    Type
REMARK                         _______ _______ _______ _____ _____    ______ ____
ROOT
ATOM      1  C   UNL     1       4.330  -6.467  24.849  0.00  0.00    +0.077 A 
ATOM      2  C   UNL     1       4.707  -5.655  23.781  0.00  0.00    +0.033 A 
ATOM      3  C   UNL     1       5.904  -4.956  23.862  0.00  0.00    +0.085 A 
ATOM      4  C   UNL     1       6.704  -5.097  24.981  0.00  0.00    +0.233 A 
ATOM      5  O   UNL     1       7.891  -4.415  25.144  0.00  0.00    -0.437 OA
ATOM      6  C   UNL     1       8.281  -3.534  24.164  0.00  0.00    +0.141 A 
ATOM      7  C   UNL     1       9.463  -2.822  24.382  0.00  0.00    +0.050 A 
ATOM      8  C   UNL     1       9.914  -1.913  23.421  0.00  0.00    +0.042 A 
ATOM      9  C   UNL     1       9.185  -1.721  22.250  0.00  0.00    +0.124 A 
ATOM     10  F   UNL     1       9.625  -0.848  21.334  0.00  0.00    -0.205 F 
ATOM     11  C   UNL     1       8.011  -2.418  22.019  0.00  0.00    +0.053 A 
ATOM     12  C   UNL     1       7.566  -3.323  22.985  0.00  0.00    +0.067 A 
ATOM     13  N   UNL     1       6.372  -5.912  26.013  0.00  0.00    -0.197 NA
ATOM     14  C   UNL     1       6.321  -4.062  22.785  0.00  0.00    +0.202 A 
ATOM     15  O   UNL     1       5.641  -3.926  21.776  0.00  0.00    -0.286 OA
ATOM     16  C   UNL     1       5.202  -6.591  25.940  0.00  0.00    +0.132 A 
ENDROOT
BRANCH   1  20
ATOM     17  N   UNL     1       1.910  -6.480  24.657  0.00  0.00    -0.325 N 
ATOM     18  H   UNL     1       1.876  -5.475  24.765  0.00  0.00    +0.145 HD
ATOM     19  H   UNL     1       1.031  -6.982  24.678  0.00  0.00    +0.145 HD
ATOM     20  C   UNL     1       3.056  -7.219  24.789  0.00  0.00    +0.245 C 
ATOM     21  O   UNL     1       3.026  -8.441  24.845  0.00  0.00    -0.270 OA
ENDBRANCH   1  20
BRANCH  16  22
ATOM     22  N   UNL     1       4.869  -7.319  27.079  0.00  0.00    -0.342 N 
ATOM     23  H   UNL     1       3.947  -7.058  27.406  0.00  0.00    +0.144 HD
ATOM     24  H   UNL     1       5.598  -7.271  27.792  0.00  0.00    +0.144 HD
ENDBRANCH  16  22
TORSDOF 2
ENDMDL
MODEL 5
REMARK VINA RESULT:      -6.9      2.356      2.598
REMARK  Name = 
REMARK  2 active torsions:
REMARK  status: ('A' for Active; 'I' for Inactive)
REMARK    1  A    between atoms: C_2  and  C_4
REMARK    2  A    between atoms: C_5  and  N_6
REMARK                            x       y       z     vdW  Elec       q    Type
REMARK                         _______ _______ _______ _____ _____    ______ ____
ROOT
ATOM      1  C   UNL     1       6.123  -5.164  24.321  0.00  0.00    +0.077 A 
ATOM      2  C   UNL     1       6.646  -4.027  24.935  0.00  0.00    +0.033 A 
ATOM      3  C   UNL     1       7.307  -3.089  24.153  0.00  0.00    +0.085 A 
ATOM      4  C   UNL     1       7.411  -3.288  22.788  0.00  0.00    +0.233 A 
ATOM      5  O   UNL     1       8.076  -2.415  21.953  0.00  0.00    -0.437 OA
ATOM      6  C   UNL     1       8.687  -1.315  22.506  0.00  0.00    +0.141 A 
ATOM      7  C   UNL     1       9.394  -0.477  21.639  0.00  0.00    +0.050 A 
ATOM      8  C   UNL     1      10.034   0.660  22.140  0.00  0.00    +0.042 A 
ATOM      9  C   UNL     1       9.964   0.954  23.499  0.00  0.00    +0.124 A 
ATOM     10  F   UNL     1      10.580   2.045  23.971  0.00  0.00    -0.205 F 
ATOM     11  C   UNL     1       9.269   0.133  24.372  0.00  0.00    +0.053 A 
ATOM     12  C   UNL     1       8.633  -1.001  23.864  0.00  0.00    +0.067 A 
ATOM     13  N   UNL     1       6.876  -4.369  22.169  0.00  0.00    -0.197 NA
ATOM     14  C   UNL     1       7.907  -1.902  24.757  0.00  0.00    +0.202 A 
ATOM     15  O   UNL     1       7.819  -1.692  25.959  0.00  0.00    -0.286 OA
ATOM     16  C   UNL     1       6.235  -5.289  22.930  0.00  0.00    +0.132 A 
ENDROOT
BRANCH   1  20
ATOM     17  N   UNL     1       5.855  -6.352  26.422  0.00  0.00    -0.325 N 
ATOM     18  H   UNL     1       6.714  -5.955  26.779  0.00  0.00    +0.145 HD
ATOM     19  H   UNL     1       5.420  -7.089  26.963  0.00  0.00    +0.145 HD
ATOM     20  C   UNL     1       5.418  -6.180  25.134  0.00  0.00    +0.245 C 
ATOM     21  O   UNL     1       4.485  -6.831  24.684  0.00  0.00    -0.270 OA
ENDBRANCH   1  20
BRANCH  16  22
ATOM     22  N   UNL     1       5.809  -6.426  22.248  0.00  0.00    -0.342 N 
ATOM     23  H   UNL     1       6.597  -6.885  21.806  0.00  0.00    +0.144 HD
ATOM     24  H   UNL     1       5.030  -6.228  21.620  0.00  0.00    +0.144 HD
ENDBRANCH  16  22
TORSDOF 2
ENDMDL
MODEL 6
REMARK VINA RESULT:      -6.8      2.069      2.437
REMARK  Name = 
REMARK  2 active torsions:
REMARK  status: ('A' for Active; 'I' for Inactive)
REMARK    1  A    between atoms: C_2  and  C_4
REMARK    2  A    between atoms: C_5  and  N_6
REMARK                            x       y       z     vdW  Elec       q    Type
REMARK                         _______ _______ _______ _____ _____    ______ ____
ROOT
ATOM      1  C   UNL     1       6.149  -5.341  25.054  0.00  0.00    +0.077 A 
ATOM      2  C   UNL     1       6.359  -4.503  23.960  0.00  0.00    +0.033 A 
ATOM      3  C   UNL     1       7.326  -3.510  24.055  0.00  0.00    +0.085 A 
ATOM      4  C   UNL     1       8.072  -3.390  25.214  0.00  0.00    +0.233 A 
ATOM      5  O   UNL     1       9.028  -2.413  25.391  0.00  0.00    -0.437 OA
ATOM      6  C   UNL     1       9.228  -1.500  24.382  0.00  0.00    +0.141 A 
ATOM      7  C   UNL     1      10.169  -0.494  24.612  0.00  0.00    +0.050 A 
ATOM      8  C   UNL     1      10.420   0.463  23.624  0.00  0.00    +0.042 A 
ATOM      9  C   UNL     1       9.732   0.408  22.415  0.00  0.00    +0.124 A 
ATOM     10  F   UNL     1       9.978   1.327  21.473  0.00  0.00    -0.205 F 
ATOM     11  C   UNL     1       8.795  -0.583  22.171  0.00  0.00    +0.053 A 
ATOM     12  C   UNL     1       8.549  -1.533  23.164  0.00  0.00    +0.067 A 
ATOM     13  N   UNL     1       7.907  -4.221  26.272  0.00  0.00    -0.197 NA
ATOM     14  C   UNL     1       7.553  -2.582  22.951  0.00  0.00    +0.202 A 
ATOM     15  O   UNL     1       6.919  -2.671  21.908  0.00  0.00    -0.286 OA
ATOM     16  C   UNL     1       6.961  -5.187  26.186  0.00  0.00    +0.132 A 
ENDROOT
BRANCH   1  20
ATOM     17  N   UNL     1       4.900  -6.963  23.748  0.00  0.00    -0.325 N 
ATOM     18  H   UNL     1       5.269  -6.583  22.887  0.00  0.00    +0.145 HD
ATOM     19  H   UNL     1       4.156  -7.645  23.677  0.00  0.00    +0.145 HD
ATOM     20  C   UNL     1       5.121  -6.404  24.979  0.00  0.00    +0.245 C 
ATOM     21  O   UNL     1       4.504  -6.774  25.969  0.00  0.00    -0.270 OA
ENDBRANCH   1  20
BRANCH  16  22
ATOM     22  N   UNL     1       6.767  -5.930  27.347  0.00  0.00    -0.342 N 
ATOM     23  H   UNL     1       5.808  -5.845  27.663  0.00  0.00    +0.144 HD
ATOM     24  H   UNL     1       7.466  -5.718  28.061  0.00  0.00    +0.144 HD
ENDBRANCH  16  22
TORSDOF 2
ENDMDL
MODEL 7
REMARK VINA RESULT:      -6.7      3.122      4.019
REMARK  Name = 
REMARK  2 active torsions:
REMARK  status: ('A' for Active; 'I' for Inactive)
REMARK    1  A    between atoms: C_2  and  C_4
REMARK    2  A    between atoms: C_5  and  N_6
REMARK                            x       y       z     vdW  Elec       q    Type
REMARK                         _______ _______ _______ _____ _____    ______ ____
ROOT
ATOM      1  C   UNL     1       6.703  -3.945  22.257  0.00  0.00    +0.077 A 
ATOM      2  C   UNL     1       7.902  -3.241  22.149  0.00  0.00    +0.033 A 
ATOM      3  C   UNL     1       8.010  -2.005  22.774  0.00  0.00    +0.085 A 
ATOM      4  C   UNL     1       6.943  -1.513  23.504  0.00  0.00    +0.233 A 
ATOM      5  O   UNL     1       6.967  -0.283  24.127  0.00  0.00    -0.437 OA
ATOM      6  C   UNL     1       8.089   0.499  23.992  0.00  0.00    +0.141 A 
ATOM      7  C   UNL     1       8.062   1.759  24.594  0.00  0.00    +0.050 A 
ATOM      8  C   UNL     1       9.174   2.601  24.495  0.00  0.00    +0.042 A 
ATOM      9  C   UNL     1      10.304   2.180  23.798  0.00  0.00    +0.124 A 
ATOM     10  F   UNL     1      11.365   2.991  23.709  0.00  0.00    -0.205 F 
ATOM     11  C   UNL     1      10.346   0.934  23.195  0.00  0.00    +0.053 A 
ATOM     12  C   UNL     1       9.231   0.100  23.297  0.00  0.00    +0.067 A 
ATOM     13  N   UNL     1       5.784  -2.200  23.650  0.00  0.00    -0.197 NA
ATOM     14  C   UNL     1       9.231  -1.214  22.656  0.00  0.00    +0.202 A 
ATOM     15  O   UNL     1      10.196  -1.629  22.028  0.00  0.00    -0.286 OA
ATOM     16  C   UNL     1       5.672  -3.404  23.037  0.00  0.00    +0.132 A 
ENDROOT
BRANCH   1  20
ATOM     17  N   UNL     1       7.250  -6.308  22.152  0.00  0.00    -0.325 N 
ATOM     18  H   UNL     1       7.959  -6.196  22.864  0.00  0.00    +0.145 HD
ATOM     19  H   UNL     1       7.208  -7.197  21.670  0.00  0.00    +0.145 HD
ATOM     20  C   UNL     1       6.562  -5.262  21.596  0.00  0.00    +0.245 C 
ATOM     21  O   UNL     1       5.858  -5.415  20.607  0.00  0.00    -0.270 OA
ENDBRANCH   1  20
BRANCH  16  22
ATOM     22  N   UNL     1       4.420  -4.003  23.135  0.00  0.00    -0.342 N 
ATOM     23  H   UNL     1       4.399  -4.647  23.917  0.00  0.00    +0.144 HD
ATOM     24  H   UNL     1       4.117  -4.407  22.248  0.00  0.00    +0.144 HD
ENDBRANCH  16  22
TORSDOF 2
ENDMDL
MODEL 8
REMARK VINA RESULT:      -6.6      3.728      6.216
REMARK  Name = 
REMARK  2 active torsions:
REMARK  status: ('A' for Active; 'I' for Inactive)
REMARK    1  A    between atoms: C_2  and  C_4
REMARK    2  A    between atoms: C_5  and  N_6
REMARK                            x       y       z     vdW  Elec       q    Type
REMARK                         _______ _______ _______ _____ _____    ______ ____
ROOT
ATOM      1  C   UNL     1       9.352  -0.916  23.983  0.00  0.00    +0.077 A 
ATOM      2  C   UNL     1       8.721  -1.688  24.956  0.00  0.00    +0.033 A 
ATOM      3  C   UNL     1       7.968  -2.784  24.555  0.00  0.00    +0.085 A 
ATOM      4  C   UNL     1       7.881  -3.099  23.211  0.00  0.00    +0.233 A 
ATOM      5  O   UNL     1       7.131  -4.154  22.736  0.00  0.00    -0.437 OA
ATOM      6  C   UNL     1       6.416  -4.908  23.636  0.00  0.00    +0.141 A 
ATOM      7  C   UNL     1       5.627  -5.938  23.119  0.00  0.00    +0.050 A 
ATOM      8  C   UNL     1       4.879  -6.742  23.983  0.00  0.00    +0.042 A 
ATOM      9  C   UNL     1       4.922  -6.514  25.356  0.00  0.00    +0.124 A 
ATOM     10  F   UNL     1       4.203  -7.289  26.177  0.00  0.00    -0.205 F 
ATOM     11  C   UNL     1       5.698  -5.496  25.885  0.00  0.00    +0.053 A 
ATOM     12  C   UNL     1       6.441  -4.696  25.015  0.00  0.00    +0.067 A 
ATOM     13  N   UNL     1       8.519  -2.381  22.255  0.00  0.00    -0.197 NA
ATOM     14  C   UNL     1       7.256  -3.599  25.536  0.00  0.00    +0.202 A 
ATOM     15  O   UNL     1       7.325  -3.354  26.732  0.00  0.00    -0.286 OA
ATOM     16  C   UNL     1       9.250  -1.307  22.641  0.00  0.00    +0.132 A 
ENDROOT
BRANCH   1  20
ATOM     17  N   UNL     1       9.532   1.197  25.166  0.00  0.00    -0.325 N 
ATOM     18  H   UNL     1       8.536   1.210  25.336  0.00  0.00    +0.145 HD
ATOM     19  H   UNL     1      10.055   2.033  25.393  0.00  0.00    +0.145 HD
ATOM     20  C   UNL     1      10.157   0.261  24.385  0.00  0.00    +0.245 C 
ATOM     21  O   UNL     1      11.325   0.389  24.045  0.00  0.00    -0.270 OA
ENDBRANCH   1  20
BRANCH  16  22
ATOM     22  N   UNL     1       9.785  -0.551  21.602  0.00  0.00    -0.342 N 
ATOM     23  H   UNL     1       9.062  -0.314  20.933  0.00  0.00    +0.144 HD
ATOM     24  H   UNL     1      10.610  -0.990  21.193  0.00  0.00    +0.144 HD
ENDBRANCH  16  22
TORSDOF 2
ENDMDL
MODEL 9
REMARK VINA RESULT:      -6.6      2.891      3.917
REMARK  Name = 
REMARK  2 active torsions:
REMARK  status: ('A' for Active; 'I' for Inactive)
REMARK    1  A    between atoms: C_2  and  C_4
REMARK    2  A    between atoms: C_5  and  N_6
REMARK                            x       y       z     vdW  Elec       q    Type
REMARK                         _______ _______ _______ _____ _____    ______ ____
ROOT
ATOM      1  C   UNL     1       5.719  -6.272  27.411  0.00  0.00    +0.077 A 
ATOM      2  C   UNL     1       6.778  -5.368  27.338  0.00  0.00    +0.033 A 
ATOM      3  C   UNL     1       7.015  -4.712  26.137  0.00  0.00    +0.085 A 
ATOM      4  C   UNL     1       6.189  -4.950  25.054  0.00  0.00    +0.233 A 
ATOM      5  O   UNL     1       6.379  -4.357  23.823  0.00  0.00    -0.437 OA
ATOM      6  C   UNL     1       7.455  -3.518  23.659  0.00  0.00    +0.141 A 
ATOM      7  C   UNL     1       7.648  -2.973  22.387  0.00  0.00    +0.050 A 
ATOM      8  C   UNL     1       8.722  -2.108  22.157  0.00  0.00    +0.042 A 
ATOM      9  C   UNL     1       9.595  -1.794  23.195  0.00  0.00    +0.124 A 
ATOM     10  F   UNL     1      10.621  -0.964  22.967  0.00  0.00    -0.205 F 
ATOM     11  C   UNL     1       9.418  -2.326  24.462  0.00  0.00    +0.053 A 
ATOM     12  C   UNL     1       8.343  -3.189  24.683  0.00  0.00    +0.067 A 
ATOM     13  N   UNL     1       5.132  -5.797  25.118  0.00  0.00    -0.197 NA
ATOM     14  C   UNL     1       8.137  -3.787  26.001  0.00  0.00    +0.202 A 
ATOM     15  O   UNL     1       8.877  -3.546  26.945  0.00  0.00    -0.286 OA
ATOM     16  C   UNL     1       4.901  -6.443  26.287  0.00  0.00    +0.132 A 
ENDROOT
BRANCH   1  20
ATOM     17  N   UNL     1       6.539  -7.392  29.404  0.00  0.00    -0.325 N 
ATOM     18  H   UNL     1       7.485  -7.378  29.047  0.00  0.00    +0.145 HD
ATOM     19  H   UNL     1       6.362  -7.936  30.239  0.00  0.00    +0.145 HD
ATOM     20  C   UNL     1       5.449  -6.987  28.679  0.00  0.00    +0.245 C 
ATOM     21  O   UNL     1       4.308  -7.200  29.068  0.00  0.00    -0.270 OA
ENDBRANCH   1  20
BRANCH  16  22
ATOM     22  N   UNL     1       3.872  -7.380  26.250  0.00  0.00    -0.342 N 
ATOM     23  H   UNL     1       3.949  -7.954  25.418  0.00  0.00    +0.144 HD
ATOM     24  H   UNL     1       2.956  -6.950  26.381  0.00  0.00    +0.144 HD
ENDBRANCH  16  22
TORSDOF 2
ENDMDL
