MODEL 1
REMARK VINA RESULT:      -2.9      0.000      0.000
REMARK  Name = 
REMARK  2 active torsions:
REMARK  status: ('A' for Active; 'I' for Inactive)
REMARK    1  A    between atoms: O_1  and  C_2
REMARK    2  A    between atoms: C_2  and  C_3
REMARK                            x       y       z     vdW  Elec       q    Type
REMARK                         _______ _______ _______ _____ _____    ______ ____
ROOT
ATOM      1  C   UNL     1      10.214  -1.453  22.892  0.00  0.00    +0.197 C 
ENDROOT
BRANCH   1   2
ATOM      2  C   UNL     1      10.300  -0.019  23.343  0.00  0.00    +0.014 C 
ATOM      3  C   UNL     1      10.670   0.395  24.564  0.00  0.00    +0.022 C 
ATOM      4 BR   UNL     1       9.831   1.224  22.018  0.00  0.00    -0.053 Br
ENDBRANCH   1   2
BRANCH   1   5
ATOM      5  O   UNL     1      10.184  -1.556  21.471  0.00  0.00    -0.390 OA
ATOM      6  H   UNL     1      10.331  -2.493  21.258  0.00  0.00    +0.210 HD
ENDBRANCH   1   5
TORSDOF 2
ENDMDL
MODEL 2
REMARK VINA RESULT:      -2.8      2.257      2.708
REMARK  Name = 
REMARK  2 active torsions:
REMARK  status: ('A' for Active; 'I' for Inactive)
REMARK    1  A    between atoms: O_1  and  C_2
REMARK    2  A    between atoms: C_2  and  C_3
REMARK                            x       y       z     vdW  Elec       q    Type
REMARK                         _______ _______ _______ _____ _____    ______ ____
ROOT
ATOM      1  C   UNL     1       9.447   1.044  21.763  0.00  0.00    +0.197 C 
ENDROOT
BRANCH   1   2
ATOM      2  C   UNL     1      10.091   0.022  22.662  0.00  0.00    +0.014 C 
ATOM      3  C   UNL     1      10.238  -1.282  22.383  0.00  0.00    +0.022 C 
ATOM      4 BR   UNL     1      10.712   0.722  24.288  0.00  0.00    -0.053 Br
ENDBRANCH   1   2
BRANCH   1   5
ATOM      5  O   UNL     1      10.266   2.200  21.612  0.00  0.00    -0.390 OA
ATOM      6  H   UNL     1      10.536   2.228  20.678  0.00  0.00    +0.210 HD
ENDBRANCH   1   5
TORSDOF 2
ENDMDL
MODEL 3
REMARK VINA RESULT:      -2.8      2.360      2.539
REMARK  Name = 
REMARK  2 active torsions:
REMARK  status: ('A' for Active; 'I' for Inactive)
REMARK    1  A    between atoms: O_1  and  C_2
REMARK    2  A    between atoms: C_2  and  C_3
REMARK                            x       y       z     vdW  Elec       q    Type
REMARK                         _______ _______ _______ _____ _____    ______ ____
ROOT
ATOM      1  C   UNL     1       9.565   1.211  21.928  0.00  0.00    +0.197 C 
ENDROOT
BRANCH   1   2
ATOM      2  C   UNL     1      10.205   0.359  22.991  0.00  0.00    +0.014 C 
ATOM      3  C   UNL     1      10.743   0.809  24.134  0.00  0.00    +0.022 C 
ATOM      4 BR   UNL     1      10.205  -1.476  22.598  0.00  0.00    -0.053 Br
ENDBRANCH   1   2
BRANCH   1   5
ATOM      5  O   UNL     1      10.353   2.360  21.631  0.00  0.00    -0.390 OA
ATOM      6  H   UNL     1      11.282   2.095  21.740  0.00  0.00    +0.210 HD
ENDBRANCH   1   5
TORSDOF 2
ENDMDL
MODEL 4
REMARK VINA RESULT:      -2.7      1.642      1.877
REMARK  Name = 
REMARK  2 active torsions:
REMARK  status: ('A' for Active; 'I' for Inactive)
REMARK    1  A    between atoms: O_1  and  C_2
REMARK    2  A    between atoms: C_2  and  C_3
REMARK                            x       y       z     vdW  Elec       q    Type
REMARK                         _______ _______ _______ _____ _____    ______ ____
ROOT
ATOM      1  C   UNL     1       9.459  -0.904  22.466  0.00  0.00    +0.197 C 
ENDROOT
BRANCH   1   2
ATOM      2  C   UNL     1       9.979   0.472  22.787  0.00  0.00    +0.014 C 
ATOM      3  C   UNL     1       9.941   1.533  21.968  0.00  0.00    +0.022 C 
ATOM      4 BR   UNL     1      10.726   0.622  24.502  0.00  0.00    -0.053 Br
ENDBRANCH   1   2
BRANCH   1   5
ATOM      5  O   UNL     1      10.258  -1.550  21.479  0.00  0.00    -0.390 OA
ATOM      6  H   UNL     1       9.841  -2.411  21.305  0.00  0.00    +0.210 HD
ENDBRANCH   1   5
TORSDOF 2
ENDMDL
MODEL 5
REMARK VINA RESULT:      -2.7      2.556      2.556
REMARK  Name = 
REMARK  2 active torsions:
REMARK  status: ('A' for Active; 'I' for Inactive)
REMARK    1  A    between atoms: O_1  and  C_2
REMARK    2  A    between atoms: C_2  and  C_3
REMARK                            x       y       z     vdW  Elec       q    Type
REMARK                         _______ _______ _______ _____ _____    ______ ____
ROOT
ATOM      1  C   UNL     1       9.987   1.106  22.289  0.00  0.00    +0.197 C 
ENDROOT
BRANCH   1   2
ATOM      2  C   UNL     1      10.088   1.321  23.776  0.00  0.00    +0.014 C 
ATOM      3  C   UNL     1      10.861   0.618  24.617  0.00  0.00    +0.022 C 
ATOM      4 BR   UNL     1       9.007   2.714  24.417  0.00  0.00    -0.053 Br
ENDBRANCH   1   2
BRANCH   1   5
ATOM      5  O   UNL     1      10.235   2.308  21.566  0.00  0.00    -0.390 OA
ATOM      6  H   UNL     1      10.967   2.759  22.021  0.00  0.00    +0.210 HD
ENDBRANCH   1   5
TORSDOF 2
ENDMDL
MODEL 6
REMARK VINA RESULT:      -2.6      2.899      3.067
REMARK  Name = 
REMARK  2 active torsions:
REMARK  status: ('A' for Active; 'I' for Inactive)
REMARK    1  A    between atoms: O_1  and  C_2
REMARK    2  A    between atoms: C_2  and  C_3
REMARK                            x       y       z     vdW  Elec       q    Type
REMARK                         _______ _______ _______ _____ _____    ______ ____
ROOT
ATOM      1  C   UNL     1       9.878   1.438  21.966  0.00  0.00    +0.197 C 
ENDROOT
BRANCH   1   2
ATOM      2  C   UNL     1      10.460   1.959  23.253  0.00  0.00    +0.014 C 
ATOM      3  C   UNL     1      10.771   3.238  23.508  0.00  0.00    +0.022 C 
ATOM      4 BR   UNL     1      10.741   0.634  24.552  0.00  0.00    -0.053 Br
ENDBRANCH   1   2
BRANCH   1   5
ATOM      5  O   UNL     1       9.004   2.387  21.363  0.00  0.00    -0.390 OA
ATOM      6  H   UNL     1       9.030   3.182  21.922  0.00  0.00    +0.210 HD
ENDBRANCH   1   5
TORSDOF 2
ENDMDL
MODEL 7
REMARK VINA RESULT:      -2.5      2.514      2.921
REMARK  Name = 
REMARK  2 active torsions:
REMARK  status: ('A' for Active; 'I' for Inactive)
REMARK    1  A    between atoms: O_1  and  C_2
REMARK    2  A    between atoms: C_2  and  C_3
REMARK                            x       y       z     vdW  Elec       q    Type
REMARK                         _______ _______ _______ _____ _____    ______ ____
ROOT
ATOM      1  C   UNL     1      10.940   0.730  24.421  0.00  0.00    +0.197 C 
ENDROOT
BRANCH   1   2
ATOM      2  C   UNL     1      10.334   0.403  23.082  0.00  0.00    +0.014 C 
ATOM      3  C   UNL     1       9.966   1.296  22.152  0.00  0.00    +0.022 C 
ATOM      4 BR   UNL     1      10.112  -1.435  22.776  0.00  0.00    -0.053 Br
ENDBRANCH   1   2
BRANCH   1   5
ATOM      5  O   UNL     1      10.068   0.380  25.492  0.00  0.00    -0.390 OA
ATOM      6  H   UNL     1       9.790  -0.538  25.334  0.00  0.00    +0.210 HD
ENDBRANCH   1   5
TORSDOF 2
ENDMDL
MODEL 8
REMARK VINA RESULT:      -2.5      3.413      3.896
REMARK  Name = 
REMARK  2 active torsions:
REMARK  status: ('A' for Active; 'I' for Inactive)
REMARK    1  A    between atoms: O_1  and  C_2
REMARK    2  A    between atoms: C_2  and  C_3
REMARK                            x       y       z     vdW  Elec       q    Type
REMARK                         _______ _______ _______ _____ _____    ______ ____
ROOT
ATOM      1  C   UNL     1      10.232   3.269  23.534  0.00  0.00    +0.197 C 
ENDROOT
BRANCH   1   2
ATOM      2  C   UNL     1      10.206   1.817  23.136  0.00  0.00    +0.014 C 
ATOM      3  C   UNL     1       9.860   1.344  21.930  0.00  0.00    +0.022 C 
ATOM      4 BR   UNL     1      10.717   0.643  24.508  0.00  0.00    -0.053 Br
ENDBRANCH   1   2
BRANCH   1   5
ATOM      5  O   UNL     1      11.374   3.937  23.006  0.00  0.00    -0.390 OA
ATOM      6  H   UNL     1      11.655   3.431  22.225  0.00  0.00    +0.210 HD
ENDBRANCH   1   5
TORSDOF 2
ENDMDL
MODEL 9
REMARK VINA RESULT:      -2.5      6.163      6.422
REMARK  Name = 
REMARK  2 active torsions:
REMARK  status: ('A' for Active; 'I' for Inactive)
REMARK    1  A    between atoms: O_1  and  C_2
REMARK    2  A    between atoms: C_2  and  C_3
REMARK                            x       y       z     vdW  Elec       q    Type
REMARK                         _______ _______ _______ _____ _____    ______ ____
ROOT
ATOM      1  C   UNL     1       7.437  -5.056  26.513  0.00  0.00    +0.197 C 
ENDROOT
BRANCH   1   2
ATOM      2  C   UNL     1       8.422  -5.044  25.374  0.00  0.00    +0.014 C 
ATOM      3  C   UNL     1       9.758  -5.064  25.496  0.00  0.00    +0.022 C 
ATOM      4 BR   UNL     1       7.622  -4.998  23.677  0.00  0.00    -0.053 Br
ENDBRANCH   1   2
BRANCH   1   5
ATOM      5  O   UNL     1       7.850  -5.935  27.555  0.00  0.00    -0.390 OA
ATOM      6  H   UNL     1       7.398  -6.782  27.398  0.00  0.00    +0.210 HD
ENDBRANCH   1   5
TORSDOF 2
ENDMDL
