MODEL 1
REMARK VINA RESULT:      -6.6      0.000      0.000
REMARK  Name = 
REMARK  10 active torsions:
REMARK  status: ('A' for Active; 'I' for Inactive)
REMARK    1  A    between atoms: N_1  and  CA_2
REMARK    2  A    between atoms: CA_2  and  C_4
REMARK    3  A    between atoms: CA_2  and  C_6
REMARK    4  A    between atoms: C_4  and  O_5
REMARK    5  A    between atoms: C_9  and  C_11
REMARK    6  A    between atoms: C_11  and  C_12
REMARK    7  A    between atoms: C_15  and  O_16
REMARK    8  A    between atoms: N_21  and  C_22
REMARK    9  A    between atoms: C_22  and  C_23
REMARK   10  A    between atoms: C_23  and  O_24
REMARK                            x       y       z     vdW  Elec       q    Type
REMARK                         _______ _______ _______ _____ _____    ______ ____
ROOT
ATOM      1  C   UNL     1       7.432  -4.581  22.637  0.00  0.00    +0.164 C 
ATOM      2  N   UNL     1       8.024  -4.283  23.928  0.00  0.00    -0.272 N 
ATOM      3  C   UNL     1       8.389  -2.941  24.009  0.00  0.00    +0.235 C 
ATOM      4  O   UNL     1       9.042  -2.421  24.895  0.00  0.00    -0.274 OA
ATOM      5  C   UNL     1       7.838  -2.277  22.759  0.00  0.00    +0.146 C 
ATOM      6  N   UNL     1       6.871  -3.283  22.252  0.00  0.00    -0.286 NA
ATOM      7  H   UNL     1       5.988  -3.149  22.744  0.00  0.00    +0.124 HD
ENDROOT
BRANCH   1   8
ATOM      8  CA  UNL     1       6.372  -5.735  22.630  0.00  0.00    +0.112 C 
BRANCH   8   9
ATOM      9  N   UNL     1       5.989  -6.129  21.255  0.00  0.00    -0.323 NA
ATOM     10  H1  UNL     1       5.523  -7.038  21.277  0.00  0.00    +0.119 HD
ATOM     11  H2  UNL     1       5.330  -5.461  20.856  0.00  0.00    +0.119 HD
ENDBRANCH   8   9
BRANCH   8  12
ATOM     12  C   UNL     1       5.115  -5.357  23.443  0.00  0.00    +0.177 C 
BRANCH  12  13
ATOM     13  O   UNL     1       4.216  -4.587  22.643  0.00  0.00    -0.393 OA
ATOM     14  H   UNL     1       3.938  -5.147  21.898  0.00  0.00    +0.209 HD
ENDBRANCH  12  13
ENDBRANCH   8  12
ENDBRANCH   1   8
BRANCH   2  15
ATOM     15  C   UNL     1       8.755  -5.293  24.709  0.00  0.00    +0.229 C 
BRANCH  15  16
ATOM     16  C   UNL     1       8.349  -5.341  26.180  0.00  0.00    +0.322 C 
ATOM     17  O   UNL     1       7.332  -5.880  26.593  0.00  0.00    -0.249 OA
BRANCH  16  18
ATOM     18  O   UNL     1       9.253  -4.765  27.010  0.00  0.00    -0.480 OA
ATOM     19  H   UNL     1       9.849  -4.204  26.478  0.00  0.00    +0.295 HD
ENDBRANCH  16  18
ENDBRANCH  15  16
ENDBRANCH   2  15
BRANCH   5  20
ATOM     20  C   UNL     1       7.253  -0.893  23.077  0.00  0.00    +0.063 C 
BRANCH  20  21
ATOM     21  C   UNL     1       8.295   0.201  23.051  0.00  0.00    -0.045 A 
ATOM     22  C   UNL     1       9.003   0.484  21.874  0.00  0.00    +0.007 A 
ATOM     23  C   UNL     1       9.915   1.539  21.838  0.00  0.00    +0.045 A 
ATOM     24  C   UNL     1      10.116   2.318  22.971  0.00  0.00    +0.117 A 
ATOM     25  C   UNL     1       9.443   2.038  24.155  0.00  0.00    +0.045 A 
ATOM     26  C   UNL     1       8.536   0.977  24.194  0.00  0.00    +0.007 A 
BRANCH  24  27
ATOM     27  O   UNL     1      10.982   3.367  22.880  0.00  0.00    -0.507 OA
ATOM     28  H   UNL     1      10.496   4.184  23.077  0.00  0.00    +0.292 HD
ENDBRANCH  24  27
ENDBRANCH  20  21
ENDBRANCH   5  20
TORSDOF 10
ENDMDL
MODEL 2
REMARK VINA RESULT:      -6.5      1.827      3.435
REMARK  Name = 
REMARK  10 active torsions:
REMARK  status: ('A' for Active; 'I' for Inactive)
REMARK    1  A    between atoms: N_1  and  CA_2
REMARK    2  A    between atoms: CA_2  and  C_4
REMARK    3  A    between atoms: CA_2  and  C_6
REMARK    4  A    between atoms: C_4  and  O_5
REMARK    5  A    between atoms: C_9  and  C_11
REMARK    6  A    between atoms: C_11  and  C_12
REMARK    7  A    between atoms: C_15  and  O_16
REMARK    8  A    between atoms: N_21  and  C_22
REMARK    9  A    between atoms: C_22  and  C_23
REMARK   10  A    between atoms: C_23  and  O_24
REMARK                            x       y       z     vdW  Elec       q    Type
REMARK                         _______ _______ _______ _____ _____    ______ ____
ROOT
ATOM      1  C   UNL     1       7.516  -3.828  25.236  0.00  0.00    +0.164 C 
ATOM      2  N   UNL     1       6.896  -4.127  23.958  0.00  0.00    -0.272 N 
ATOM      3  C   UNL     1       7.223  -3.159  23.010  0.00  0.00    +0.235 C 
ATOM      4  O   UNL     1       6.742  -3.045  21.897  0.00  0.00    -0.274 OA
ATOM      5  C   UNL     1       8.267  -2.267  23.659  0.00  0.00    +0.146 C 
ATOM      6  N   UNL     1       8.702  -3.069  24.831  0.00  0.00    -0.286 NA
ATOM      7  H   UNL     1       9.418  -3.723  24.516  0.00  0.00    +0.124 HD
ENDROOT
BRANCH   1   8
ATOM      8  CA  UNL     1       7.857  -5.070  26.128  0.00  0.00    +0.112 C 
BRANCH   8   9
ATOM      9  N   UNL     1       7.213  -4.992  27.459  0.00  0.00    -0.323 NA
ATOM     10  H1  UNL     1       6.309  -5.469  27.429  0.00  0.00    +0.119 HD
ATOM     11  H2  UNL     1       7.779  -5.462  28.164  0.00  0.00    +0.119 HD
ENDBRANCH   8   9
BRANCH   8  12
ATOM     12  C   UNL     1       9.382  -5.254  26.287  0.00  0.00    +0.177 C 
BRANCH  12  13
ATOM     13  O   UNL     1       9.928  -5.899  25.135  0.00  0.00    -0.393 OA
ATOM     14  H   UNL     1      10.754  -6.333  25.409  0.00  0.00    +0.209 HD
ENDBRANCH  12  13
ENDBRANCH   8  12
ENDBRANCH   1   8
BRANCH   2  15
ATOM     15  C   UNL     1       5.626  -4.861  23.852  0.00  0.00    +0.229 C 
BRANCH  15  16
ATOM     16  C   UNL     1       5.744  -6.183  23.097  0.00  0.00    +0.322 C 
ATOM     17  O   UNL     1       6.535  -6.383  22.185  0.00  0.00    -0.249 OA
BRANCH  16  18
ATOM     18  O   UNL     1       4.916  -7.149  23.564  0.00  0.00    -0.480 OA
ATOM     19  H   UNL     1       5.011  -7.940  22.998  0.00  0.00    +0.295 HD
ENDBRANCH  16  18
ENDBRANCH  15  16
ENDBRANCH   2  15
BRANCH   5  20
ATOM     20  C   UNL     1       9.373  -1.891  22.662  0.00  0.00    +0.063 C 
BRANCH  20  21
ATOM     21  C   UNL     1       9.787  -0.441  22.769  0.00  0.00    -0.045 A 
ATOM     22  C   UNL     1       9.546   0.449  21.713  0.00  0.00    +0.007 A 
ATOM     23  C   UNL     1       9.867   1.801  21.844  0.00  0.00    +0.045 A 
ATOM     24  C   UNL     1      10.421   2.266  23.030  0.00  0.00    +0.117 A 
ATOM     25  C   UNL     1      10.692   1.395  24.079  0.00  0.00    +0.045 A 
ATOM     26  C   UNL     1      10.377   0.042  23.946  0.00  0.00    +0.007 A 
BRANCH  24  27
ATOM     27  O   UNL     1      10.679   3.601  23.133  0.00  0.00    -0.507 OA
ATOM     28  H   UNL     1      10.395   4.033  22.310  0.00  0.00    +0.292 HD
ENDBRANCH  24  27
ENDBRANCH  20  21
ENDBRANCH   5  20
TORSDOF 10
ENDMDL
MODEL 3
REMARK VINA RESULT:      -6.5      2.257      2.879
REMARK  Name = 
REMARK  10 active torsions:
REMARK  status: ('A' for Active; 'I' for Inactive)
REMARK    1  A    between atoms: N_1  and  CA_2
REMARK    2  A    between atoms: CA_2  and  C_4
REMARK    3  A    between atoms: CA_2  and  C_6
REMARK    4  A    between atoms: C_4  and  O_5
REMARK    5  A    between atoms: C_9  and  C_11
REMARK    6  A    between atoms: C_11  and  C_12
REMARK    7  A    between atoms: C_15  and  O_16
REMARK    8  A    between atoms: N_21  and  C_22
REMARK    9  A    between atoms: C_22  and  C_23
REMARK   10  A    between atoms: C_23  and  O_24
REMARK                            x       y       z     vdW  Elec       q    Type
REMARK                         _______ _______ _______ _____ _____    ______ ____
ROOT
ATOM      1  C   UNL     1       6.573  -2.523  24.561  0.00  0.00    +0.164 C 
ATOM      2  N   UNL     1       7.315  -3.680  25.027  0.00  0.00    -0.272 N 
ATOM      3  C   UNL     1       8.495  -3.838  24.302  0.00  0.00    +0.235 C 
ATOM      4  O   UNL     1       9.251  -4.792  24.350  0.00  0.00    -0.274 OA
ATOM      5  C   UNL     1       8.621  -2.605  23.425  0.00  0.00    +0.146 C 
ATOM      6  N   UNL     1       7.639  -1.669  24.031  0.00  0.00    -0.286 NA
ATOM      7  H   UNL     1       8.096  -1.194  24.810  0.00  0.00    +0.124 HD
ENDROOT
BRANCH   1   8
ATOM      8  CA  UNL     1       5.691  -1.806  25.639  0.00  0.00    +0.112 C 
BRANCH   8   9
ATOM      9  N   UNL     1       4.251  -2.102  25.465  0.00  0.00    -0.323 NA
ATOM     10  H1  UNL     1       3.931  -1.730  24.569  0.00  0.00    +0.119 HD
ATOM     11  H2  UNL     1       4.086  -3.108  25.451  0.00  0.00    +0.119 HD
ENDBRANCH   8   9
BRANCH   8  12
ATOM     12  C   UNL     1       5.923  -0.280  25.640  0.00  0.00    +0.177 C 
BRANCH  12  13
ATOM     13  O   UNL     1       5.370   0.309  24.461  0.00  0.00    -0.393 OA
ATOM     14  H   UNL     1       5.811  -0.100  23.698  0.00  0.00    +0.209 HD
ENDBRANCH  12  13
ENDBRANCH   8  12
ENDBRANCH   1   8
BRANCH   2  15
ATOM     15  C   UNL     1       6.654  -4.851  25.622  0.00  0.00    +0.229 C 
BRANCH  15  16
ATOM     16  C   UNL     1       7.133  -5.174  27.035  0.00  0.00    +0.322 C 
ATOM     17  O   UNL     1       6.551  -4.824  28.053  0.00  0.00    -0.249 OA
BRANCH  16  18
ATOM     18  O   UNL     1       8.252  -5.938  27.066  0.00  0.00    -0.480 OA
ATOM     19  H   UNL     1       9.013  -5.385  26.802  0.00  0.00    +0.295 HD
ENDBRANCH  16  18
ENDBRANCH  15  16
ENDBRANCH   2  15
BRANCH   5  20
ATOM     20  C   UNL     1      10.072  -2.106  23.374  0.00  0.00    +0.063 C 
BRANCH  20  21
ATOM     21  C   UNL     1      10.167  -0.605  23.220  0.00  0.00    -0.045 A 
ATOM     22  C   UNL     1       9.840   0.009  22.003  0.00  0.00    +0.007 A 
ATOM     23  C   UNL     1       9.864   1.400  21.887  0.00  0.00    +0.045 A 
ATOM     24  C   UNL     1      10.205   2.178  22.986  0.00  0.00    +0.117 A 
ATOM     25  C   UNL     1      10.557   1.587  24.195  0.00  0.00    +0.045 A 
ATOM     26  C   UNL     1      10.541   0.196  24.309  0.00  0.00    +0.007 A 
BRANCH  24  27
ATOM     27  O   UNL     1      10.172   3.534  22.843  0.00  0.00    -0.507 OA
ATOM     28  H   UNL     1       9.275   3.842  23.048  0.00  0.00    +0.292 HD
ENDBRANCH  24  27
ENDBRANCH  20  21
ENDBRANCH   5  20
TORSDOF 10
ENDMDL
MODEL 4
REMARK VINA RESULT:      -6.3      2.235      3.156
REMARK  Name = 
REMARK  10 active torsions:
REMARK  status: ('A' for Active; 'I' for Inactive)
REMARK    1  A    between atoms: N_1  and  CA_2
REMARK    2  A    between atoms: CA_2  and  C_4
REMARK    3  A    between atoms: CA_2  and  C_6
REMARK    4  A    between atoms: C_4  and  O_5
REMARK    5  A    between atoms: C_9  and  C_11
REMARK    6  A    between atoms: C_11  and  C_12
REMARK    7  A    between atoms: C_15  and  O_16
REMARK    8  A    between atoms: N_21  and  C_22
REMARK    9  A    between atoms: C_22  and  C_23
REMARK   10  A    between atoms: C_23  and  O_24
REMARK                            x       y       z     vdW  Elec       q    Type
REMARK                         _______ _______ _______ _____ _____    ______ ____
ROOT
ATOM      1  C   UNL     1       6.562  -2.511  24.468  0.00  0.00    +0.164 C 
ATOM      2  N   UNL     1       7.325  -3.646  24.952  0.00  0.00    -0.272 N 
ATOM      3  C   UNL     1       8.507  -3.795  24.229  0.00  0.00    +0.235 C 
ATOM      4  O   UNL     1       9.280  -4.733  24.292  0.00  0.00    -0.274 OA
ATOM      5  C   UNL     1       8.610  -2.574  23.331  0.00  0.00    +0.146 C 
ATOM      6  N   UNL     1       7.612  -1.646  23.923  0.00  0.00    -0.286 NA
ATOM      7  H   UNL     1       8.061  -1.151  24.693  0.00  0.00    +0.124 HD
ENDROOT
BRANCH   1   8
ATOM      8  CA  UNL     1       5.667  -1.792  25.535  0.00  0.00    +0.112 C 
BRANCH   8   9
ATOM      9  N   UNL     1       5.030  -0.570  24.993  0.00  0.00    -0.323 NA
ATOM     10  H1  UNL     1       4.142  -0.815  24.550  0.00  0.00    +0.119 HD
ATOM     11  H2  UNL     1       4.823   0.092  25.740  0.00  0.00    +0.119 HD
ENDBRANCH   8   9
BRANCH   8  12
ATOM     12  C   UNL     1       6.466  -1.453  26.811  0.00  0.00    +0.177 C 
BRANCH  12  13
ATOM     13  O   UNL     1       7.426  -0.429  26.541  0.00  0.00    -0.393 OA
ATOM     14  H   UNL     1       7.321  -0.170  25.610  0.00  0.00    +0.209 HD
ENDBRANCH  12  13
ENDBRANCH   8  12
ENDBRANCH   1   8
BRANCH   2  15
ATOM     15  C   UNL     1       6.685  -4.819  25.566  0.00  0.00    +0.229 C 
BRANCH  15  16
ATOM     16  C   UNL     1       7.208  -5.141  26.964  0.00  0.00    +0.322 C 
ATOM     17  O   UNL     1       6.659  -4.788  27.999  0.00  0.00    -0.249 OA
BRANCH  16  18
ATOM     18  O   UNL     1       8.327  -5.906  26.961  0.00  0.00    -0.480 OA
ATOM     19  H   UNL     1       8.535  -6.146  26.037  0.00  0.00    +0.295 HD
ENDBRANCH  16  18
ENDBRANCH  15  16
ENDBRANCH   2  15
BRANCH   5  20
ATOM     20  C   UNL     1      10.052  -2.049  23.271  0.00  0.00    +0.063 C 
BRANCH  20  21
ATOM     21  C   UNL     1      10.121  -0.542  23.190  0.00  0.00    -0.045 A 
ATOM     22  C   UNL     1      10.526   0.214  24.299  0.00  0.00    +0.007 A 
ATOM     23  C   UNL     1      10.653   1.601  24.199  0.00  0.00    +0.045 A 
ATOM     24  C   UNL     1      10.385   2.232  22.990  0.00  0.00    +0.117 A 
ATOM     25  C   UNL     1       9.958   1.503  21.886  0.00  0.00    +0.045 A 
ATOM     26  C   UNL     1       9.823   0.117  21.988  0.00  0.00    +0.007 A 
BRANCH  24  27
ATOM     27  O   UNL     1      10.565   3.582  22.922  0.00  0.00    -0.507 OA
ATOM     28  H   UNL     1       9.695   4.003  22.827  0.00  0.00    +0.292 HD
ENDBRANCH  24  27
ENDBRANCH  20  21
ENDBRANCH   5  20
TORSDOF 10
ENDMDL
MODEL 5
REMARK VINA RESULT:      -6.1      1.998      3.700
REMARK  Name = 
REMARK  10 active torsions:
REMARK  status: ('A' for Active; 'I' for Inactive)
REMARK    1  A    between atoms: N_1  and  CA_2
REMARK    2  A    between atoms: CA_2  and  C_4
REMARK    3  A    between atoms: CA_2  and  C_6
REMARK    4  A    between atoms: C_4  and  O_5
REMARK    5  A    between atoms: C_9  and  C_11
REMARK    6  A    between atoms: C_11  and  C_12
REMARK    7  A    between atoms: C_15  and  O_16
REMARK    8  A    between atoms: N_21  and  C_22
REMARK    9  A    between atoms: C_22  and  C_23
REMARK   10  A    between atoms: C_23  and  O_24
REMARK                            x       y       z     vdW  Elec       q    Type
REMARK                         _______ _______ _______ _____ _____    ______ ____
ROOT
ATOM      1  C   UNL     1       6.408  -4.722  25.165  0.00  0.00    +0.164 C 
ATOM      2  N   UNL     1       6.738  -5.280  23.867  0.00  0.00    -0.272 N 
ATOM      3  C   UNL     1       7.580  -4.425  23.158  0.00  0.00    +0.235 C 
ATOM      4  O   UNL     1       7.908  -4.537  21.991  0.00  0.00    -0.274 OA
ATOM      5  C   UNL     1       7.970  -3.320  24.124  0.00  0.00    +0.146 C 
ATOM      6  N   UNL     1       7.576  -3.880  25.442  0.00  0.00    -0.286 NA
ATOM      7  H   UNL     1       8.336  -4.474  25.772  0.00  0.00    +0.124 HD
ENDROOT
BRANCH   1   8
ATOM      8  CA  UNL     1       6.122  -5.766  26.298  0.00  0.00    +0.112 C 
BRANCH   8   9
ATOM      9  N   UNL     1       4.682  -6.090  26.404  0.00  0.00    -0.323 NA
ATOM     10  H1  UNL     1       4.570  -7.023  26.805  0.00  0.00    +0.119 HD
ATOM     11  H2  UNL     1       4.207  -5.435  27.025  0.00  0.00    +0.119 HD
ENDBRANCH   8   9
BRANCH   8  12
ATOM     12  C   UNL     1       6.661  -5.286  27.663  0.00  0.00    +0.177 C 
BRANCH  12  13
ATOM     13  O   UNL     1       7.002  -6.404  28.485  0.00  0.00    -0.393 OA
ATOM     14  H   UNL     1       7.818  -6.791  28.125  0.00  0.00    +0.209 HD
ENDBRANCH  12  13
ENDBRANCH   8  12
ENDBRANCH   1   8
BRANCH   2  15
ATOM     15  C   UNL     1       5.827  -6.181  23.145  0.00  0.00    +0.229 C 
BRANCH  15  16
ATOM     16  C   UNL     1       4.409  -5.633  23.001  0.00  0.00    +0.322 C 
ATOM     17  O   UNL     1       4.145  -4.517  22.578  0.00  0.00    -0.249 OA
BRANCH  16  18
ATOM     18  O   UNL     1       3.447  -6.525  23.344  0.00  0.00    -0.480 OA
ATOM     19  H   UNL     1       2.968  -6.791  22.535  0.00  0.00    +0.295 HD
ENDBRANCH  16  18
ENDBRANCH  15  16
ENDBRANCH   2  15
BRANCH   5  20
ATOM     20  C   UNL     1       9.454  -2.951  23.975  0.00  0.00    +0.063 C 
BRANCH  20  21
ATOM     21  C   UNL     1       9.656  -1.602  23.324  0.00  0.00    -0.045 A 
ATOM     22  C   UNL     1       9.351  -1.412  21.968  0.00  0.00    +0.007 A 
ATOM     23  C   UNL     1       9.476  -0.148  21.389  0.00  0.00    +0.045 A 
ATOM     24  C   UNL     1       9.896   0.927  22.163  0.00  0.00    +0.117 A 
ATOM     25  C   UNL     1      10.227   0.754  23.502  0.00  0.00    +0.045 A 
ATOM     26  C   UNL     1      10.110  -0.512  24.080  0.00  0.00    +0.007 A 
BRANCH  24  27
ATOM     27  O   UNL     1       9.961   2.153  21.569  0.00  0.00    -0.507 OA
ATOM     28  H   UNL     1       9.235   2.222  20.928  0.00  0.00    +0.292 HD
ENDBRANCH  24  27
ENDBRANCH  20  21
ENDBRANCH   5  20
TORSDOF 10
ENDMDL
MODEL 6
REMARK VINA RESULT:      -6.1      1.724      3.491
REMARK  Name = 
REMARK  10 active torsions:
REMARK  status: ('A' for Active; 'I' for Inactive)
REMARK    1  A    between atoms: N_1  and  CA_2
REMARK    2  A    between atoms: CA_2  and  C_4
REMARK    3  A    between atoms: CA_2  and  C_6
REMARK    4  A    between atoms: C_4  and  O_5
REMARK    5  A    between atoms: C_9  and  C_11
REMARK    6  A    between atoms: C_11  and  C_12
REMARK    7  A    between atoms: C_15  and  O_16
REMARK    8  A    between atoms: N_21  and  C_22
REMARK    9  A    between atoms: C_22  and  C_23
REMARK   10  A    between atoms: C_23  and  O_24
REMARK                            x       y       z     vdW  Elec       q    Type
REMARK                         _______ _______ _______ _____ _____    ______ ____
ROOT
ATOM      1  C   UNL     1       7.037  -3.818  24.800  0.00  0.00    +0.164 C 
ATOM      2  N   UNL     1       7.698  -3.825  23.509  0.00  0.00    -0.272 N 
ATOM      3  C   UNL     1       8.345  -2.614  23.276  0.00  0.00    +0.235 C 
ATOM      4  O   UNL     1       8.856  -2.256  22.229  0.00  0.00    -0.274 OA
ATOM      5  C   UNL     1       8.253  -1.829  24.572  0.00  0.00    +0.146 C 
ATOM      6  N   UNL     1       7.855  -2.867  25.557  0.00  0.00    -0.286 NA
ATOM      7  H   UNL     1       8.700  -3.341  25.874  0.00  0.00    +0.124 HD
ENDROOT
BRANCH   1   8
ATOM      8  CA  UNL     1       6.909  -5.213  25.503  0.00  0.00    +0.112 C 
BRANCH   8   9
ATOM      9  N   UNL     1       5.540  -5.765  25.397  0.00  0.00    -0.323 NA
ATOM     10  H1  UNL     1       4.863  -5.063  25.702  0.00  0.00    +0.119 HD
ATOM     11  H2  UNL     1       5.317  -6.000  24.430  0.00  0.00    +0.119 HD
ENDBRANCH   8   9
BRANCH   8  12
ATOM     12  C   UNL     1       7.342  -5.145  26.983  0.00  0.00    +0.177 C 
BRANCH  12  13
ATOM     13  O   UNL     1       8.765  -5.217  27.090  0.00  0.00    -0.393 OA
ATOM     14  H   UNL     1       9.100  -4.306  27.137  0.00  0.00    +0.209 HD
ENDBRANCH  12  13
ENDBRANCH   8  12
ENDBRANCH   1   8
BRANCH   2  15
ATOM     15  C   UNL     1       7.204  -4.626  22.377  0.00  0.00    +0.229 C 
BRANCH  15  16
ATOM     16  C   UNL     1       5.726  -4.399  22.065  0.00  0.00    +0.322 C 
ATOM     17  O   UNL     1       4.831  -5.163  22.395  0.00  0.00    -0.249 OA
BRANCH  16  18
ATOM     18  O   UNL     1       5.483  -3.231  21.421  0.00  0.00    -0.480 OA
ATOM     19  H   UNL     1       6.314  -2.719  21.383  0.00  0.00    +0.295 HD
ENDBRANCH  16  18
ENDBRANCH  15  16
ENDBRANCH   2  15
BRANCH   5  20
ATOM     20  C   UNL     1       9.569  -1.096  24.873  0.00  0.00    +0.063 C 
BRANCH  20  21
ATOM     21  C   UNL     1       9.495   0.383  24.569  0.00  0.00    -0.045 A 
ATOM     22  C   UNL     1       8.456   1.167  25.090  0.00  0.00    +0.007 A 
ATOM     23  C   UNL     1       8.430   2.544  24.863  0.00  0.00    +0.045 A 
ATOM     24  C   UNL     1       9.445   3.140  24.124  0.00  0.00    +0.117 A 
ATOM     25  C   UNL     1      10.470   2.376  23.577  0.00  0.00    +0.045 A 
ATOM     26  C   UNL     1      10.492   0.998  23.798  0.00  0.00    +0.007 A 
BRANCH  24  27
ATOM     27  O   UNL     1       9.406   4.493  23.964  0.00  0.00    -0.507 OA
ATOM     28  H   UNL     1       8.700   4.708  23.333  0.00  0.00    +0.292 HD
ENDBRANCH  24  27
ENDBRANCH  20  21
ENDBRANCH   5  20
TORSDOF 10
ENDMDL
MODEL 7
REMARK VINA RESULT:      -6.0      2.398      6.726
REMARK  Name = 
REMARK  10 active torsions:
REMARK  status: ('A' for Active; 'I' for Inactive)
REMARK    1  A    between atoms: N_1  and  CA_2
REMARK    2  A    between atoms: CA_2  and  C_4
REMARK    3  A    between atoms: CA_2  and  C_6
REMARK    4  A    between atoms: C_4  and  O_5
REMARK    5  A    between atoms: C_9  and  C_11
REMARK    6  A    between atoms: C_11  and  C_12
REMARK    7  A    between atoms: C_15  and  O_16
REMARK    8  A    between atoms: N_21  and  C_22
REMARK    9  A    between atoms: C_22  and  C_23
REMARK   10  A    between atoms: C_23  and  O_24
REMARK                            x       y       z     vdW  Elec       q    Type
REMARK                         _______ _______ _______ _____ _____    ______ ____
ROOT
ATOM      1  C   UNL     1       8.581  -4.161  24.085  0.00  0.00    +0.164 C 
ATOM      2  N   UNL     1       8.026  -2.832  23.909  0.00  0.00    -0.272 N 
ATOM      3  C   UNL     1       6.882  -2.874  23.114  0.00  0.00    +0.235 C 
ATOM      4  O   UNL     1       6.280  -1.916  22.662  0.00  0.00    -0.274 OA
ATOM      5  C   UNL     1       6.565  -4.344  22.904  0.00  0.00    +0.146 C 
ATOM      6  N   UNL     1       7.394  -5.009  23.942  0.00  0.00    -0.286 NA
ATOM      7  H   UNL     1       6.873  -4.995  24.818  0.00  0.00    +0.124 HD
ENDROOT
BRANCH   1   8
ATOM      8  CA  UNL     1       9.347  -4.401  25.431  0.00  0.00    +0.112 C 
BRANCH   8   9
ATOM      9  N   UNL     1      10.237  -5.582  25.361  0.00  0.00    -0.323 NA
ATOM     10  H1  UNL     1      11.132  -5.363  25.803  0.00  0.00    +0.119 HD
ATOM     11  H2  UNL     1       9.835  -6.370  25.867  0.00  0.00    +0.119 HD
ENDBRANCH   8   9
BRANCH   8  12
ATOM     12  C   UNL     1       8.375  -4.539  26.622  0.00  0.00    +0.177 C 
BRANCH  12  13
ATOM     13  O   UNL     1       8.030  -5.910  26.828  0.00  0.00    -0.393 OA
ATOM     14  H   UNL     1       8.511  -6.434  26.165  0.00  0.00    +0.209 HD
ENDBRANCH  12  13
ENDBRANCH   8  12
ENDBRANCH   1   8
BRANCH   2  15
ATOM     15  C   UNL     1       8.861  -1.622  23.934  0.00  0.00    +0.229 C 
BRANCH  15  16
ATOM     16  C   UNL     1       9.641  -1.389  22.642  0.00  0.00    +0.322 C 
ATOM     17  O   UNL     1      10.718  -1.910  22.388  0.00  0.00    -0.249 OA
BRANCH  16  18
ATOM     18  O   UNL     1       9.003  -0.578  21.764  0.00  0.00    -0.480 OA
ATOM     19  H   UNL     1       8.407   0.013  22.264  0.00  0.00    +0.295 HD
ENDBRANCH  16  18
ENDBRANCH  15  16
ENDBRANCH   2  15
BRANCH   5  20
ATOM     20  C   UNL     1       5.055  -4.605  22.991  0.00  0.00    +0.063 C 
BRANCH  20  21
ATOM     21  C   UNL     1       4.655  -5.289  24.279  0.00  0.00    -0.045 A 
ATOM     22  C   UNL     1       4.420  -6.671  24.309  0.00  0.00    +0.007 A 
ATOM     23  C   UNL     1       4.118  -7.308  25.513  0.00  0.00    +0.045 A 
ATOM     24  C   UNL     1       4.058  -6.569  26.689  0.00  0.00    +0.117 A 
ATOM     25  C   UNL     1       4.262  -5.194  26.676  0.00  0.00    +0.045 A 
ATOM     26  C   UNL     1       4.557  -4.555  25.470  0.00  0.00    +0.007 A 
BRANCH  24  27
ATOM     27  O   UNL     1       3.804  -7.237  27.850  0.00  0.00    -0.507 OA
ATOM     28  H   UNL     1       3.296  -8.037  27.639  0.00  0.00    +0.292 HD
ENDBRANCH  24  27
ENDBRANCH  20  21
ENDBRANCH   5  20
TORSDOF 10
ENDMDL
MODEL 8
REMARK VINA RESULT:      -6.0      2.733      6.966
REMARK  Name = 
REMARK  10 active torsions:
REMARK  status: ('A' for Active; 'I' for Inactive)
REMARK    1  A    between atoms: N_1  and  CA_2
REMARK    2  A    between atoms: CA_2  and  C_4
REMARK    3  A    between atoms: CA_2  and  C_6
REMARK    4  A    between atoms: C_4  and  O_5
REMARK    5  A    between atoms: C_9  and  C_11
REMARK    6  A    between atoms: C_11  and  C_12
REMARK    7  A    between atoms: C_15  and  O_16
REMARK    8  A    between atoms: N_21  and  C_22
REMARK    9  A    between atoms: C_22  and  C_23
REMARK   10  A    between atoms: C_23  and  O_24
REMARK                            x       y       z     vdW  Elec       q    Type
REMARK                         _______ _______ _______ _____ _____    ______ ____
ROOT
ATOM      1  C   UNL     1       8.781  -0.391  25.094  0.00  0.00    +0.164 C 
ATOM      2  N   UNL     1       9.488  -0.528  23.834  0.00  0.00    -0.272 N 
ATOM      3  C   UNL     1       9.852  -1.855  23.610  0.00  0.00    +0.235 C 
ATOM      4  O   UNL     1      10.581  -2.265  22.725  0.00  0.00    -0.274 OA
ATOM      5  C   UNL     1       9.186  -2.667  24.707  0.00  0.00    +0.146 C 
ATOM      6  N   UNL     1       8.181  -1.719  25.253  0.00  0.00    -0.286 NA
ATOM      7  H   UNL     1       7.347  -1.773  24.670  0.00  0.00    +0.124 HD
ENDROOT
BRANCH   1   8
ATOM      8  CA  UNL     1       7.730   0.769  25.158  0.00  0.00    +0.112 C 
BRANCH   8   9
ATOM      9  N   UNL     1       7.696   1.415  26.489  0.00  0.00    -0.323 NA
ATOM     10  H1  UNL     1       8.646   1.655  26.778  0.00  0.00    +0.119 HD
ATOM     11  H2  UNL     1       7.161   2.283  26.458  0.00  0.00    +0.119 HD
ENDBRANCH   8   9
BRANCH   8  12
ATOM     12  C   UNL     1       6.319   0.280  24.768  0.00  0.00    +0.177 C 
BRANCH  12  13
ATOM     13  O   UNL     1       6.269  -0.038  23.375  0.00  0.00    -0.393 OA
ATOM     14  H   UNL     1       5.524  -0.649  23.243  0.00  0.00    +0.209 HD
ENDBRANCH  12  13
ENDBRANCH   8  12
ENDBRANCH   1   8
BRANCH   2  15
ATOM     15  C   UNL     1      10.292   0.563  23.261  0.00  0.00    +0.229 C 
BRANCH  15  16
ATOM     16  C   UNL     1       9.624   1.259  22.078  0.00  0.00    +0.322 C 
ATOM     17  O   UNL     1       8.519   0.965  21.643  0.00  0.00    -0.249 OA
BRANCH  16  18
ATOM     18  O   UNL     1      10.353   2.284  21.572  0.00  0.00    -0.480 OA
ATOM     19  H   UNL     1      10.291   3.042  22.186  0.00  0.00    +0.295 HD
ENDBRANCH  16  18
ENDBRANCH  15  16
ENDBRANCH   2  15
BRANCH   5  20
ATOM     20  C   UNL     1       8.625  -3.987  24.158  0.00  0.00    +0.063 C 
BRANCH  20  21
ATOM     21  C   UNL     1       7.643  -4.640  25.103  0.00  0.00    -0.045 A 
ATOM     22  C   UNL     1       6.378  -5.043  24.651  0.00  0.00    +0.007 A 
ATOM     23  C   UNL     1       5.502  -5.708  25.509  0.00  0.00    +0.045 A 
ATOM     24  C   UNL     1       5.889  -5.978  26.817  0.00  0.00    +0.117 A 
ATOM     25  C   UNL     1       7.128  -5.564  27.292  0.00  0.00    +0.045 A 
ATOM     26  C   UNL     1       8.002  -4.893  26.435  0.00  0.00    +0.007 A 
BRANCH  24  27
ATOM     27  O   UNL     1       5.021  -6.668  27.609  0.00  0.00    -0.507 OA
ATOM     28  H   UNL     1       4.128  -6.314  27.468  0.00  0.00    +0.292 HD
ENDBRANCH  24  27
ENDBRANCH  20  21
ENDBRANCH   5  20
TORSDOF 10
ENDMDL
MODEL 9
REMARK VINA RESULT:      -5.9      2.391      3.356
REMARK  Name = 
REMARK  10 active torsions:
REMARK  status: ('A' for Active; 'I' for Inactive)
REMARK    1  A    between atoms: N_1  and  CA_2
REMARK    2  A    between atoms: CA_2  and  C_4
REMARK    3  A    between atoms: CA_2  and  C_6
REMARK    4  A    between atoms: C_4  and  O_5
REMARK    5  A    between atoms: C_9  and  C_11
REMARK    6  A    between atoms: C_11  and  C_12
REMARK    7  A    between atoms: C_15  and  O_16
REMARK    8  A    between atoms: N_21  and  C_22
REMARK    9  A    between atoms: C_22  and  C_23
REMARK   10  A    between atoms: C_23  and  O_24
REMARK                            x       y       z     vdW  Elec       q    Type
REMARK                         _______ _______ _______ _____ _____    ______ ____
ROOT
ATOM      1  C   UNL     1       5.880  -2.993  24.362  0.00  0.00    +0.164 C 
ATOM      2  N   UNL     1       6.520  -4.295  24.404  0.00  0.00    -0.272 N 
ATOM      3  C   UNL     1       7.776  -4.251  23.802  0.00  0.00    +0.235 C 
ATOM      4  O   UNL     1       8.489  -5.204  23.545  0.00  0.00    -0.274 OA
ATOM      5  C   UNL     1       8.052  -2.787  23.506  0.00  0.00    +0.146 C 
ATOM      6  N   UNL     1       7.032  -2.088  24.330  0.00  0.00    -0.286 NA
ATOM      7  H   UNL     1       7.402  -1.994  25.276  0.00  0.00    +0.124 HD
ENDROOT
BRANCH   1   8
ATOM      8  CA  UNL     1       4.892  -2.687  25.539  0.00  0.00    +0.112 C 
BRANCH   8   9
ATOM      9  N   UNL     1       3.480  -2.899  25.148  0.00  0.00    -0.323 NA
ATOM     10  H1  UNL     1       2.882  -2.825  25.973  0.00  0.00    +0.119 HD
ATOM     11  H2  UNL     1       3.175  -2.183  24.489  0.00  0.00    +0.119 HD
ENDBRANCH   8   9
BRANCH   8  12
ATOM     12  C   UNL     1       5.083  -1.255  26.084  0.00  0.00    +0.177 C 
BRANCH  12  13
ATOM     13  O   UNL     1       3.816  -0.635  26.312  0.00  0.00    -0.393 OA
ATOM     14  H   UNL     1       3.209  -1.323  26.633  0.00  0.00    +0.209 HD
ENDBRANCH  12  13
ENDBRANCH   8  12
ENDBRANCH   1   8
BRANCH   2  15
ATOM     15  C   UNL     1       5.750  -5.549  24.410  0.00  0.00    +0.229 C 
BRANCH  15  16
ATOM     16  C   UNL     1       5.129  -5.894  23.059  0.00  0.00    +0.322 C 
ATOM     17  O   UNL     1       4.037  -5.491  22.683  0.00  0.00    -0.249 OA
BRANCH  16  18
ATOM     18  O   UNL     1       5.929  -6.659  22.276  0.00  0.00    -0.480 OA
ATOM     19  H   UNL     1       6.033  -7.533  22.699  0.00  0.00    +0.295 HD
ENDBRANCH  16  18
ENDBRANCH  15  16
ENDBRANCH   2  15
BRANCH   5  20
ATOM     20  C   UNL     1       9.513  -2.425  23.809  0.00  0.00    +0.063 C 
BRANCH  20  21
ATOM     21  C   UNL     1       9.837  -0.986  23.480  0.00  0.00    -0.045 A 
ATOM     22  C   UNL     1       9.646  -0.491  22.182  0.00  0.00    +0.007 A 
ATOM     23  C   UNL     1       9.882   0.856  21.900  0.00  0.00    +0.045 A 
ATOM     24  C   UNL     1      10.301   1.709  22.913  0.00  0.00    +0.117 A 
ATOM     25  C   UNL     1      10.521   1.232  24.200  0.00  0.00    +0.045 A 
ATOM     26  C   UNL     1      10.292  -0.116  24.481  0.00  0.00    +0.007 A 
BRANCH  24  27
ATOM     27  O   UNL     1      10.477   3.026  22.606  0.00  0.00    -0.507 OA
ATOM     28  H   UNL     1      10.844   3.085  21.709  0.00  0.00    +0.292 HD
ENDBRANCH  24  27
ENDBRANCH  20  21
ENDBRANCH   5  20
TORSDOF 10
ENDMDL
