MODEL 1
REMARK VINA RESULT:      -5.3      0.000      0.000
REMARK  Name = 
REMARK  8 active torsions:
REMARK  status: ('A' for Active; 'I' for Inactive)
REMARK    1  A    between atoms: C_1  and  C_2
REMARK    2  A    between atoms: C_2  and  C_3
REMARK    3  A    between atoms: C_2  and  C_4
REMARK    4  A    between atoms: C_2  and  C_5
REMARK    5  A    between atoms: C_6  and  C_7
REMARK    6  A    between atoms: C_7  and  CA_8
REMARK    7  A    between atoms: CA_8  and  N_10
REMARK    8  A    between atoms: CA_8  and  C_14
REMARK                            x       y       z     vdW  Elec       q    Type
REMARK                         _______ _______ _______ _____ _____    ______ ____
ROOT
ATOM      1  C   UNL     1       6.570  -5.295  24.225  0.00  0.00    +0.145 A 
ATOM      2  O   UNL     1       5.713  -5.991  25.037  0.00  0.00    -0.359 OA
ATOM      3  N   UNL     1       6.185  -6.009  26.331  0.00  0.00    -0.094 NA
ATOM      4  C   UNL     1       7.353  -5.389  26.273  0.00  0.00    +0.035 A 
ATOM      5  O   UNL     1       8.040  -5.083  27.355  0.00  0.00    -0.858 OA
ATOM      6  C   UNL     1       7.686  -4.931  24.971  0.00  0.00    +0.013 A 
ENDROOT
BRANCH   1   8
ATOM      7  C   UNL     1       7.043  -5.842  21.847  0.00  0.00    +0.019 C 
ATOM      8  C   UNL     1       6.075  -5.133  22.807  0.00  0.00    +0.023 C 
ATOM      9  C   UNL     1       4.674  -5.778  22.657  0.00  0.00    +0.019 C 
ATOM     10  C   UNL     1       5.934  -3.658  22.398  0.00  0.00    +0.019 C 
ENDBRANCH   1   8
BRANCH   6  11
ATOM     11  C   UNL     1       8.933  -4.172  24.600  0.00  0.00    +0.100 C 
BRANCH  11  12
ATOM     12  CA  UNL     1       8.738  -2.655  24.656  0.00  0.00    +0.112 C 
BRANCH  12  13
ATOM     13  N   UNL     1       8.575  -2.199  26.092  0.00  0.00    +0.225 N 
ATOM     14  H1  UNL     1       9.470  -1.923  26.545  0.00  0.00    +0.200 HD
ATOM     15  H2  UNL     1       8.005  -2.860  26.618  0.00  0.00    +0.200 HD
ATOM     16  H3  UNL     1       8.059  -1.314  26.071  0.00  0.00    +0.200 HD
ENDBRANCH  12  13
BRANCH  12  17
ATOM     17  C   UNL     1       9.865  -1.851  23.946  0.00  0.00    +0.090 C 
ATOM     18  OXT UNL     1      10.403  -2.521  23.001  0.00  0.00    -0.544 OA
ATOM     19  O   UNL     1      10.102  -0.692  24.353  0.00  0.00    -0.544 OA
ENDBRANCH  12  17
ENDBRANCH  11  12
ENDBRANCH   6  11
TORSDOF 5
ENDMDL
MODEL 2
REMARK VINA RESULT:      -5.2      0.245      1.382
REMARK  Name = 
REMARK  8 active torsions:
REMARK  status: ('A' for Active; 'I' for Inactive)
REMARK    1  A    between atoms: C_1  and  C_2
REMARK    2  A    between atoms: C_2  and  C_3
REMARK    3  A    between atoms: C_2  and  C_4
REMARK    4  A    between atoms: C_2  and  C_5
REMARK    5  A    between atoms: C_6  and  C_7
REMARK    6  A    between atoms: C_7  and  CA_8
REMARK    7  A    between atoms: CA_8  and  N_10
REMARK    8  A    between atoms: CA_8  and  C_14
REMARK                            x       y       z     vdW  Elec       q    Type
REMARK                         _______ _______ _______ _____ _____    ______ ____
ROOT
ATOM      1  C   UNL     1       6.652  -5.187  24.215  0.00  0.00    +0.145 A 
ATOM      2  O   UNL     1       5.865  -5.903  25.078  0.00  0.00    -0.359 OA
ATOM      3  N   UNL     1       6.423  -5.917  26.337  0.00  0.00    -0.094 NA
ATOM      4  C   UNL     1       7.571  -5.274  26.205  0.00  0.00    +0.035 A 
ATOM      5  O   UNL     1       8.324  -4.958  27.240  0.00  0.00    -0.858 OA
ATOM      6  C   UNL     1       7.808  -4.804  24.887  0.00  0.00    +0.013 A 
ENDROOT
BRANCH   1   8
ATOM      7  C   UNL     1       5.859  -3.536  22.534  0.00  0.00    +0.019 C 
ATOM      8  C   UNL     1       6.060  -5.030  22.833  0.00  0.00    +0.023 C 
ATOM      9  C   UNL     1       7.025  -5.619  21.773  0.00  0.00    +0.019 C 
ATOM     10  C   UNL     1       4.722  -5.769  22.680  0.00  0.00    +0.019 C 
ENDBRANCH   1   8
BRANCH   6  11
ATOM     11  C   UNL     1       9.013  -4.019  24.437  0.00  0.00    +0.100 C 
BRANCH  11  12
ATOM     12  CA  UNL     1       8.785  -2.507  24.494  0.00  0.00    +0.112 C 
BRANCH  12  13
ATOM     13  N   UNL     1       8.602  -2.057  25.930  0.00  0.00    +0.225 N 
ATOM     14  H1  UNL     1       9.275  -2.493  26.592  0.00  0.00    +0.200 HD
ATOM     15  H2  UNL     1       7.622  -2.114  26.203  0.00  0.00    +0.200 HD
ATOM     16  H3  UNL     1       8.864  -1.067  25.972  0.00  0.00    +0.200 HD
ENDBRANCH  12  13
BRANCH  12  17
ATOM     17  C   UNL     1       9.900  -1.678  23.794  0.00  0.00    +0.090 C 
ATOM     18  OXT UNL     1      10.229  -0.651  24.478  0.00  0.00    -0.544 OA
ATOM     19  O   UNL     1      10.338  -2.094  22.698  0.00  0.00    -0.544 OA
ENDBRANCH  12  17
ENDBRANCH  11  12
ENDBRANCH   6  11
TORSDOF 5
ENDMDL
MODEL 3
REMARK VINA RESULT:      -5.2      2.293      4.504
REMARK  Name = 
REMARK  8 active torsions:
REMARK  status: ('A' for Active; 'I' for Inactive)
REMARK    1  A    between atoms: C_1  and  C_2
REMARK    2  A    between atoms: C_2  and  C_3
REMARK    3  A    between atoms: C_2  and  C_4
REMARK    4  A    between atoms: C_2  and  C_5
REMARK    5  A    between atoms: C_6  and  C_7
REMARK    6  A    between atoms: C_7  and  CA_8
REMARK    7  A    between atoms: CA_8  and  N_10
REMARK    8  A    between atoms: CA_8  and  C_14
REMARK                            x       y       z     vdW  Elec       q    Type
REMARK                         _______ _______ _______ _____ _____    ______ ____
ROOT
ATOM      1  C   UNL     1       7.469  -3.217  22.852  0.00  0.00    +0.145 A 
ATOM      2  O   UNL     1       6.647  -2.873  21.810  0.00  0.00    -0.359 OA
ATOM      3  N   UNL     1       5.675  -3.832  21.629  0.00  0.00    -0.094 NA
ATOM      4  C   UNL     1       5.962  -4.775  22.512  0.00  0.00    +0.035 A 
ATOM      5  O   UNL     1       5.160  -5.796  22.736  0.00  0.00    -0.858 OA
ATOM      6  C   UNL     1       7.100  -4.478  23.306  0.00  0.00    +0.013 A 
ENDROOT
BRANCH   1   8
ATOM      7  C   UNL     1       8.979  -1.490  21.895  0.00  0.00    +0.019 C 
ATOM      8  C   UNL     1       8.501  -2.166  23.190  0.00  0.00    +0.023 C 
ATOM      9  C   UNL     1       7.877  -1.086  24.109  0.00  0.00    +0.019 C 
ATOM     10  C   UNL     1       9.708  -2.749  23.941  0.00  0.00    +0.019 C 
ENDBRANCH   1   8
BRANCH   6  11
ATOM     11  C   UNL     1       7.653  -5.346  24.407  0.00  0.00    +0.100 C 
BRANCH  11  12
ATOM     12  CA  UNL     1       6.890  -5.183  25.724  0.00  0.00    +0.112 C 
BRANCH  12  13
ATOM     13  N   UNL     1       5.821  -6.250  25.846  0.00  0.00    +0.225 N 
ATOM     14  H1  UNL     1       5.865  -6.972  25.098  0.00  0.00    +0.200 HD
ATOM     15  H2  UNL     1       4.906  -5.828  25.992  0.00  0.00    +0.200 HD
ATOM     16  H3  UNL     1       6.033  -6.796  26.687  0.00  0.00    +0.200 HD
ENDBRANCH  12  13
BRANCH  12  17
ATOM     17  C   UNL     1       7.806  -5.174  26.982  0.00  0.00    +0.090 C 
ATOM     18  OXT UNL     1       7.347  -5.920  27.910  0.00  0.00    -0.544 OA
ATOM     19  O   UNL     1       8.846  -4.478  26.942  0.00  0.00    -0.544 OA
ENDBRANCH  12  17
ENDBRANCH  11  12
ENDBRANCH   6  11
TORSDOF 5
ENDMDL
MODEL 4
REMARK VINA RESULT:      -5.1      2.282      4.902
REMARK  Name = 
REMARK  8 active torsions:
REMARK  status: ('A' for Active; 'I' for Inactive)
REMARK    1  A    between atoms: C_1  and  C_2
REMARK    2  A    between atoms: C_2  and  C_3
REMARK    3  A    between atoms: C_2  and  C_4
REMARK    4  A    between atoms: C_2  and  C_5
REMARK    5  A    between atoms: C_6  and  C_7
REMARK    6  A    between atoms: C_7  and  CA_8
REMARK    7  A    between atoms: CA_8  and  N_10
REMARK    8  A    between atoms: CA_8  and  C_14
REMARK                            x       y       z     vdW  Elec       q    Type
REMARK                         _______ _______ _______ _____ _____    ______ ____
ROOT
ATOM      1  C   UNL     1       7.238  -4.981  24.153  0.00  0.00    +0.145 A 
ATOM      2  O   UNL     1       8.604  -4.902  24.242  0.00  0.00    -0.359 OA
ATOM      3  N   UNL     1       9.017  -5.171  25.528  0.00  0.00    -0.094 NA
ATOM      4  C   UNL     1       7.899  -5.337  26.215  0.00  0.00    +0.035 A 
ATOM      5  O   UNL     1       7.896  -5.757  27.464  0.00  0.00    -0.858 OA
ATOM      6  C   UNL     1       6.726  -5.205  25.426  0.00  0.00    +0.013 A 
ENDROOT
BRANCH   1   8
ATOM      7  C   UNL     1       7.207  -3.470  22.180  0.00  0.00    +0.019 C 
ATOM      8  C   UNL     1       6.705  -4.805  22.750  0.00  0.00    +0.023 C 
ATOM      9  C   UNL     1       7.215  -5.952  21.841  0.00  0.00    +0.019 C 
ATOM     10  C   UNL     1       5.169  -4.842  22.697  0.00  0.00    +0.019 C 
ENDBRANCH   1   8
BRANCH   6  11
ATOM     11  C   UNL     1       5.312  -5.365  25.921  0.00  0.00    +0.100 C 
BRANCH  11  12
ATOM     12  CA  UNL     1       4.919  -6.831  26.117  0.00  0.00    +0.112 C 
BRANCH  12  13
ATOM     13  N   UNL     1       5.023  -7.211  27.580  0.00  0.00    +0.225 N 
ATOM     14  H1  UNL     1       5.983  -7.485  27.872  0.00  0.00    +0.200 HD
ATOM     15  H2  UNL     1       4.285  -7.866  27.836  0.00  0.00    +0.200 HD
ATOM     16  H3  UNL     1       4.864  -6.359  28.126  0.00  0.00    +0.200 HD
ENDBRANCH  12  13
BRANCH  12  17
ATOM     17  C   UNL     1       3.511  -7.183  25.554  0.00  0.00    +0.090 C 
ATOM     18  OXT UNL     1       2.579  -6.618  26.219  0.00  0.00    -0.544 OA
ATOM     19  O   UNL     1       3.452  -7.935  24.555  0.00  0.00    -0.544 OA
ENDBRANCH  12  17
ENDBRANCH  11  12
ENDBRANCH   6  11
TORSDOF 5
ENDMDL
MODEL 5
REMARK VINA RESULT:      -5.1      2.334      4.097
REMARK  Name = 
REMARK  8 active torsions:
REMARK  status: ('A' for Active; 'I' for Inactive)
REMARK    1  A    between atoms: C_1  and  C_2
REMARK    2  A    between atoms: C_2  and  C_3
REMARK    3  A    between atoms: C_2  and  C_4
REMARK    4  A    between atoms: C_2  and  C_5
REMARK    5  A    between atoms: C_6  and  C_7
REMARK    6  A    between atoms: C_7  and  CA_8
REMARK    7  A    between atoms: CA_8  and  N_10
REMARK    8  A    between atoms: CA_8  and  C_14
REMARK                            x       y       z     vdW  Elec       q    Type
REMARK                         _______ _______ _______ _____ _____    ______ ____
ROOT
ATOM      1  C   UNL     1       7.082  -5.128  26.177  0.00  0.00    +0.145 A 
ATOM      2  O   UNL     1       7.942  -4.962  27.232  0.00  0.00    -0.359 OA
ATOM      3  N   UNL     1       9.203  -4.644  26.778  0.00  0.00    -0.094 NA
ATOM      4  C   UNL     1       9.109  -4.692  25.459  0.00  0.00    +0.035 A 
ATOM      5  O   UNL     1      10.089  -4.299  24.670  0.00  0.00    -0.858 OA
ATOM      6  C   UNL     1       7.808  -5.020  24.997  0.00  0.00    +0.013 A 
ENDROOT
BRANCH   1   8
ATOM      7  C   UNL     1       5.597  -5.668  28.096  0.00  0.00    +0.019 C 
ATOM      8  C   UNL     1       5.649  -5.375  26.588  0.00  0.00    +0.023 C 
ATOM      9  C   UNL     1       4.791  -4.117  26.301  0.00  0.00    +0.019 C 
ATOM     10  C   UNL     1       5.009  -6.538  25.815  0.00  0.00    +0.019 C 
ENDBRANCH   1   8
BRANCH   6  11
ATOM     11  C   UNL     1       7.390  -5.124  23.553  0.00  0.00    +0.100 C 
BRANCH  11  12
ATOM     12  CA  UNL     1       6.713  -3.850  23.042  0.00  0.00    +0.112 C 
BRANCH  12  13
ATOM     13  N   UNL     1       7.710  -2.990  22.293  0.00  0.00    +0.225 N 
ATOM     14  H1  UNL     1       8.418  -3.538  21.764  0.00  0.00    +0.200 HD
ATOM     15  H2  UNL     1       8.085  -2.262  22.899  0.00  0.00    +0.200 HD
ATOM     16  H3  UNL     1       7.197  -2.516  21.543  0.00  0.00    +0.200 HD
ENDBRANCH  12  13
BRANCH  12  17
ATOM     17  C   UNL     1       5.451  -4.117  22.172  0.00  0.00    +0.090 C 
ATOM     18  OXT UNL     1       5.711  -4.048  20.924  0.00  0.00    -0.544 OA
ATOM     19  O   UNL     1       4.376  -4.368  22.762  0.00  0.00    -0.544 OA
ENDBRANCH  12  17
ENDBRANCH  11  12
ENDBRANCH   6  11
TORSDOF 5
ENDMDL
MODEL 6
REMARK VINA RESULT:      -5.0      2.029      2.484
REMARK  Name = 
REMARK  8 active torsions:
REMARK  status: ('A' for Active; 'I' for Inactive)
REMARK    1  A    between atoms: C_1  and  C_2
REMARK    2  A    between atoms: C_2  and  C_3
REMARK    3  A    between atoms: C_2  and  C_4
REMARK    4  A    between atoms: C_2  and  C_5
REMARK    5  A    between atoms: C_6  and  C_7
REMARK    6  A    between atoms: C_7  and  CA_8
REMARK    7  A    between atoms: CA_8  and  N_10
REMARK    8  A    between atoms: CA_8  and  C_14
REMARK                            x       y       z     vdW  Elec       q    Type
REMARK                         _______ _______ _______ _____ _____    ______ ____
ROOT
ATOM      1  C   UNL     1       6.349  -5.616  25.533  0.00  0.00    +0.145 A 
ATOM      2  O   UNL     1       6.344  -5.960  26.860  0.00  0.00    -0.359 OA
ATOM      3  N   UNL     1       7.551  -5.643  27.443  0.00  0.00    -0.094 NA
ATOM      4  C   UNL     1       8.294  -5.181  26.451  0.00  0.00    +0.035 A 
ATOM      5  O   UNL     1       9.478  -4.637  26.653  0.00  0.00    -0.858 OA
ATOM      6  C   UNL     1       7.620  -5.158  25.202  0.00  0.00    +0.013 A 
ENDROOT
BRANCH   1   8
ATOM      7  C   UNL     1       4.211  -6.881  25.612  0.00  0.00    +0.019 C 
ATOM      8  C   UNL     1       5.024  -5.831  24.839  0.00  0.00    +0.023 C 
ATOM      9  C   UNL     1       4.220  -4.507  24.811  0.00  0.00    +0.019 C 
ATOM     10  C   UNL     1       5.192  -6.283  23.380  0.00  0.00    +0.019 C 
ENDBRANCH   1   8
BRANCH   6  11
ATOM     11  C   UNL     1       8.197  -4.663  23.901  0.00  0.00    +0.100 C 
BRANCH  11  12
ATOM     12  CA  UNL     1       8.264  -3.135  23.830  0.00  0.00    +0.112 C 
BRANCH  12  13
ATOM     13  N   UNL     1       9.680  -2.660  24.089  0.00  0.00    +0.225 N 
ATOM     14  H1  UNL     1       9.891  -2.510  25.097  0.00  0.00    +0.200 HD
ATOM     15  H2  UNL     1       9.918  -1.885  23.473  0.00  0.00    +0.200 HD
ATOM     16  H3  UNL     1      10.307  -3.434  23.848  0.00  0.00    +0.200 HD
ENDBRANCH  12  13
BRANCH  12  17
ATOM     17  C   UNL     1       7.720  -2.545  22.498  0.00  0.00    +0.090 C 
ATOM     18  OXT UNL     1       8.576  -1.788  21.928  0.00  0.00    -0.544 OA
ATOM     19  O   UNL     1       6.564  -2.870  22.144  0.00  0.00    -0.544 OA
ENDBRANCH  12  17
ENDBRANCH  11  12
ENDBRANCH   6  11
TORSDOF 5
ENDMDL
MODEL 7
REMARK VINA RESULT:      -5.0      3.580      5.032
REMARK  Name = 
REMARK  8 active torsions:
REMARK  status: ('A' for Active; 'I' for Inactive)
REMARK    1  A    between atoms: C_1  and  C_2
REMARK    2  A    between atoms: C_2  and  C_3
REMARK    3  A    between atoms: C_2  and  C_4
REMARK    4  A    between atoms: C_2  and  C_5
REMARK    5  A    between atoms: C_6  and  C_7
REMARK    6  A    between atoms: C_7  and  CA_8
REMARK    7  A    between atoms: CA_8  and  N_10
REMARK    8  A    between atoms: CA_8  and  C_14
REMARK                            x       y       z     vdW  Elec       q    Type
REMARK                         _______ _______ _______ _____ _____    ______ ____
ROOT
ATOM      1  C   UNL     1       8.239  -1.571  24.567  0.00  0.00    +0.145 A 
ATOM      2  O   UNL     1       8.794  -2.780  24.894  0.00  0.00    -0.359 OA
ATOM      3  N   UNL     1       9.841  -3.073  24.048  0.00  0.00    -0.094 NA
ATOM      4  C   UNL     1       9.860  -2.077  23.178  0.00  0.00    +0.035 A 
ATOM      5  O   UNL     1      10.827  -1.935  22.293  0.00  0.00    -0.858 OA
ATOM      6  C   UNL     1       8.861  -1.098  23.417  0.00  0.00    +0.013 A 
ENDROOT
BRANCH   1   8
ATOM      7  C   UNL     1       6.935  -2.196  26.589  0.00  0.00    +0.019 C 
ATOM      8  C   UNL     1       7.150  -1.120  25.513  0.00  0.00    +0.023 C 
ATOM      9  C   UNL     1       7.567   0.199  26.212  0.00  0.00    +0.019 C 
ATOM     10  C   UNL     1       5.822  -0.842  24.790  0.00  0.00    +0.019 C 
ENDBRANCH   1   8
BRANCH   6  11
ATOM     11  C   UNL     1       8.652   0.159  22.611  0.00  0.00    +0.100 C 
BRANCH  11  12
ATOM     12  CA  UNL     1       9.890   1.060  22.596  0.00  0.00    +0.112 C 
BRANCH  12  13
ATOM     13  N   UNL     1       9.713   2.175  21.584  0.00  0.00    +0.225 N 
ATOM     14  H1  UNL     1       9.346   3.056  21.995  0.00  0.00    +0.200 HD
ATOM     15  H2  UNL     1       9.218   1.838  20.759  0.00  0.00    +0.200 HD
ATOM     16  H3  UNL     1      10.650   2.452  21.274  0.00  0.00    +0.200 HD
ENDBRANCH  12  13
BRANCH  12  17
ATOM     17  C   UNL     1      10.263   1.636  23.992  0.00  0.00    +0.090 C 
ATOM     18  OXT UNL     1      11.293   1.063  24.482  0.00  0.00    -0.544 OA
ATOM     19  O   UNL     1       9.554   2.559  24.452  0.00  0.00    -0.544 OA
ENDBRANCH  12  17
ENDBRANCH  11  12
ENDBRANCH   6  11
TORSDOF 5
ENDMDL
MODEL 8
REMARK VINA RESULT:      -4.9      3.332      6.116
REMARK  Name = 
REMARK  8 active torsions:
REMARK  status: ('A' for Active; 'I' for Inactive)
REMARK    1  A    between atoms: C_1  and  C_2
REMARK    2  A    between atoms: C_2  and  C_3
REMARK    3  A    between atoms: C_2  and  C_4
REMARK    4  A    between atoms: C_2  and  C_5
REMARK    5  A    between atoms: C_6  and  C_7
REMARK    6  A    between atoms: C_7  and  CA_8
REMARK    7  A    between atoms: CA_8  and  N_10
REMARK    8  A    between atoms: CA_8  and  C_14
REMARK                            x       y       z     vdW  Elec       q    Type
REMARK                         _______ _______ _______ _____ _____    ______ ____
ROOT
ATOM      1  C   UNL     1       8.319   1.326  23.861  0.00  0.00    +0.145 A 
ATOM      2  O   UNL     1       7.515   2.309  24.377  0.00  0.00    -0.359 OA
ATOM      3  N   UNL     1       6.304   1.782  24.769  0.00  0.00    -0.094 NA
ATOM      4  C   UNL     1       6.362   0.507  24.421  0.00  0.00    +0.035 A 
ATOM      5  O   UNL     1       5.433  -0.360  24.770  0.00  0.00    -0.858 OA
ATOM      6  C   UNL     1       7.591   0.143  23.812  0.00  0.00    +0.013 A 
ENDROOT
BRANCH   1   8
ATOM      7  C   UNL     1       9.937   1.608  21.995  0.00  0.00    +0.019 C 
ATOM      8  C   UNL     1       9.710   1.797  23.503  0.00  0.00    +0.023 C 
ATOM      9  C   UNL     1       9.863   3.302  23.839  0.00  0.00    +0.019 C 
ATOM     10  C   UNL     1      10.802   1.051  24.286  0.00  0.00    +0.019 C 
ENDBRANCH   1   8
BRANCH   6  11
ATOM     11  C   UNL     1       7.959  -1.238  23.335  0.00  0.00    +0.100 C 
BRANCH  11  12
ATOM     12  CA  UNL     1       8.524  -2.117  24.454  0.00  0.00    +0.112 C 
BRANCH  12  13
ATOM     13  N   UNL     1       7.422  -2.958  25.067  0.00  0.00    +0.225 N 
ATOM     14  H1  UNL     1       6.881  -3.509  24.370  0.00  0.00    +0.200 HD
ATOM     15  H2  UNL     1       6.864  -2.404  25.714  0.00  0.00    +0.200 HD
ATOM     16  H3  UNL     1       7.875  -3.692  25.621  0.00  0.00    +0.200 HD
ENDBRANCH  12  13
BRANCH  12  17
ATOM     17  C   UNL     1       9.716  -3.012  24.006  0.00  0.00    +0.090 C 
ATOM     18  OXT UNL     1      10.414  -2.453  23.095  0.00  0.00    -0.544 OA
ATOM     19  O   UNL     1       9.858  -4.121  24.569  0.00  0.00    -0.544 OA
ENDBRANCH  12  17
ENDBRANCH  11  12
ENDBRANCH   6  11
TORSDOF 5
ENDMDL
MODEL 9
REMARK VINA RESULT:      -4.8      3.204      5.478
REMARK  Name = 
REMARK  8 active torsions:
REMARK  status: ('A' for Active; 'I' for Inactive)
REMARK    1  A    between atoms: C_1  and  C_2
REMARK    2  A    between atoms: C_2  and  C_3
REMARK    3  A    between atoms: C_2  and  C_4
REMARK    4  A    between atoms: C_2  and  C_5
REMARK    5  A    between atoms: C_6  and  C_7
REMARK    6  A    between atoms: C_7  and  CA_8
REMARK    7  A    between atoms: CA_8  and  N_10
REMARK    8  A    between atoms: CA_8  and  C_14
REMARK                            x       y       z     vdW  Elec       q    Type
REMARK                         _______ _______ _______ _____ _____    ______ ____
ROOT
ATOM      1  C   UNL     1       9.482  -0.346  23.425  0.00  0.00    +0.145 A 
ATOM      2  O   UNL     1      10.348  -0.857  22.493  0.00  0.00    -0.359 OA
ATOM      3  N   UNL     1      10.559  -2.199  22.719  0.00  0.00    -0.094 NA
ATOM      4  C   UNL     1       9.880  -2.467  23.822  0.00  0.00    +0.035 A 
ATOM      5  O   UNL     1       9.724  -3.696  24.271  0.00  0.00    -0.858 OA
ATOM      6  C   UNL     1       9.193  -1.342  24.350  0.00  0.00    +0.013 A 
ENDROOT
BRANCH   1   8
ATOM      7  C   UNL     1       9.940   1.652  22.019  0.00  0.00    +0.019 C 
ATOM      8  C   UNL     1       9.110   1.100  23.188  0.00  0.00    +0.023 C 
ATOM      9  C   UNL     1       7.608   1.207  22.821  0.00  0.00    +0.019 C 
ATOM     10  C   UNL     1       9.330   1.974  24.433  0.00  0.00    +0.019 C 
ENDBRANCH   1   8
BRANCH   6  11
ATOM     11  C   UNL     1       8.321  -1.344  25.578  0.00  0.00    +0.100 C 
BRANCH  11  12
ATOM     12  CA  UNL     1       7.063  -2.200  25.406  0.00  0.00    +0.112 C 
BRANCH  12  13
ATOM     13  N   UNL     1       6.488  -2.566  26.760  0.00  0.00    +0.225 N 
ATOM     14  H1  UNL     1       7.017  -3.318  27.247  0.00  0.00    +0.200 HD
ATOM     15  H2  UNL     1       5.482  -2.711  26.697  0.00  0.00    +0.200 HD
ATOM     16  H3  UNL     1       6.634  -1.762  27.378  0.00  0.00    +0.200 HD
ENDBRANCH  12  13
BRANCH  12  17
ATOM     17  C   UNL     1       5.977  -1.544  24.505  0.00  0.00    +0.090 C 
ATOM     18  OXT UNL     1       5.936  -2.078  23.346  0.00  0.00    -0.544 OA
ATOM     19  O   UNL     1       5.291  -0.619  24.995  0.00  0.00    -0.544 OA
ENDBRANCH  12  17
ENDBRANCH  11  12
ENDBRANCH   6  11
TORSDOF 5
ENDMDL
