MODEL 1
REMARK VINA RESULT:      -4.8      0.000      0.000
REMARK  Name = 
REMARK  10 active torsions:
REMARK  status: ('A' for Active; 'I' for Inactive)
REMARK    1  A    between atoms: O_1  and  C_2
REMARK    2  A    between atoms: C_2  and  C_3
REMARK    3  A    between atoms: C_3  and  O_5
REMARK    4  A    between atoms: C_3  and  C_6
REMARK    5  A    between atoms: C_6  and  O_8
REMARK    6  A    between atoms: C_6  and  C_9
REMARK    7  A    between atoms: C_9  and  C_10
REMARK    8  A    between atoms: C_10  and  O_12
REMARK    9  A    between atoms: C_10  and  C_13
REMARK   10  A    between atoms: C_13  and  O_14
REMARK                            x       y       z     vdW  Elec       q    Type
REMARK                         _______ _______ _______ _____ _____    ______ ____
ROOT
ATOM      1  C   UNL     1      11.036   4.795  23.742  0.00  0.00    +0.148 C 
ENDROOT
BRANCH   1   2
ATOM      2  O   UNL     1       9.807   5.146  23.082  0.00  0.00    -0.389 OA
ATOM      3  H   UNL     1       9.358   4.331  22.782  0.00  0.00    +0.210 HD
ENDBRANCH   1   2
BRANCH   1   4
ATOM      4  C   UNL     1      12.106   5.874  23.469  0.00  0.00    +0.168 C 
BRANCH   4   5
ATOM      5  O   UNL     1      12.747   6.223  24.713  0.00  0.00    -0.387 OA
ATOM      6  H   UNL     1      12.116   6.031  25.430  0.00  0.00    +0.210 HD
ENDBRANCH   4   5
BRANCH   4   7
ATOM      7  C   UNL     1      13.180   5.453  22.461  0.00  0.00    +0.189 C 
BRANCH   7   8
ATOM      8  O   UNL     1      14.402   5.113  23.119  0.00  0.00    -0.392 OA
ATOM      9  H   UNL     1      14.685   4.257  22.753  0.00  0.00    +0.210 HD
ENDBRANCH   7   8
ENDBRANCH   4   7
ENDBRANCH   1   4
BRANCH   1  10
ATOM     10  C   UNL     1      11.402   3.347  23.374  0.00  0.00    +0.076 C 
BRANCH  10  11
ATOM     11  C   UNL     1      10.309   2.290  23.552  0.00  0.00    +0.225 C 
BRANCH  11  12
ATOM     12  C   UNL     1       9.781   1.719  22.230  0.00  0.00    +0.334 C 
ATOM     13  O   UNL     1      10.003   0.563  21.874  0.00  0.00    -0.248 OA
BRANCH  12  14
ATOM     14  O   UNL     1       8.986   2.549  21.528  0.00  0.00    -0.479 OA
ATOM     15  H   UNL     1       8.168   2.144  21.180  0.00  0.00    +0.295 HD
ENDBRANCH  12  14
ENDBRANCH  11  12
BRANCH  11  16
ATOM     16  O   UNL     1      10.790   1.262  24.417  0.00  0.00    -0.381 OA
ATOM     17  H   UNL     1      10.723   1.609  25.329  0.00  0.00    +0.211 HD
ENDBRANCH  11  16
ENDBRANCH  10  11
ENDBRANCH   1  10
TORSDOF 10
ENDMDL
MODEL 2
REMARK VINA RESULT:      -4.6      3.805      5.179
REMARK  Name = 
REMARK  10 active torsions:
REMARK  status: ('A' for Active; 'I' for Inactive)
REMARK    1  A    between atoms: O_1  and  C_2
REMARK    2  A    between atoms: C_2  and  C_3
REMARK    3  A    between atoms: C_3  and  O_5
REMARK    4  A    between atoms: C_3  and  C_6
REMARK    5  A    between atoms: C_6  and  O_8
REMARK    6  A    between atoms: C_6  and  C_9
REMARK    7  A    between atoms: C_9  and  C_10
REMARK    8  A    between atoms: C_10  and  O_12
REMARK    9  A    between atoms: C_10  and  C_13
REMARK   10  A    between atoms: C_13  and  O_14
REMARK                            x       y       z     vdW  Elec       q    Type
REMARK                         _______ _______ _______ _____ _____    ______ ____
ROOT
ATOM      1  C   UNL     1       9.501   1.047  21.809  0.00  0.00    +0.148 C 
ENDROOT
BRANCH   1   2
ATOM      2  O   UNL     1      10.293   2.218  21.542  0.00  0.00    -0.389 OA
ATOM      3  H   UNL     1      10.097   2.541  20.641  0.00  0.00    +0.210 HD
ENDBRANCH   1   2
BRANCH   1   4
ATOM      4  C   UNL     1       8.025   1.449  22.022  0.00  0.00    +0.168 C 
BRANCH   4   5
ATOM      5  O   UNL     1       7.327   0.353  22.647  0.00  0.00    -0.387 OA
ATOM      6  H   UNL     1       7.665  -0.471  22.252  0.00  0.00    +0.210 HD
ENDBRANCH   4   5
BRANCH   4   7
ATOM      7  C   UNL     1       7.835   2.707  22.877  0.00  0.00    +0.189 C 
BRANCH   7   8
ATOM      8  O   UNL     1       8.021   3.893  22.102  0.00  0.00    -0.392 OA
ATOM      9  H   UNL     1       8.362   4.571  22.711  0.00  0.00    +0.210 HD
ENDBRANCH   7   8
ENDBRANCH   4   7
ENDBRANCH   1   4
BRANCH   1  10
ATOM     10  C   UNL     1      10.170   0.240  22.934  0.00  0.00    +0.076 C 
BRANCH  10  11
ATOM     11  C   UNL     1      10.398  -1.252  22.675  0.00  0.00    +0.225 C 
BRANCH  11  12
ATOM     12  C   UNL     1       9.714  -2.168  23.695  0.00  0.00    +0.334 C 
ATOM     13  O   UNL     1      10.153  -3.279  23.985  0.00  0.00    -0.248 OA
BRANCH  12  14
ATOM     14  O   UNL     1       8.643  -1.633  24.314  0.00  0.00    -0.479 OA
ATOM     15  H   UNL     1       8.828  -1.215  25.177  0.00  0.00    +0.295 HD
ENDBRANCH  12  14
ENDBRANCH  11  12
BRANCH  11  16
ATOM     16  O   UNL     1      10.001  -1.559  21.339  0.00  0.00    -0.381 OA
ATOM     17  H   UNL     1       9.069  -1.272  21.250  0.00  0.00    +0.211 HD
ENDBRANCH  11  16
ENDBRANCH  10  11
ENDBRANCH   1  10
TORSDOF 10
ENDMDL
MODEL 3
REMARK VINA RESULT:      -4.5      3.153      4.400
REMARK  Name = 
REMARK  10 active torsions:
REMARK  status: ('A' for Active; 'I' for Inactive)
REMARK    1  A    between atoms: O_1  and  C_2
REMARK    2  A    between atoms: C_2  and  C_3
REMARK    3  A    between atoms: C_3  and  O_5
REMARK    4  A    between atoms: C_3  and  C_6
REMARK    5  A    between atoms: C_6  and  O_8
REMARK    6  A    between atoms: C_6  and  C_9
REMARK    7  A    between atoms: C_9  and  C_10
REMARK    8  A    between atoms: C_10  and  O_12
REMARK    9  A    between atoms: C_10  and  C_13
REMARK   10  A    between atoms: C_13  and  O_14
REMARK                            x       y       z     vdW  Elec       q    Type
REMARK                         _______ _______ _______ _____ _____    ______ ____
ROOT
ATOM      1  C   UNL     1      10.083   1.919  24.068  0.00  0.00    +0.148 C 
ENDROOT
BRANCH   1   2
ATOM      2  O   UNL     1       9.034   1.934  25.052  0.00  0.00    -0.389 OA
ATOM      3  H   UNL     1       9.357   2.377  25.860  0.00  0.00    +0.210 HD
ENDBRANCH   1   2
BRANCH   1   4
ATOM      4  C   UNL     1       9.571   2.532  22.746  0.00  0.00    +0.168 C 
BRANCH   4   5
ATOM      5  O   UNL     1      10.665   2.604  21.809  0.00  0.00    -0.387 OA
ATOM      6  H   UNL     1      11.454   2.242  22.253  0.00  0.00    +0.210 HD
ENDBRANCH   4   5
BRANCH   4   7
ATOM      7  C   UNL     1       8.419   1.756  22.098  0.00  0.00    +0.189 C 
BRANCH   7   8
ATOM      8  O   UNL     1       8.871   1.002  20.972  0.00  0.00    -0.392 OA
ATOM      9  H   UNL     1       9.842   1.068  20.967  0.00  0.00    +0.210 HD
ENDBRANCH   7   8
ENDBRANCH   4   7
ENDBRANCH   1   4
BRANCH   1  10
ATOM     10  C   UNL     1      10.674   0.501  23.992  0.00  0.00    +0.076 C 
BRANCH  10  11
ATOM     11  C   UNL     1       9.681  -0.665  24.028  0.00  0.00    +0.225 C 
BRANCH  11  12
ATOM     12  C   UNL     1      10.122  -1.877  23.199  0.00  0.00    +0.334 C 
ATOM     13  O   UNL     1      10.245  -3.000  23.685  0.00  0.00    -0.248 OA
BRANCH  12  14
ATOM     14  O   UNL     1      10.284  -1.640  21.883  0.00  0.00    -0.479 OA
ATOM     15  H   UNL     1      10.538  -0.725  21.654  0.00  0.00    +0.295 HD
ENDBRANCH  12  14
ENDBRANCH  11  12
BRANCH  11  16
ATOM     16  O   UNL     1       9.426  -1.018  25.386  0.00  0.00    -0.381 OA
ATOM     17  H   UNL     1       8.761  -0.382  25.721  0.00  0.00    +0.211 HD
ENDBRANCH  11  16
ENDBRANCH  10  11
ENDBRANCH   1  10
TORSDOF 10
ENDMDL
MODEL 4
REMARK VINA RESULT:      -4.5      3.974      6.244
REMARK  Name = 
REMARK  10 active torsions:
REMARK  status: ('A' for Active; 'I' for Inactive)
REMARK    1  A    between atoms: O_1  and  C_2
REMARK    2  A    between atoms: C_2  and  C_3
REMARK    3  A    between atoms: C_3  and  O_5
REMARK    4  A    between atoms: C_3  and  C_6
REMARK    5  A    between atoms: C_6  and  O_8
REMARK    6  A    between atoms: C_6  and  C_9
REMARK    7  A    between atoms: C_9  and  C_10
REMARK    8  A    between atoms: C_10  and  O_12
REMARK    9  A    between atoms: C_10  and  C_13
REMARK   10  A    between atoms: C_13  and  O_14
REMARK                            x       y       z     vdW  Elec       q    Type
REMARK                         _______ _______ _______ _____ _____    ______ ____
ROOT
ATOM      1  C   UNL     1      10.315  -1.288  22.736  0.00  0.00    +0.148 C 
ENDROOT
BRANCH   1   2
ATOM      2  O   UNL     1      10.004  -1.614  21.370  0.00  0.00    -0.389 OA
ATOM      3  H   UNL     1      10.391  -2.484  21.150  0.00  0.00    +0.210 HD
ENDBRANCH   1   2
BRANCH   1   4
ATOM      4  C   UNL     1       9.463  -2.154  23.689  0.00  0.00    +0.168 C 
BRANCH   4   5
ATOM      5  O   UNL     1       8.801  -1.293  24.638  0.00  0.00    -0.387 OA
ATOM      6  H   UNL     1       7.884  -1.173  24.332  0.00  0.00    +0.210 HD
ENDBRANCH   4   5
BRANCH   4   7
ATOM      7  C   UNL     1       8.408  -3.013  22.983  0.00  0.00    +0.189 C 
BRANCH   7   8
ATOM      8  O   UNL     1       7.391  -2.202  22.393  0.00  0.00    -0.392 OA
ATOM      9  H   UNL     1       7.745  -1.296  22.360  0.00  0.00    +0.210 HD
ENDBRANCH   7   8
ENDBRANCH   4   7
ENDBRANCH   1   4
BRANCH   1  10
ATOM     10  C   UNL     1      10.224   0.237  22.917  0.00  0.00    +0.076 C 
BRANCH  10  11
ATOM     11  C   UNL     1       9.503   1.022  21.817  0.00  0.00    +0.225 C 
BRANCH  11  12
ATOM     12  C   UNL     1       8.033   1.319  22.134  0.00  0.00    +0.334 C 
ATOM     13  O   UNL     1       7.332   0.557  22.797  0.00  0.00    -0.248 OA
BRANCH  12  14
ATOM     14  O   UNL     1       7.589   2.517  21.705  0.00  0.00    -0.479 OA
ATOM     15  H   UNL     1       7.612   2.646  20.737  0.00  0.00    +0.295 HD
ENDBRANCH  12  14
ENDBRANCH  11  12
BRANCH  11  16
ATOM     16  O   UNL     1      10.235   2.215  21.539  0.00  0.00    -0.381 OA
ATOM     17  H   UNL     1      10.704   2.065  20.693  0.00  0.00    +0.211 HD
ENDBRANCH  11  16
ENDBRANCH  10  11
ENDBRANCH   1  10
TORSDOF 10
ENDMDL
MODEL 5
REMARK VINA RESULT:      -4.4      5.948      8.756
REMARK  Name = 
REMARK  10 active torsions:
REMARK  status: ('A' for Active; 'I' for Inactive)
REMARK    1  A    between atoms: O_1  and  C_2
REMARK    2  A    between atoms: C_2  and  C_3
REMARK    3  A    between atoms: C_3  and  O_5
REMARK    4  A    between atoms: C_3  and  C_6
REMARK    5  A    between atoms: C_6  and  O_8
REMARK    6  A    between atoms: C_6  and  C_9
REMARK    7  A    between atoms: C_9  and  C_10
REMARK    8  A    between atoms: C_10  and  O_12
REMARK    9  A    between atoms: C_10  and  C_13
REMARK   10  A    between atoms: C_13  and  O_14
REMARK                            x       y       z     vdW  Elec       q    Type
REMARK                         _______ _______ _______ _____ _____    ______ ____
ROOT
ATOM      1  C   UNL     1       8.233  -4.298  24.140  0.00  0.00    +0.148 C 
ENDROOT
BRANCH   1   2
ATOM      2  O   UNL     1       6.814  -4.143  24.318  0.00  0.00    -0.389 OA
ATOM      3  H   UNL     1       6.620  -3.219  24.568  0.00  0.00    +0.210 HD
ENDBRANCH   1   2
BRANCH   1   4
ATOM      4  C   UNL     1       8.798  -5.244  25.221  0.00  0.00    +0.168 C 
BRANCH   4   5
ATOM      5  O   UNL     1      10.226  -5.356  25.046  0.00  0.00    -0.387 OA
ATOM      6  H   UNL     1      10.480  -4.746  24.330  0.00  0.00    +0.210 HD
ENDBRANCH   4   5
BRANCH   4   7
ATOM      7  C   UNL     1       8.512  -4.797  26.659  0.00  0.00    +0.189 C 
BRANCH   7   8
ATOM      8  O   UNL     1       7.969  -5.867  27.435  0.00  0.00    -0.392 OA
ATOM      9  H   UNL     1       7.001  -5.773  27.398  0.00  0.00    +0.210 HD
ENDBRANCH   7   8
ENDBRANCH   4   7
ENDBRANCH   1   4
BRANCH   1  10
ATOM     10  C   UNL     1       8.876  -2.904  24.034  0.00  0.00    +0.076 C 
BRANCH  10  11
ATOM     11  C   UNL     1       8.491  -2.056  22.818  0.00  0.00    +0.225 C 
BRANCH  11  12
ATOM     12  C   UNL     1       9.694  -1.503  22.045  0.00  0.00    +0.334 C 
ATOM     13  O   UNL     1      10.853  -1.801  22.325  0.00  0.00    -0.248 OA
BRANCH  12  14
ATOM     14  O   UNL     1       9.384  -0.733  20.983  0.00  0.00    -0.479 OA
ATOM     15  H   UNL     1       8.706  -1.104  20.386  0.00  0.00    +0.295 HD
ENDBRANCH  12  14
ENDBRANCH  11  12
BRANCH  11  16
ATOM     16  O   UNL     1       7.624  -2.814  21.975  0.00  0.00    -0.381 OA
ATOM     17  H   UNL     1       7.496  -2.288  21.160  0.00  0.00    +0.211 HD
ENDBRANCH  11  16
ENDBRANCH  10  11
ENDBRANCH   1  10
TORSDOF 10
ENDMDL
MODEL 6
REMARK VINA RESULT:      -4.4      8.169     10.429
REMARK  Name = 
REMARK  10 active torsions:
REMARK  status: ('A' for Active; 'I' for Inactive)
REMARK    1  A    between atoms: O_1  and  C_2
REMARK    2  A    between atoms: C_2  and  C_3
REMARK    3  A    between atoms: C_3  and  O_5
REMARK    4  A    between atoms: C_3  and  C_6
REMARK    5  A    between atoms: C_6  and  O_8
REMARK    6  A    between atoms: C_6  and  C_9
REMARK    7  A    between atoms: C_9  and  C_10
REMARK    8  A    between atoms: C_10  and  O_12
REMARK    9  A    between atoms: C_10  and  C_13
REMARK   10  A    between atoms: C_13  and  O_14
REMARK                            x       y       z     vdW  Elec       q    Type
REMARK                         _______ _______ _______ _____ _____    ______ ____
ROOT
ATOM      1  C   UNL     1       7.873  -5.504  26.071  0.00  0.00    +0.148 C 
ENDROOT
BRANCH   1   2
ATOM      2  O   UNL     1       7.929  -5.788  27.480  0.00  0.00    -0.389 OA
ATOM      3  H   UNL     1       7.728  -4.974  27.980  0.00  0.00    +0.210 HD
ENDBRANCH   1   2
BRANCH   1   4
ATOM      4  C   UNL     1       9.140  -4.733  25.640  0.00  0.00    +0.168 C 
BRANCH   4   5
ATOM      5  O   UNL     1      10.187  -5.680  25.343  0.00  0.00    -0.387 OA
ATOM      6  H   UNL     1      10.735  -5.770  26.143  0.00  0.00    +0.210 HD
ENDBRANCH   4   5
BRANCH   4   7
ATOM      7  C   UNL     1       8.938  -3.824  24.423  0.00  0.00    +0.189 C 
BRANCH   7   8
ATOM      8  O   UNL     1      10.165  -3.206  24.029  0.00  0.00    -0.392 OA
ATOM      9  H   UNL     1      10.105  -2.273  24.300  0.00  0.00    +0.210 HD
ENDBRANCH   7   8
ENDBRANCH   4   7
ENDBRANCH   1   4
BRANCH   1  10
ATOM     10  C   UNL     1       6.520  -4.849  25.749  0.00  0.00    +0.076 C 
BRANCH  10  11
ATOM     11  C   UNL     1       5.313  -5.782  25.618  0.00  0.00    +0.225 C 
BRANCH  11  12
ATOM     12  C   UNL     1       5.108  -6.332  24.202  0.00  0.00    +0.334 C 
ATOM     13  O   UNL     1       5.575  -5.784  23.205  0.00  0.00    -0.248 OA
BRANCH  12  14
ATOM     14  O   UNL     1       4.451  -7.507  24.136  0.00  0.00    -0.479 OA
ATOM     15  H   UNL     1       3.543  -7.455  23.780  0.00  0.00    +0.295 HD
ENDBRANCH  12  14
ENDBRANCH  11  12
BRANCH  11  16
ATOM     16  O   UNL     1       5.426  -6.829  26.580  0.00  0.00    -0.381 OA
ATOM     17  H   UNL     1       6.302  -7.244  26.441  0.00  0.00    +0.211 HD
ENDBRANCH  11  16
ENDBRANCH  10  11
ENDBRANCH   1  10
TORSDOF 10
ENDMDL
MODEL 7
REMARK VINA RESULT:      -4.4      4.882      8.101
REMARK  Name = 
REMARK  10 active torsions:
REMARK  status: ('A' for Active; 'I' for Inactive)
REMARK    1  A    between atoms: O_1  and  C_2
REMARK    2  A    between atoms: C_2  and  C_3
REMARK    3  A    between atoms: C_3  and  O_5
REMARK    4  A    between atoms: C_3  and  C_6
REMARK    5  A    between atoms: C_6  and  O_8
REMARK    6  A    between atoms: C_6  and  C_9
REMARK    7  A    between atoms: C_9  and  C_10
REMARK    8  A    between atoms: C_10  and  O_12
REMARK    9  A    between atoms: C_10  and  C_13
REMARK   10  A    between atoms: C_13  and  O_14
REMARK                            x       y       z     vdW  Elec       q    Type
REMARK                         _______ _______ _______ _____ _____    ______ ____
ROOT
ATOM      1  C   UNL     1       8.868  -3.063  24.007  0.00  0.00    +0.148 C 
ENDROOT
BRANCH   1   2
ATOM      2  O   UNL     1      10.301  -3.107  23.885  0.00  0.00    -0.389 OA
ATOM      3  H   UNL     1      10.680  -2.281  24.243  0.00  0.00    +0.210 HD
ENDBRANCH   1   2
BRANCH   1   4
ATOM      4  C   UNL     1       8.347  -4.403  24.570  0.00  0.00    +0.168 C 
BRANCH   4   5
ATOM      5  O   UNL     1       8.382  -5.396  23.524  0.00  0.00    -0.387 OA
ATOM      6  H   UNL     1       7.873  -5.044  22.771  0.00  0.00    +0.210 HD
ENDBRANCH   4   5
BRANCH   4   7
ATOM      7  C   UNL     1       9.137  -4.929  25.774  0.00  0.00    +0.189 C 
BRANCH   7   8
ATOM      8  O   UNL     1      10.318  -5.616  25.357  0.00  0.00    -0.392 OA
ATOM      9  H   UNL     1      10.446  -5.401  24.416  0.00  0.00    +0.210 HD
ENDBRANCH   7   8
ENDBRANCH   4   7
ENDBRANCH   1   4
BRANCH   1  10
ATOM     10  C   UNL     1       8.270  -2.593  22.670  0.00  0.00    +0.076 C 
BRANCH  10  11
ATOM     11  C   UNL     1       8.870  -1.327  22.050  0.00  0.00    +0.225 C 
BRANCH  11  12
ATOM     12  C   UNL     1       9.029  -0.169  23.042  0.00  0.00    +0.334 C 
ATOM     13  O   UNL     1       8.070   0.464  23.478  0.00  0.00    -0.248 OA
BRANCH  12  14
ATOM     14  O   UNL     1      10.289   0.049  23.467  0.00  0.00    -0.479 OA
ATOM     15  H   UNL     1      10.987  -0.144  22.811  0.00  0.00    +0.295 HD
ENDBRANCH  12  14
ENDBRANCH  11  12
BRANCH  11  16
ATOM     16  O   UNL     1      10.107  -1.658  21.421  0.00  0.00    -0.381 OA
ATOM     17  H   UNL     1      10.791  -1.092  21.834  0.00  0.00    +0.211 HD
ENDBRANCH  11  16
ENDBRANCH  10  11
ENDBRANCH   1  10
TORSDOF 10
ENDMDL
MODEL 8
REMARK VINA RESULT:      -4.4      3.163      4.835
REMARK  Name = 
REMARK  10 active torsions:
REMARK  status: ('A' for Active; 'I' for Inactive)
REMARK    1  A    between atoms: O_1  and  C_2
REMARK    2  A    between atoms: C_2  and  C_3
REMARK    3  A    between atoms: C_3  and  O_5
REMARK    4  A    between atoms: C_3  and  C_6
REMARK    5  A    between atoms: C_6  and  O_8
REMARK    6  A    between atoms: C_6  and  C_9
REMARK    7  A    between atoms: C_9  and  C_10
REMARK    8  A    between atoms: C_10  and  O_12
REMARK    9  A    between atoms: C_10  and  C_13
REMARK   10  A    between atoms: C_13  and  O_14
REMARK                            x       y       z     vdW  Elec       q    Type
REMARK                         _______ _______ _______ _____ _____    ______ ____
ROOT
ATOM      1  C   UNL     1       8.775   0.979  22.186  0.00  0.00    +0.148 C 
ENDROOT
BRANCH   1   2
ATOM      2  O   UNL     1       8.655   1.319  20.794  0.00  0.00    -0.389 OA
ATOM      3  H   UNL     1       7.929   1.963  20.681  0.00  0.00    +0.210 HD
ENDBRANCH   1   2
BRANCH   1   4
ATOM      4  C   UNL     1      10.016   1.672  22.791  0.00  0.00    +0.168 C 
BRANCH   4   5
ATOM      5  O   UNL     1      10.539   2.615  21.832  0.00  0.00    -0.387 OA
ATOM      6  H   UNL     1      10.215   2.347  20.953  0.00  0.00    +0.210 HD
ENDBRANCH   4   5
BRANCH   4   7
ATOM      7  C   UNL     1       9.745   2.408  24.108  0.00  0.00    +0.189 C 
BRANCH   7   8
ATOM      8  O   UNL     1       9.454   1.489  25.163  0.00  0.00    -0.392 OA
ATOM      9  H   UNL     1       8.888   0.796  24.778  0.00  0.00    +0.210 HD
ENDBRANCH   7   8
ENDBRANCH   4   7
ENDBRANCH   1   4
BRANCH   1  10
ATOM     10  C   UNL     1       8.695  -0.550  22.334  0.00  0.00    +0.076 C 
BRANCH  10  11
ATOM     11  C   UNL     1       9.943  -1.260  22.868  0.00  0.00    +0.225 C 
BRANCH  11  12
ATOM     12  C   UNL     1       9.665  -2.184  24.059  0.00  0.00    +0.334 C 
ATOM     13  O   UNL     1      10.008  -3.364  24.075  0.00  0.00    -0.248 OA
BRANCH  12  14
ATOM     14  O   UNL     1       9.094  -1.585  25.123  0.00  0.00    -0.479 OA
ATOM     15  H   UNL     1       9.397  -1.909  25.994  0.00  0.00    +0.295 HD
ENDBRANCH  12  14
ENDBRANCH  11  12
BRANCH  11  16
ATOM     16  O   UNL     1      10.578  -1.956  21.796  0.00  0.00    -0.381 OA
ATOM     17  H   UNL     1      10.089  -2.796  21.679  0.00  0.00    +0.211 HD
ENDBRANCH  11  16
ENDBRANCH  10  11
ENDBRANCH   1  10
TORSDOF 10
ENDMDL
MODEL 9
REMARK VINA RESULT:      -4.3      3.736      5.231
REMARK  Name = 
REMARK  10 active torsions:
REMARK  status: ('A' for Active; 'I' for Inactive)
REMARK    1  A    between atoms: O_1  and  C_2
REMARK    2  A    between atoms: C_2  and  C_3
REMARK    3  A    between atoms: C_3  and  O_5
REMARK    4  A    between atoms: C_3  and  C_6
REMARK    5  A    between atoms: C_6  and  O_8
REMARK    6  A    between atoms: C_6  and  C_9
REMARK    7  A    between atoms: C_9  and  C_10
REMARK    8  A    between atoms: C_10  and  O_12
REMARK    9  A    between atoms: C_10  and  C_13
REMARK   10  A    between atoms: C_13  and  O_14
REMARK                            x       y       z     vdW  Elec       q    Type
REMARK                         _______ _______ _______ _____ _____    ______ ____
ROOT
ATOM      1  C   UNL     1       9.987  -0.387  22.397  0.00  0.00    +0.148 C 
ENDROOT
BRANCH   1   2
ATOM      2  O   UNL     1      10.425  -1.565  21.697  0.00  0.00    -0.389 OA
ATOM      3  H   UNL     1       9.677  -2.189  21.620  0.00  0.00    +0.210 HD
ENDBRANCH   1   2
BRANCH   1   4
ATOM      4  C   UNL     1       9.677  -0.735  23.869  0.00  0.00    +0.168 C 
BRANCH   4   5
ATOM      5  O   UNL     1       9.985  -2.125  24.097  0.00  0.00    -0.387 OA
ATOM      6  H   UNL     1      10.340  -2.486  23.263  0.00  0.00    +0.210 HD
ENDBRANCH   4   5
BRANCH   4   7
ATOM      7  C   UNL     1      10.445   0.113  24.890  0.00  0.00    +0.189 C 
BRANCH   7   8
ATOM      8  O   UNL     1      10.892   1.340  24.310  0.00  0.00    -0.392 OA
ATOM      9  H   UNL     1      11.409   1.102  23.521  0.00  0.00    +0.210 HD
ENDBRANCH   7   8
ENDBRANCH   4   7
ENDBRANCH   1   4
BRANCH   1  10
ATOM     10  C   UNL     1       8.861   0.281  21.591  0.00  0.00    +0.076 C 
BRANCH  10  11
ATOM     11  C   UNL     1       8.898   1.808  21.484  0.00  0.00    +0.225 C 
BRANCH  11  12
ATOM     12  C   UNL     1       7.967   2.519  22.474  0.00  0.00    +0.334 C 
ATOM     13  O   UNL     1       8.211   2.588  23.677  0.00  0.00    -0.248 OA
BRANCH  12  14
ATOM     14  O   UNL     1       6.907   3.137  21.916  0.00  0.00    -0.479 OA
ATOM     15  H   UNL     1       6.714   2.878  20.995  0.00  0.00    +0.295 HD
ENDBRANCH  12  14
ENDBRANCH  11  12
BRANCH  11  16
ATOM     16  O   UNL     1      10.247   2.253  21.615  0.00  0.00    -0.381 OA
ATOM     17  H   UNL     1      10.231   3.028  22.213  0.00  0.00    +0.211 HD
ENDBRANCH  11  16
ENDBRANCH  10  11
ENDBRANCH   1  10
TORSDOF 10
ENDMDL
