MODEL 1
REMARK VINA RESULT:      -7.5      0.000      0.000
REMARK  Name = 
REMARK  8 active torsions:
REMARK  status: ('A' for Active; 'I' for Inactive)
REMARK    1  A    between atoms: C_1  and  C_2
REMARK    2  A    between atoms: C_2  and  C_3
REMARK    3  A    between atoms: C_3  and  O_4
REMARK    4  A    between atoms: O_4  and  C_5
REMARK    5  A    between atoms: C_8  and  C_11
REMARK    6  A    between atoms: C_14  and  C_23
REMARK    7  A    between atoms: C_15  and  C_16
REMARK    8  A    between atoms: C_16  and  C_17
REMARK                            x       y       z     vdW  Elec       q    Type
REMARK                         _______ _______ _______ _____ _____    ______ ____
ROOT
ATOM      1  C   UNL     1       8.963  -2.477  24.143  0.00  0.00    -0.007 A 
ATOM      2  C   UNL     1       7.568  -2.953  24.134  0.00  0.00    -0.015 A 
ATOM      3  C   UNL     1       7.466  -4.301  24.529  0.00  0.00    +0.025 A 
ATOM      4  S   UNL     1       9.019  -4.913  24.961  0.00  0.00    -0.096 S 
ATOM      5  C   UNL     1       9.822  -3.500  24.485  0.00  0.00    +0.054 A 
ENDROOT
BRANCH   3   6
ATOM      6  C   UNL     1       6.279  -5.198  24.730  0.00  0.00    +0.007 A 
ATOM      7  C   UNL     1       5.527  -5.814  23.703  0.00  0.00    +0.049 A 
ATOM      8 CL   UNL     1       5.694  -5.435  22.019  0.00  0.00    -0.083 Cl
ATOM      9  C   UNL     1       4.532  -6.767  24.000  0.00  0.00    +0.020 A 
ATOM     10  C   UNL     1       4.224  -7.095  25.316  0.00  0.00    +0.001 A 
ATOM     11  C   UNL     1       4.898  -6.459  26.342  0.00  0.00    +0.001 A 
ATOM     12  C   UNL     1       5.906  -5.535  26.046  0.00  0.00    +0.010 A 
ENDBRANCH   3   6
BRANCH   1  16
ATOM     13  C   UNL     1      10.215   1.492  23.033  0.00  0.00    +0.121 A 
ATOM     14  C   UNL     1      10.203   1.098  24.366  0.00  0.00    +0.046 A 
ATOM     15  C   UNL     1       9.893  -0.221  24.713  0.00  0.00    +0.012 A 
ATOM     16  C   UNL     1       9.498  -1.155  23.751  0.00  0.00    -0.017 A 
ATOM     17  C   UNL     1       9.588  -0.768  22.406  0.00  0.00    +0.012 A 
ATOM     18  C   UNL     1       9.961   0.536  22.050  0.00  0.00    +0.046 A 
BRANCH  13  19
ATOM     19  O   UNL     1      10.478   2.818  22.823  0.00  0.00    -0.492 OA
BRANCH  19  20
ATOM     20  C   UNL     1       9.850   3.723  23.728  0.00  0.00    +0.229 C 
BRANCH  20  22
ATOM     21  C   UNL     1      12.067   4.808  23.360  0.00  0.00    +0.007 C 
ATOM     22  C   UNL     1      10.615   5.041  23.744  0.00  0.00    +0.038 C 
ENDBRANCH  20  22
ENDBRANCH  19  20
ENDBRANCH  13  19
ENDBRANCH   1  16
BRANCH   2  23
ATOM     23  C   UNL     1       6.406  -2.099  23.655  0.00  0.00    +0.151 C 
BRANCH  23  24
ATOM     24  C   UNL     1       6.362  -0.638  24.109  0.00  0.00    +0.280 C 
ATOM     25  N   UNL     1       6.313   0.334  23.115  0.00  0.00    -0.175 N 
ATOM     26  H   UNL     1       6.293   0.023  22.159  0.00  0.00    +0.254 HD
ATOM     27  C   UNL     1       6.492   1.678  23.296  0.00  0.00    +0.375 C 
ATOM     28  N   UNL     1       6.818   2.400  22.286  0.00  0.00    -0.131 NA
ATOM     29  H   UNL     1       6.920   1.847  21.434  0.00  0.00    +0.306 HD
ATOM     30  N   UNL     1       6.365   2.244  24.512  0.00  0.00    -0.291 N 
ATOM     31  H   UNL     1       6.815   3.144  24.608  0.00  0.00    +0.254 HD
ATOM     32  H   UNL     1       6.430   1.618  25.309  0.00  0.00    +0.254 HD
ATOM     33  O   UNL     1       6.416  -0.360  25.310  0.00  0.00    -0.257 OA
ENDBRANCH  23  24
ENDBRANCH   2  23
TORSDOF 7
ENDMDL
MODEL 2
REMARK VINA RESULT:      -7.3      3.096      4.070
REMARK  Name = 
REMARK  8 active torsions:
REMARK  status: ('A' for Active; 'I' for Inactive)
REMARK    1  A    between atoms: C_1  and  C_2
REMARK    2  A    between atoms: C_2  and  C_3
REMARK    3  A    between atoms: C_3  and  O_4
REMARK    4  A    between atoms: O_4  and  C_5
REMARK    5  A    between atoms: C_8  and  C_11
REMARK    6  A    between atoms: C_14  and  C_23
REMARK    7  A    between atoms: C_15  and  C_16
REMARK    8  A    between atoms: C_16  and  C_17
REMARK                            x       y       z     vdW  Elec       q    Type
REMARK                         _______ _______ _______ _____ _____    ______ ____
ROOT
ATOM      1  C   UNL     1       7.241  -0.207  24.579  0.00  0.00    -0.007 A 
ATOM      2  C   UNL     1       6.953  -1.613  24.246  0.00  0.00    -0.015 A 
ATOM      3  C   UNL     1       5.808  -2.092  24.911  0.00  0.00    +0.025 A 
ATOM      4  S   UNL     1       5.089  -0.829  25.840  0.00  0.00    -0.096 S 
ATOM      5  C   UNL     1       6.338   0.266  25.508  0.00  0.00    +0.054 A 
ENDROOT
BRANCH   3   6
ATOM      6  C   UNL     1       5.094  -3.411  24.854  0.00  0.00    +0.007 A 
ATOM      7  C   UNL     1       4.859  -4.271  25.952  0.00  0.00    +0.049 A 
ATOM      8 CL   UNL     1       5.581  -4.064  27.516  0.00  0.00    -0.083 Cl
ATOM      9  C   UNL     1       4.039  -5.409  25.824  0.00  0.00    +0.020 A 
ATOM     10  C   UNL     1       3.473  -5.751  24.600  0.00  0.00    +0.001 A 
ATOM     11  C   UNL     1       3.740  -4.964  23.495  0.00  0.00    +0.001 A 
ATOM     12  C   UNL     1       4.530  -3.819  23.629  0.00  0.00    +0.010 A 
ENDBRANCH   3   6
BRANCH   1  16
ATOM     13  C   UNL     1      10.485   2.439  23.566  0.00  0.00    +0.121 A 
ATOM     14  C   UNL     1      10.712   1.295  24.322  0.00  0.00    +0.046 A 
ATOM     15  C   UNL     1       9.675   0.387  24.562  0.00  0.00    +0.012 A 
ATOM     16  C   UNL     1       8.368   0.642  24.137  0.00  0.00    -0.017 A 
ATOM     17  C   UNL     1       8.168   1.759  23.312  0.00  0.00    +0.012 A 
ATOM     18  C   UNL     1       9.220   2.638  23.015  0.00  0.00    +0.046 A 
BRANCH  13  19
ATOM     19  O   UNL     1      11.560   3.277  23.446  0.00  0.00    -0.492 OA
BRANCH  19  20
ATOM     20  C   UNL     1      11.264   4.671  23.490  0.00  0.00    +0.229 C 
BRANCH  20  22
ATOM     21  C   UNL     1      13.225   5.562  22.230  0.00  0.00    +0.007 C 
ATOM     22  C   UNL     1      12.561   5.464  23.593  0.00  0.00    +0.038 C 
ENDBRANCH  20  22
ENDBRANCH  19  20
ENDBRANCH  13  19
ENDBRANCH   1  16
BRANCH   2  23
ATOM     23  C   UNL     1       7.859  -2.456  23.363  0.00  0.00    +0.151 C 
BRANCH  23  24
ATOM     24  C   UNL     1       8.843  -3.404  24.053  0.00  0.00    +0.280 C 
ATOM     25  N   UNL     1       8.301  -4.443  24.804  0.00  0.00    -0.175 N 
ATOM     26  H   UNL     1       7.299  -4.521  24.838  0.00  0.00    +0.254 HD
ATOM     27  C   UNL     1       8.987  -5.252  25.667  0.00  0.00    +0.375 C 
ATOM     28  N   UNL     1       8.335  -5.883  26.574  0.00  0.00    -0.131 NA
ATOM     29  H   UNL     1       7.335  -5.679  26.543  0.00  0.00    +0.306 HD
ATOM     30  N   UNL     1      10.328  -5.370  25.601  0.00  0.00    -0.291 N 
ATOM     31  H   UNL     1      10.764  -5.716  26.445  0.00  0.00    +0.254 HD
ATOM     32  H   UNL     1      10.821  -4.632  25.106  0.00  0.00    +0.254 HD
ATOM     33  O   UNL     1      10.057  -3.206  23.969  0.00  0.00    -0.257 OA
ENDBRANCH  23  24
ENDBRANCH   2  23
TORSDOF 7
ENDMDL
MODEL 3
REMARK VINA RESULT:      -7.3      3.634      8.650
REMARK  Name = 
REMARK  8 active torsions:
REMARK  status: ('A' for Active; 'I' for Inactive)
REMARK    1  A    between atoms: C_1  and  C_2
REMARK    2  A    between atoms: C_2  and  C_3
REMARK    3  A    between atoms: C_3  and  O_4
REMARK    4  A    between atoms: O_4  and  C_5
REMARK    5  A    between atoms: C_8  and  C_11
REMARK    6  A    between atoms: C_14  and  C_23
REMARK    7  A    between atoms: C_15  and  C_16
REMARK    8  A    between atoms: C_16  and  C_17
REMARK                            x       y       z     vdW  Elec       q    Type
REMARK                         _______ _______ _______ _____ _____    ______ ____
ROOT
ATOM      1  C   UNL     1       5.787  -2.148  24.660  0.00  0.00    -0.007 A 
ATOM      2  C   UNL     1       7.068  -1.703  24.082  0.00  0.00    -0.015 A 
ATOM      3  C   UNL     1       7.303  -0.333  24.307  0.00  0.00    +0.025 A 
ATOM      4  S   UNL     1       6.029   0.341  25.255  0.00  0.00    -0.096 S 
ATOM      5  C   UNL     1       5.117  -1.086  25.229  0.00  0.00    +0.054 A 
ENDROOT
BRANCH   3   6
ATOM      6  C   UNL     1       8.468   0.552  23.972  0.00  0.00    +0.007 A 
ATOM      7  C   UNL     1       8.432   1.671  23.107  0.00  0.00    +0.049 A 
ATOM      8 CL   UNL     1       7.087   2.064  22.085  0.00  0.00    -0.083 Cl
ATOM      9  C   UNL     1       9.540   2.533  22.984  0.00  0.00    +0.020 A 
ATOM     10  C   UNL     1      10.723   2.282  23.672  0.00  0.00    +0.001 A 
ATOM     11  C   UNL     1      10.808   1.158  24.473  0.00  0.00    +0.001 A 
ATOM     12  C   UNL     1       9.698   0.320  24.618  0.00  0.00    +0.010 A 
ENDBRANCH   3   6
BRANCH   1  16
ATOM     13  C   UNL     1       4.244  -6.163  24.439  0.00  0.00    +0.121 A 
ATOM     14  C   UNL     1       4.670  -5.633  25.651  0.00  0.00    +0.046 A 
ATOM     15  C   UNL     1       5.076  -4.297  25.736  0.00  0.00    +0.012 A 
ATOM     16  C   UNL     1       5.154  -3.483  24.601  0.00  0.00    -0.017 A 
ATOM     17  C   UNL     1       4.651  -4.006  23.401  0.00  0.00    +0.012 A 
ATOM     18  C   UNL     1       4.182  -5.326  23.325  0.00  0.00    +0.046 A 
BRANCH  13  19
ATOM     19  O   UNL     1       3.926  -7.494  24.469  0.00  0.00    -0.492 OA
BRANCH  19  20
ATOM     20  C   UNL     1       2.680  -7.817  25.082  0.00  0.00    +0.229 C 
BRANCH  20  22
ATOM     21  C   UNL     1       1.183  -7.676  23.091  0.00  0.00    +0.007 C 
ATOM     22  C   UNL     1       1.822  -8.611  24.104  0.00  0.00    +0.038 C 
ENDBRANCH  20  22
ENDBRANCH  19  20
ENDBRANCH  13  19
ENDBRANCH   1  16
BRANCH   2  23
ATOM     23  C   UNL     1       7.964  -2.612  23.259  0.00  0.00    +0.151 C 
BRANCH  23  24
ATOM     24  C   UNL     1       8.932  -3.528  24.012  0.00  0.00    +0.280 C 
ATOM     25  N   UNL     1       8.375  -4.543  24.783  0.00  0.00    -0.175 N 
ATOM     26  H   UNL     1       7.373  -4.627  24.791  0.00  0.00    +0.254 HD
ATOM     27  C   UNL     1       9.039  -5.315  25.696  0.00  0.00    +0.375 C 
ATOM     28  N   UNL     1       8.363  -5.917  26.606  0.00  0.00    -0.131 NA
ATOM     29  H   UNL     1       7.364  -5.721  26.537  0.00  0.00    +0.306 HD
ATOM     30  N   UNL     1      10.381  -5.426  25.674  0.00  0.00    -0.291 N 
ATOM     31  H   UNL     1      10.794  -5.739  26.543  0.00  0.00    +0.254 HD
ATOM     32  H   UNL     1      10.886  -4.704  25.168  0.00  0.00    +0.254 HD
ATOM     33  O   UNL     1      10.148  -3.325  23.957  0.00  0.00    -0.257 OA
ENDBRANCH  23  24
ENDBRANCH   2  23
TORSDOF 7
ENDMDL
MODEL 4
REMARK VINA RESULT:      -7.2      1.165      1.295
REMARK  Name = 
REMARK  8 active torsions:
REMARK  status: ('A' for Active; 'I' for Inactive)
REMARK    1  A    between atoms: C_1  and  C_2
REMARK    2  A    between atoms: C_2  and  C_3
REMARK    3  A    between atoms: C_3  and  O_4
REMARK    4  A    between atoms: O_4  and  C_5
REMARK    5  A    between atoms: C_8  and  C_11
REMARK    6  A    between atoms: C_14  and  C_23
REMARK    7  A    between atoms: C_15  and  C_16
REMARK    8  A    between atoms: C_16  and  C_17
REMARK                            x       y       z     vdW  Elec       q    Type
REMARK                         _______ _______ _______ _____ _____    ______ ____
ROOT
ATOM      1  C   UNL     1       8.985  -2.499  24.159  0.00  0.00    -0.007 A 
ATOM      2  C   UNL     1       7.583  -2.949  24.218  0.00  0.00    -0.015 A 
ATOM      3  C   UNL     1       7.476  -4.299  24.605  0.00  0.00    +0.025 A 
ATOM      4  S   UNL     1       9.038  -4.943  24.951  0.00  0.00    -0.096 S 
ATOM      5  C   UNL     1       9.841  -3.540  24.446  0.00  0.00    +0.054 A 
ENDROOT
BRANCH   3   6
ATOM      6  C   UNL     1       6.286  -5.177  24.860  0.00  0.00    +0.007 A 
ATOM      7  C   UNL     1       5.473  -5.774  23.867  0.00  0.00    +0.049 A 
ATOM      8 CL   UNL     1       5.564  -5.388  22.179  0.00  0.00    -0.083 Cl
ATOM      9  C   UNL     1       4.478  -6.712  24.208  0.00  0.00    +0.020 A 
ATOM     10  C   UNL     1       4.229  -7.043  25.536  0.00  0.00    +0.001 A 
ATOM     11  C   UNL     1       4.964  -6.424  26.531  0.00  0.00    +0.001 A 
ATOM     12  C   UNL     1       5.971  -5.516  26.191  0.00  0.00    +0.010 A 
ENDBRANCH   3   6
BRANCH   1  16
ATOM     13  C   UNL     1      10.254   1.462  23.037  0.00  0.00    +0.121 A 
ATOM     14  C   UNL     1      10.359   1.029  24.354  0.00  0.00    +0.046 A 
ATOM     15  C   UNL     1      10.041  -0.290  24.694  0.00  0.00    +0.012 A 
ATOM     16  C   UNL     1       9.522  -1.183  23.751  0.00  0.00    -0.017 A 
ATOM     17  C   UNL     1       9.493  -0.759  22.414  0.00  0.00    +0.012 A 
ATOM     18  C   UNL     1       9.873   0.544  22.058  0.00  0.00    +0.046 A 
BRANCH  13  19
ATOM     19  O   UNL     1      10.539   2.785  22.837  0.00  0.00    -0.492 OA
BRANCH  19  20
ATOM     20  C   UNL     1       9.921   3.693  23.746  0.00  0.00    +0.229 C 
BRANCH  20  22
ATOM     21  C   UNL     1      12.117   4.811  23.354  0.00  0.00    +0.007 C 
ATOM     22  C   UNL     1      10.656   5.028  23.710  0.00  0.00    +0.038 C 
ENDBRANCH  20  22
ENDBRANCH  19  20
ENDBRANCH  13  19
ENDBRANCH   1  16
BRANCH   2  23
ATOM     23  C   UNL     1       6.413  -2.070  23.807  0.00  0.00    +0.151 C 
BRANCH  23  24
ATOM     24  C   UNL     1       5.844  -1.109  24.854  0.00  0.00    +0.280 C 
ATOM     25  N   UNL     1       6.631  -0.017  25.206  0.00  0.00    -0.175 N 
ATOM     26  H   UNL     1       7.519   0.087  24.744  0.00  0.00    +0.254 HD
ATOM     27  C   UNL     1       6.414   0.822  26.264  0.00  0.00    +0.375 C 
ATOM     28  N   UNL     1       7.394   1.518  26.713  0.00  0.00    -0.131 NA
ATOM     29  H   UNL     1       8.260   1.336  26.205  0.00  0.00    +0.306 HD
ATOM     30  N   UNL     1       5.206   0.904  26.856  0.00  0.00    -0.291 N 
ATOM     31  H   UNL     1       5.219   1.286  27.792  0.00  0.00    +0.254 HD
ATOM     32  H   UNL     1       4.570   0.128  26.692  0.00  0.00    +0.254 HD
ATOM     33  O   UNL     1       4.753  -1.340  25.380  0.00  0.00    -0.257 OA
ENDBRANCH  23  24
ENDBRANCH   2  23
TORSDOF 7
ENDMDL
MODEL 5
REMARK VINA RESULT:      -7.1      1.231      1.539
REMARK  Name = 
REMARK  8 active torsions:
REMARK  status: ('A' for Active; 'I' for Inactive)
REMARK    1  A    between atoms: C_1  and  C_2
REMARK    2  A    between atoms: C_2  and  C_3
REMARK    3  A    between atoms: C_3  and  O_4
REMARK    4  A    between atoms: O_4  and  C_5
REMARK    5  A    between atoms: C_8  and  C_11
REMARK    6  A    between atoms: C_14  and  C_23
REMARK    7  A    between atoms: C_15  and  C_16
REMARK    8  A    between atoms: C_16  and  C_17
REMARK                            x       y       z     vdW  Elec       q    Type
REMARK                         _______ _______ _______ _____ _____    ______ ____
ROOT
ATOM      1  C   UNL     1       8.929  -2.853  24.154  0.00  0.00    -0.007 A 
ATOM      2  C   UNL     1       7.535  -3.318  24.256  0.00  0.00    -0.015 A 
ATOM      3  C   UNL     1       7.450  -4.639  24.736  0.00  0.00    +0.025 A 
ATOM      4  S   UNL     1       9.024  -5.237  25.110  0.00  0.00    -0.096 S 
ATOM      5  C   UNL     1       9.803  -3.860  24.505  0.00  0.00    +0.054 A 
ENDROOT
BRANCH   3   6
ATOM      6  C   UNL     1       6.274  -5.514  25.060  0.00  0.00    +0.007 A 
ATOM      7  C   UNL     1       5.795  -5.804  26.359  0.00  0.00    +0.049 A 
ATOM      8 CL   UNL     1       6.642  -5.400  27.817  0.00  0.00    -0.083 Cl
ATOM      9  C   UNL     1       4.587  -6.505  26.550  0.00  0.00    +0.020 A 
ATOM     10  C   UNL     1       3.853  -6.976  25.467  0.00  0.00    +0.001 A 
ATOM     11  C   UNL     1       4.332  -6.764  24.188  0.00  0.00    +0.001 A 
ATOM     12  C   UNL     1       5.515  -6.043  23.997  0.00  0.00    +0.010 A 
ENDBRANCH   3   6
BRANCH   1  16
ATOM     13  C   UNL     1      10.130   1.035  22.741  0.00  0.00    +0.121 A 
ATOM     14  C   UNL     1      10.200   0.718  24.092  0.00  0.00    +0.046 A 
ATOM     15  C   UNL     1       9.905  -0.576  24.534  0.00  0.00    +0.012 A 
ATOM     16  C   UNL     1       9.445  -1.561  23.654  0.00  0.00    -0.017 A 
ATOM     17  C   UNL     1       9.452  -1.252  22.286  0.00  0.00    +0.012 A 
ATOM     18  C   UNL     1       9.809   0.026  21.832  0.00  0.00    +0.046 A 
BRANCH  13  19
ATOM     19  O   UNL     1      10.385   2.344  22.438  0.00  0.00    -0.492 OA
BRANCH  19  20
ATOM     20  C   UNL     1      10.778   3.166  23.535  0.00  0.00    +0.229 C 
BRANCH  20  22
ATOM     21  C   UNL     1      10.409   5.623  23.768  0.00  0.00    +0.007 C 
ATOM     22  C   UNL     1       9.738   4.260  23.749  0.00  0.00    +0.038 C 
ENDBRANCH  20  22
ENDBRANCH  19  20
ENDBRANCH  13  19
ENDBRANCH   1  16
BRANCH   2  23
ATOM     23  C   UNL     1       6.349  -2.485  23.797  0.00  0.00    +0.151 C 
BRANCH  23  24
ATOM     24  C   UNL     1       6.249  -1.046  24.311  0.00  0.00    +0.280 C 
ATOM     25  N   UNL     1       6.240  -0.032  23.359  0.00  0.00    -0.175 N 
ATOM     26  H   UNL     1       6.284  -0.300  22.391  0.00  0.00    +0.254 HD
ATOM     27  C   UNL     1       6.382   1.305  23.609  0.00  0.00    +0.375 C 
ATOM     28  N   UNL     1       6.753   2.077  22.654  0.00  0.00    -0.131 NA
ATOM     29  H   UNL     1       6.917   1.565  21.786  0.00  0.00    +0.306 HD
ATOM     30  N   UNL     1       6.170   1.814  24.838  0.00  0.00    -0.291 N 
ATOM     31  H   UNL     1       6.595   2.717  25.001  0.00  0.00    +0.254 HD
ATOM     32  H   UNL     1       6.199   1.154  25.611  0.00  0.00    +0.254 HD
ATOM     33  O   UNL     1       6.225  -0.822  25.524  0.00  0.00    -0.257 OA
ENDBRANCH  23  24
ENDBRANCH   2  23
TORSDOF 7
ENDMDL
MODEL 6
REMARK VINA RESULT:      -7.0      3.264      4.491
REMARK  Name = 
REMARK  8 active torsions:
REMARK  status: ('A' for Active; 'I' for Inactive)
REMARK    1  A    between atoms: C_1  and  C_2
REMARK    2  A    between atoms: C_2  and  C_3
REMARK    3  A    between atoms: C_3  and  O_4
REMARK    4  A    between atoms: O_4  and  C_5
REMARK    5  A    between atoms: C_8  and  C_11
REMARK    6  A    between atoms: C_14  and  C_23
REMARK    7  A    between atoms: C_15  and  C_16
REMARK    8  A    between atoms: C_16  and  C_17
REMARK                            x       y       z     vdW  Elec       q    Type
REMARK                         _______ _______ _______ _____ _____    ______ ____
ROOT
ATOM      1  C   UNL     1       5.600  -2.414  24.590  0.00  0.00    -0.007 A 
ATOM      2  C   UNL     1       5.342  -3.766  24.065  0.00  0.00    -0.015 A 
ATOM      3  C   UNL     1       4.157  -4.320  24.588  0.00  0.00    +0.025 A 
ATOM      4  S   UNL     1       3.372  -3.180  25.618  0.00  0.00    -0.096 S 
ATOM      5  C   UNL     1       4.636  -2.057  25.508  0.00  0.00    +0.054 A 
ENDROOT
BRANCH   3   6
ATOM      6  C   UNL     1       3.454  -5.619  24.319  0.00  0.00    +0.007 A 
ATOM      7  C   UNL     1       3.542  -6.785  25.116  0.00  0.00    +0.049 A 
ATOM      8 CL   UNL     1       4.679  -6.992  26.409  0.00  0.00    -0.083 Cl
ATOM      9  C   UNL     1       2.717  -7.900  24.868  0.00  0.00    +0.020 A 
ATOM     10  C   UNL     1       1.826  -7.910  23.800  0.00  0.00    +0.001 A 
ATOM     11  C   UNL     1       1.767  -6.808  22.966  0.00  0.00    +0.001 A 
ATOM     12  C   UNL     1       2.564  -5.691  23.230  0.00  0.00    +0.010 A 
ENDBRANCH   3   6
BRANCH   1  16
ATOM     13  C   UNL     1       9.087  -0.058  23.670  0.00  0.00    +0.121 A 
ATOM     14  C   UNL     1       7.996  -0.078  22.808  0.00  0.00    +0.046 A 
ATOM     15  C   UNL     1       6.828  -0.763  23.159  0.00  0.00    +0.012 A 
ATOM     16  C   UNL     1       6.750  -1.520  24.332  0.00  0.00    -0.017 A 
ATOM     17  C   UNL     1       7.826  -1.430  25.227  0.00  0.00    +0.012 A 
ATOM     18  C   UNL     1       8.974  -0.691  24.908  0.00  0.00    +0.046 A 
BRANCH  13  19
ATOM     19  O   UNL     1      10.190   0.597  23.194  0.00  0.00    -0.492 OA
BRANCH  19  20
ATOM     20  C   UNL     1      10.722   1.608  24.045  0.00  0.00    +0.229 C 
BRANCH  20  22
ATOM     21  C   UNL     1       9.263   3.631  24.105  0.00  0.00    +0.007 C 
ATOM     22  C   UNL     1      10.459   2.979  23.433  0.00  0.00    +0.038 C 
ENDBRANCH  20  22
ENDBRANCH  19  20
ENDBRANCH  13  19
ENDBRANCH   1  16
BRANCH   2  23
ATOM     23  C   UNL     1       6.307  -4.496  23.146  0.00  0.00    +0.151 C 
BRANCH  23  24
ATOM     24  C   UNL     1       7.553  -5.123  23.776  0.00  0.00    +0.280 C 
ATOM     25  N   UNL     1       7.704  -4.988  25.153  0.00  0.00    -0.175 N 
ATOM     26  H   UNL     1       6.981  -4.501  25.656  0.00  0.00    +0.254 HD
ATOM     27  C   UNL     1       8.834  -5.271  25.869  0.00  0.00    +0.375 C 
ATOM     28  N   UNL     1       8.981  -4.741  27.028  0.00  0.00    -0.131 NA
ATOM     29  H   UNL     1       8.200  -4.132  27.275  0.00  0.00    +0.306 HD
ATOM     30  N   UNL     1       9.800  -6.065  25.367  0.00  0.00    -0.291 N 
ATOM     31  H   UNL     1      10.704  -5.962  25.808  0.00  0.00    +0.254 HD
ATOM     32  H   UNL     1       9.800  -6.193  24.359  0.00  0.00    +0.254 HD
ATOM     33  O   UNL     1       8.395  -5.678  23.066  0.00  0.00    -0.257 OA
ENDBRANCH  23  24
ENDBRANCH   2  23
TORSDOF 7
ENDMDL
MODEL 7
REMARK VINA RESULT:      -6.9      2.727      3.569
REMARK  Name = 
REMARK  8 active torsions:
REMARK  status: ('A' for Active; 'I' for Inactive)
REMARK    1  A    between atoms: C_1  and  C_2
REMARK    2  A    between atoms: C_2  and  C_3
REMARK    3  A    between atoms: C_3  and  O_4
REMARK    4  A    between atoms: O_4  and  C_5
REMARK    5  A    between atoms: C_8  and  C_11
REMARK    6  A    between atoms: C_14  and  C_23
REMARK    7  A    between atoms: C_15  and  C_16
REMARK    8  A    between atoms: C_16  and  C_17
REMARK                            x       y       z     vdW  Elec       q    Type
REMARK                         _______ _______ _______ _____ _____    ______ ____
ROOT
ATOM      1  C   UNL     1       7.480  -0.472  24.793  0.00  0.00    -0.007 A 
ATOM      2  C   UNL     1       7.478  -1.932  24.996  0.00  0.00    -0.015 A 
ATOM      3  C   UNL     1       6.355  -2.363  25.729  0.00  0.00    +0.025 A 
ATOM      4  S   UNL     1       5.324  -1.026  26.076  0.00  0.00    -0.096 S 
ATOM      5  C   UNL     1       6.402   0.107  25.427  0.00  0.00    +0.054 A 
ENDROOT
BRANCH   3   6
ATOM      6  C   UNL     1       5.887  -3.731  26.130  0.00  0.00    +0.007 A 
ATOM      7  C   UNL     1       4.964  -4.530  25.415  0.00  0.00    +0.049 A 
ATOM      8 CL   UNL     1       4.021  -3.959  24.076  0.00  0.00    -0.083 Cl
ATOM      9  C   UNL     1       4.713  -5.865  25.790  0.00  0.00    +0.020 A 
ATOM     10  C   UNL     1       5.327  -6.424  26.906  0.00  0.00    +0.001 A 
ATOM     11  C   UNL     1       6.183  -5.645  27.662  0.00  0.00    +0.001 A 
ATOM     12  C   UNL     1       6.455  -4.330  27.272  0.00  0.00    +0.010 A 
ENDBRANCH   3   6
BRANCH   1  16
ATOM     13  C   UNL     1      10.297   2.248  22.998  0.00  0.00    +0.121 A 
ATOM     14  C   UNL     1      10.549   1.685  24.244  0.00  0.00    +0.046 A 
ATOM     15  C   UNL     1       9.681   0.726  24.777  0.00  0.00    +0.012 A 
ATOM     16  C   UNL     1       8.495   0.373  24.127  0.00  0.00    -0.017 A 
ATOM     17  C   UNL     1       8.290   0.890  22.839  0.00  0.00    +0.012 A 
ATOM     18  C   UNL     1       9.192   1.803  22.273  0.00  0.00    +0.046 A 
BRANCH  13  19
ATOM     19  O   UNL     1      11.185   3.214  22.608  0.00  0.00    -0.492 OA
BRANCH  19  20
ATOM     20  C   UNL     1      11.259   4.360  23.451  0.00  0.00    +0.229 C 
BRANCH  20  22
ATOM     21  C   UNL     1      13.032   5.455  22.079  0.00  0.00    +0.007 C 
ATOM     22  C   UNL     1      12.683   4.902  23.450  0.00  0.00    +0.038 C 
ENDBRANCH  20  22
ENDBRANCH  19  20
ENDBRANCH  13  19
ENDBRANCH   1  16
BRANCH   2  23
ATOM     23  C   UNL     1       8.616  -2.832  24.543  0.00  0.00    +0.151 C 
BRANCH  23  24
ATOM     24  C   UNL     1       8.261  -4.054  23.692  0.00  0.00    +0.280 C 
ATOM     25  N   UNL     1       7.436  -3.842  22.592  0.00  0.00    -0.175 N 
ATOM     26  H   UNL     1       7.133  -2.901  22.410  0.00  0.00    +0.254 HD
ATOM     27  C   UNL     1       6.827  -4.813  21.847  0.00  0.00    +0.375 C 
ATOM     28  N   UNL     1       5.804  -4.499  21.138  0.00  0.00    -0.131 NA
ATOM     29  H   UNL     1       5.554  -3.515  21.238  0.00  0.00    +0.306 HD
ATOM     30  N   UNL     1       7.261  -6.089  21.870  0.00  0.00    -0.291 N 
ATOM     31  H   UNL     1       6.583  -6.772  21.558  0.00  0.00    +0.254 HD
ATOM     32  H   UNL     1       7.840  -6.354  22.661  0.00  0.00    +0.254 HD
ATOM     33  O   UNL     1       8.664  -5.174  24.017  0.00  0.00    -0.257 OA
ENDBRANCH  23  24
ENDBRANCH   2  23
TORSDOF 7
ENDMDL
MODEL 8
REMARK VINA RESULT:      -6.7      1.688      2.268
REMARK  Name = 
REMARK  8 active torsions:
REMARK  status: ('A' for Active; 'I' for Inactive)
REMARK    1  A    between atoms: C_1  and  C_2
REMARK    2  A    between atoms: C_2  and  C_3
REMARK    3  A    between atoms: C_3  and  O_4
REMARK    4  A    between atoms: O_4  and  C_5
REMARK    5  A    between atoms: C_8  and  C_11
REMARK    6  A    between atoms: C_14  and  C_23
REMARK    7  A    between atoms: C_15  and  C_16
REMARK    8  A    between atoms: C_16  and  C_17
REMARK                            x       y       z     vdW  Elec       q    Type
REMARK                         _______ _______ _______ _____ _____    ______ ____
ROOT
ATOM      1  C   UNL     1       9.005  -2.516  24.207  0.00  0.00    -0.007 A 
ATOM      2  C   UNL     1       7.610  -2.988  24.277  0.00  0.00    -0.015 A 
ATOM      3  C   UNL     1       7.528  -4.347  24.638  0.00  0.00    +0.025 A 
ATOM      4  S   UNL     1       9.104  -4.976  24.946  0.00  0.00    -0.096 S 
ATOM      5  C   UNL     1       9.880  -3.551  24.460  0.00  0.00    +0.054 A 
ENDROOT
BRANCH   3   6
ATOM      6  C   UNL     1       6.353  -5.246  24.891  0.00  0.00    +0.007 A 
ATOM      7  C   UNL     1       5.846  -5.602  26.163  0.00  0.00    +0.049 A 
ATOM      8 CL   UNL     1       6.653  -5.259  27.659  0.00  0.00    -0.083 Cl
ATOM      9  C   UNL     1       4.641  -6.322  26.291  0.00  0.00    +0.020 A 
ATOM     10  C   UNL     1       3.938  -6.749  25.170  0.00  0.00    +0.001 A 
ATOM     11  C   UNL     1       4.446  -6.471  23.913  0.00  0.00    +0.001 A 
ATOM     12  C   UNL     1       5.626  -5.732  23.786  0.00  0.00    +0.010 A 
ENDBRANCH   3   6
BRANCH   1  16
ATOM     13  C   UNL     1      10.200   1.483  23.143  0.00  0.00    +0.121 A 
ATOM     14  C   UNL     1      10.299   1.038  24.456  0.00  0.00    +0.046 A 
ATOM     15  C   UNL     1      10.006  -0.291  24.779  0.00  0.00    +0.012 A 
ATOM     16  C   UNL     1       9.518  -1.184  23.820  0.00  0.00    -0.017 A 
ATOM     17  C   UNL     1       9.495  -0.747  22.488  0.00  0.00    +0.012 A 
ATOM     18  C   UNL     1       9.850   0.568  22.150  0.00  0.00    +0.046 A 
BRANCH  13  19
ATOM     19  O   UNL     1      10.458   2.814  22.961  0.00  0.00    -0.492 OA
BRANCH  19  20
ATOM     20  C   UNL     1       9.679   3.708  23.751  0.00  0.00    +0.229 C 
BRANCH  20  22
ATOM     21  C   UNL     1       7.242   3.359  24.157  0.00  0.00    +0.007 C 
ATOM     22  C   UNL     1       8.282   3.830  23.154  0.00  0.00    +0.038 C 
ENDBRANCH  20  22
ENDBRANCH  19  20
ENDBRANCH  13  19
ENDBRANCH   1  16
BRANCH   2  23
ATOM     23  C   UNL     1       6.422  -2.116  23.903  0.00  0.00    +0.151 C 
BRANCH  23  24
ATOM     24  C   UNL     1       5.823  -1.224  24.993  0.00  0.00    +0.280 C 
ATOM     25  N   UNL     1       6.617  -0.187  25.471  0.00  0.00    -0.175 N 
ATOM     26  H   UNL     1       7.530  -0.072  25.064  0.00  0.00    +0.254 HD
ATOM     27  C   UNL     1       6.365   0.572  26.580  0.00  0.00    +0.375 C 
ATOM     28  N   UNL     1       7.337   1.202  27.132  0.00  0.00    -0.131 NA
ATOM     29  H   UNL     1       8.225   1.036  26.656  0.00  0.00    +0.306 HD
ATOM     30  N   UNL     1       5.131   0.642  27.114  0.00  0.00    -0.291 N 
ATOM     31  H   UNL     1       5.104   0.949  28.077  0.00  0.00    +0.254 HD
ATOM     32  H   UNL     1       4.485  -0.099  26.857  0.00  0.00    +0.254 HD
ATOM     33  O   UNL     1       4.700  -1.465  25.443  0.00  0.00    -0.257 OA
ENDBRANCH  23  24
ENDBRANCH   2  23
TORSDOF 7
ENDMDL
MODEL 9
REMARK VINA RESULT:      -6.6      2.831      7.899
REMARK  Name = 
REMARK  8 active torsions:
REMARK  status: ('A' for Active; 'I' for Inactive)
REMARK    1  A    between atoms: C_1  and  C_2
REMARK    2  A    between atoms: C_2  and  C_3
REMARK    3  A    between atoms: C_3  and  O_4
REMARK    4  A    between atoms: O_4  and  C_5
REMARK    5  A    between atoms: C_8  and  C_11
REMARK    6  A    between atoms: C_14  and  C_23
REMARK    7  A    between atoms: C_15  and  C_16
REMARK    8  A    between atoms: C_16  and  C_17
REMARK                            x       y       z     vdW  Elec       q    Type
REMARK                         _______ _______ _______ _____ _____    ______ ____
ROOT
ATOM      1  C   UNL     1       8.759  -1.400  23.409  0.00  0.00    -0.007 A 
ATOM      2  C   UNL     1       8.951  -0.079  24.032  0.00  0.00    -0.015 A 
ATOM      3  C   UNL     1       9.356   0.894  23.096  0.00  0.00    +0.025 A 
ATOM      4  S   UNL     1       9.416   0.208  21.515  0.00  0.00    -0.096 S 
ATOM      5  C   UNL     1       9.081  -1.357  22.070  0.00  0.00    +0.054 A 
ENDROOT
BRANCH   3   6
ATOM      6  C   UNL     1       9.615   2.366  23.231  0.00  0.00    +0.007 A 
ATOM      7  C   UNL     1       8.630   3.363  23.423  0.00  0.00    +0.049 A 
ATOM      8 CL   UNL     1       6.925   3.080  23.285  0.00  0.00    -0.083 Cl
ATOM      9  C   UNL     1       8.989   4.698  23.699  0.00  0.00    +0.020 A 
ATOM     10  C   UNL     1      10.323   5.087  23.742  0.00  0.00    +0.001 A 
ATOM     11  C   UNL     1      11.305   4.146  23.493  0.00  0.00    +0.001 A 
ATOM     12  C   UNL     1      10.950   2.816  23.248  0.00  0.00    +0.010 A 
ENDBRANCH   3   6
BRANCH   1  16
ATOM     13  C   UNL     1       7.653  -4.973  25.546  0.00  0.00    +0.121 A 
ATOM     14  C   UNL     1       6.683  -4.160  24.972  0.00  0.00    +0.046 A 
ATOM     15  C   UNL     1       7.051  -3.058  24.194  0.00  0.00    +0.012 A 
ATOM     16  C   UNL     1       8.390  -2.683  24.046  0.00  0.00    -0.017 A 
ATOM     17  C   UNL     1       9.361  -3.552  24.565  0.00  0.00    +0.012 A 
ATOM     18  C   UNL     1       8.996  -4.696  25.291  0.00  0.00    +0.046 A 
BRANCH  13  19
ATOM     19  O   UNL     1       7.172  -5.986  26.330  0.00  0.00    -0.492 OA
BRANCH  19  20
ATOM     20  C   UNL     1       6.079  -5.644  27.179  0.00  0.00    +0.229 C 
BRANCH  20  22
ATOM     21  C   UNL     1       4.307  -6.852  25.905  0.00  0.00    +0.007 C 
ATOM     22  C   UNL     1       5.080  -6.794  27.212  0.00  0.00    +0.038 C 
ENDBRANCH  20  22
ENDBRANCH  19  20
ENDBRANCH  13  19
ENDBRANCH   1  16
BRANCH   2  23
ATOM     23  C   UNL     1       8.819   0.159  25.527  0.00  0.00    +0.151 C 
BRANCH  23  24
ATOM     24  C   UNL     1       7.552   0.857  26.027  0.00  0.00    +0.280 C 
ATOM     25  N   UNL     1       7.718   2.052  26.719  0.00  0.00    -0.175 N 
ATOM     26  H   UNL     1       8.655   2.397  26.838  0.00  0.00    +0.254 HD
ATOM     27  C   UNL     1       6.753   2.708  27.433  0.00  0.00    +0.375 C 
ATOM     28  N   UNL     1       7.113   3.552  28.330  0.00  0.00    -0.131 NA
ATOM     29  H   UNL     1       8.128   3.620  28.411  0.00  0.00    +0.306 HD
ATOM     30  N   UNL     1       5.444   2.459  27.233  0.00  0.00    -0.291 N 
ATOM     31  H   UNL     1       4.840   2.735  27.995  0.00  0.00    +0.254 HD
ATOM     32  H   UNL     1       5.217   1.584  26.769  0.00  0.00    +0.254 HD
ATOM     33  O   UNL     1       6.447   0.337  25.852  0.00  0.00    -0.257 OA
ENDBRANCH  23  24
ENDBRANCH   2  23
TORSDOF 7
ENDMDL
