MODEL 1
REMARK VINA RESULT:      -6.2      0.000      0.000
REMARK  Name = 
REMARK  6 active torsions:
REMARK  status: ('A' for Active; 'I' for Inactive)
REMARK    1  A    between atoms: C_1  and  C_2
REMARK    2  A    between atoms: C_2  and  C_3
REMARK    3  A    between atoms: C_3  and  O_4
REMARK    4  A    between atoms: O_4  and  C_5
REMARK    5  A    between atoms: C_14  and  O_16
REMARK    6  A    between atoms: O_16  and  C_17
REMARK                            x       y       z     vdW  Elec       q    Type
REMARK                         _______ _______ _______ _____ _____    ______ ____
ROOT
ATOM      1  C   UNL     1      10.409   1.583  23.019  0.00  0.00    +0.123 A 
ATOM      2  C   UNL     1      10.583   1.161  24.344  0.00  0.00    +0.048 A 
ATOM      3  C   UNL     1      10.124  -0.082  24.777  0.00  0.00    +0.033 A 
ATOM      4  C   UNL     1       9.487  -0.914  23.857  0.00  0.00    +0.091 A 
ATOM      5  N   UNL     1       8.960  -2.153  24.056  0.00  0.00    -0.214 NA
ATOM      6  C   UNL     1       8.466  -2.529  22.904  0.00  0.00    +0.203 A 
ATOM      7  N   UNL     1       8.670  -1.557  21.950  0.00  0.00    -0.326 N 
ATOM      8  H   UNL     1       8.385  -1.607  20.984  0.00  0.00    +0.169 HD
ATOM      9  N   UNL     1       7.827  -3.709  22.636  0.00  0.00    -0.221 N 
ATOM     10  H   UNL     1       7.473  -3.929  21.721  0.00  0.00    +0.161 HD
ATOM     11  C   UNL     1       7.635  -4.650  23.616  0.00  0.00    +0.406 C 
ATOM     12  O   UNL     1       7.969  -4.611  24.791  0.00  0.00    -0.226 OA
ATOM     13  C   UNL     1       9.323  -0.499  22.542  0.00  0.00    +0.071 A 
ATOM     14  C   UNL     1       9.775   0.749  22.083  0.00  0.00    +0.073 A 
ENDROOT
BRANCH  11  15
ATOM     15  O   UNL     1       6.975  -5.712  23.071  0.00  0.00    -0.453 OA
ATOM     16  C   UNL     1       7.061  -5.749  21.643  0.00  0.00    +0.282 C 
ENDBRANCH  11  15
BRANCH   1  17
ATOM     17  O   UNL     1      10.824   2.808  22.539  0.00  0.00    -0.492 OA
BRANCH  17  18
ATOM     18  C   UNL     1      11.064   3.796  23.546  0.00  0.00    +0.229 C 
BRANCH  18  20
ATOM     19  C   UNL     1      12.257   5.935  24.028  0.00  0.00    +0.007 C 
ATOM     20  C   UNL     1      12.249   4.676  23.173  0.00  0.00    +0.038 C 
ENDBRANCH  18  20
ENDBRANCH  17  18
ENDBRANCH   1  17
TORSDOF 4
ENDMDL
MODEL 2
REMARK VINA RESULT:      -6.2      1.123      2.017
REMARK  Name = 
REMARK  6 active torsions:
REMARK  status: ('A' for Active; 'I' for Inactive)
REMARK    1  A    between atoms: C_1  and  C_2
REMARK    2  A    between atoms: C_2  and  C_3
REMARK    3  A    between atoms: C_3  and  O_4
REMARK    4  A    between atoms: O_4  and  C_5
REMARK    5  A    between atoms: C_14  and  O_16
REMARK    6  A    between atoms: O_16  and  C_17
REMARK                            x       y       z     vdW  Elec       q    Type
REMARK                         _______ _______ _______ _____ _____    ______ ____
ROOT
ATOM      1  C   UNL     1      10.488   2.153  23.198  0.00  0.00    +0.123 A 
ATOM      2  C   UNL     1       9.951   1.859  21.936  0.00  0.00    +0.048 A 
ATOM      3  C   UNL     1       9.337   0.635  21.676  0.00  0.00    +0.033 A 
ATOM      4  C   UNL     1       9.257  -0.303  22.704  0.00  0.00    +0.091 A 
ATOM      5  N   UNL     1       8.712  -1.550  22.676  0.00  0.00    -0.214 NA
ATOM      6  C   UNL     1       8.881  -2.050  23.873  0.00  0.00    +0.203 A 
ATOM      7  N   UNL     1       9.520  -1.143  24.690  0.00  0.00    -0.326 N 
ATOM      8  H   UNL     1       9.763  -1.287  25.658  0.00  0.00    +0.169 HD
ATOM      9  N   UNL     1       8.496  -3.291  24.301  0.00  0.00    -0.221 N 
ATOM     10  H   UNL     1       8.660  -3.607  25.242  0.00  0.00    +0.161 HD
ATOM     11  C   UNL     1       7.868  -4.170  23.456  0.00  0.00    +0.406 C 
ATOM     12  O   UNL     1       7.566  -4.019  22.281  0.00  0.00    -0.226 OA
ATOM     13  C   UNL     1       9.781  -0.007  23.957  0.00  0.00    +0.071 A 
ATOM     14  C   UNL     1      10.405   1.217  24.243  0.00  0.00    +0.073 A 
ENDROOT
BRANCH  11  15
ATOM     15  O   UNL     1       7.606  -5.318  24.143  0.00  0.00    -0.453 OA
ATOM     16  C   UNL     1       7.407  -5.097  25.543  0.00  0.00    +0.282 C 
ENDBRANCH  11  15
BRANCH   1  17
ATOM     17  O   UNL     1      11.123   3.337  23.508  0.00  0.00    -0.492 OA
BRANCH  17  18
ATOM     18  C   UNL     1      10.246   4.445  23.739  0.00  0.00    +0.229 C 
BRANCH  18  20
ATOM     19  C   UNL     1      12.506   5.492  23.571  0.00  0.00    +0.007 C 
ATOM     20  C   UNL     1      11.018   5.757  23.744  0.00  0.00    +0.038 C 
ENDBRANCH  18  20
ENDBRANCH  17  18
ENDBRANCH   1  17
TORSDOF 4
ENDMDL
MODEL 3
REMARK VINA RESULT:      -6.1      3.229      4.379
REMARK  Name = 
REMARK  6 active torsions:
REMARK  status: ('A' for Active; 'I' for Inactive)
REMARK    1  A    between atoms: C_1  and  C_2
REMARK    2  A    between atoms: C_2  and  C_3
REMARK    3  A    between atoms: C_3  and  O_4
REMARK    4  A    between atoms: O_4  and  C_5
REMARK    5  A    between atoms: C_14  and  O_16
REMARK    6  A    between atoms: O_16  and  C_17
REMARK                            x       y       z     vdW  Elec       q    Type
REMARK                         _______ _______ _______ _____ _____    ______ ____
ROOT
ATOM      1  C   UNL     1       9.831  -1.311  24.051  0.00  0.00    +0.123 A 
ATOM      2  C   UNL     1       9.343  -0.622  25.170  0.00  0.00    +0.048 A 
ATOM      3  C   UNL     1       8.585  -1.268  26.146  0.00  0.00    +0.033 A 
ATOM      4  C   UNL     1       8.321  -2.628  25.993  0.00  0.00    +0.091 A 
ATOM      5  N   UNL     1       7.608  -3.451  26.809  0.00  0.00    -0.214 NA
ATOM      6  C   UNL     1       7.633  -4.634  26.248  0.00  0.00    +0.203 A 
ATOM      7  N   UNL     1       8.363  -4.598  25.080  0.00  0.00    -0.326 N 
ATOM      8  H   UNL     1       8.533  -5.379  24.465  0.00  0.00    +0.169 HD
ATOM      9  N   UNL     1       7.034  -5.772  26.715  0.00  0.00    -0.221 N 
ATOM     10  H   UNL     1       7.099  -6.648  26.227  0.00  0.00    +0.161 HD
ATOM     11  C   UNL     1       6.309  -5.765  27.879  0.00  0.00    +0.406 C 
ATOM     12  O   UNL     1       6.088  -4.833  28.638  0.00  0.00    -0.226 OA
ATOM     13  C   UNL     1       8.814  -3.312  24.888  0.00  0.00    +0.071 A 
ATOM     14  C   UNL     1       9.578  -2.684  23.892  0.00  0.00    +0.073 A 
ENDROOT
BRANCH  11  15
ATOM     15  O   UNL     1       5.831  -7.023  28.097  0.00  0.00    -0.453 OA
ATOM     16  C   UNL     1       4.584  -7.031  28.801  0.00  0.00    +0.282 C 
ENDBRANCH  11  15
BRANCH   1  17
ATOM     17  O   UNL     1      10.569  -0.722  23.045  0.00  0.00    -0.492 OA
BRANCH  17  18
ATOM     18  C   UNL     1       9.923  -0.689  21.768  0.00  0.00    +0.229 C 
BRANCH  18  20
ATOM     19  C   UNL     1      10.037   1.788  22.056  0.00  0.00    +0.007 C 
ATOM     20  C   UNL     1       9.184   0.627  21.566  0.00  0.00    +0.038 C 
ENDBRANCH  18  20
ENDBRANCH  17  18
ENDBRANCH   1  17
TORSDOF 4
ENDMDL
MODEL 4
REMARK VINA RESULT:      -5.8      2.546      3.056
REMARK  Name = 
REMARK  6 active torsions:
REMARK  status: ('A' for Active; 'I' for Inactive)
REMARK    1  A    between atoms: C_1  and  C_2
REMARK    2  A    between atoms: C_2  and  C_3
REMARK    3  A    between atoms: C_3  and  O_4
REMARK    4  A    between atoms: O_4  and  C_5
REMARK    5  A    between atoms: C_14  and  O_16
REMARK    6  A    between atoms: O_16  and  C_17
REMARK                            x       y       z     vdW  Elec       q    Type
REMARK                         _______ _______ _______ _____ _____    ______ ____
ROOT
ATOM      1  C   UNL     1       8.371   1.047  21.886  0.00  0.00    +0.123 A 
ATOM      2  C   UNL     1       9.661   0.540  21.679  0.00  0.00    +0.048 A 
ATOM      3  C   UNL     1      10.066  -0.668  22.245  0.00  0.00    +0.033 A 
ATOM      4  C   UNL     1       9.154  -1.377  23.026  0.00  0.00    +0.091 A 
ATOM      5  N   UNL     1       9.331  -2.561  23.672  0.00  0.00    -0.214 NA
ATOM      6  C   UNL     1       8.199  -2.821  24.276  0.00  0.00    +0.203 A 
ATOM      7  N   UNL     1       7.278  -1.827  24.024  0.00  0.00    -0.326 N 
ATOM      8  H   UNL     1       6.332  -1.796  24.372  0.00  0.00    +0.169 HD
ATOM      9  N   UNL     1       7.920  -3.910  25.056  0.00  0.00    -0.221 N 
ATOM     10  H   UNL     1       7.022  -4.042  25.488  0.00  0.00    +0.161 HD
ATOM     11  C   UNL     1       8.867  -4.875  25.290  0.00  0.00    +0.406 C 
ATOM     12  O   UNL     1      10.017  -4.934  24.882  0.00  0.00    -0.226 OA
ATOM     13  C   UNL     1       7.873  -0.878  23.223  0.00  0.00    +0.071 A 
ATOM     14  C   UNL     1       7.442   0.337  22.666  0.00  0.00    +0.073 A 
ENDROOT
BRANCH  11  15
ATOM     15  O   UNL     1       8.319  -5.830  26.095  0.00  0.00    -0.453 OA
ATOM     16  C   UNL     1       7.481  -5.283  27.118  0.00  0.00    +0.282 C 
ENDBRANCH  11  15
BRANCH   1  17
ATOM     17  O   UNL     1       7.920   2.244  21.369  0.00  0.00    -0.492 OA
BRANCH  17  18
ATOM     18  C   UNL     1       6.936   2.909  22.168  0.00  0.00    +0.229 C 
BRANCH  18  20
ATOM     19  C   UNL     1       8.341   4.536  23.437  0.00  0.00    +0.007 C 
ATOM     20  C   UNL     1       7.287   4.379  22.351  0.00  0.00    +0.038 C 
ENDBRANCH  18  20
ENDBRANCH  17  18
ENDBRANCH   1  17
TORSDOF 4
ENDMDL
MODEL 5
REMARK VINA RESULT:      -5.8      1.833      7.558
REMARK  Name = 
REMARK  6 active torsions:
REMARK  status: ('A' for Active; 'I' for Inactive)
REMARK    1  A    between atoms: C_1  and  C_2
REMARK    2  A    between atoms: C_2  and  C_3
REMARK    3  A    between atoms: C_3  and  O_4
REMARK    4  A    between atoms: O_4  and  C_5
REMARK    5  A    between atoms: C_14  and  O_16
REMARK    6  A    between atoms: O_16  and  C_17
REMARK                            x       y       z     vdW  Elec       q    Type
REMARK                         _______ _______ _______ _____ _____    ______ ____
ROOT
ATOM      1  C   UNL     1       7.503  -4.926  23.133  0.00  0.00    +0.123 A 
ATOM      2  C   UNL     1       8.326  -5.036  24.263  0.00  0.00    +0.048 A 
ATOM      3  C   UNL     1       9.094  -3.961  24.709  0.00  0.00    +0.033 A 
ATOM      4  C   UNL     1       9.026  -2.757  24.010  0.00  0.00    +0.091 A 
ATOM      5  N   UNL     1       9.683  -1.592  24.260  0.00  0.00    -0.214 NA
ATOM      6  C   UNL     1       9.302  -0.751  23.332  0.00  0.00    +0.203 A 
ATOM      7  N   UNL     1       8.395  -1.347  22.483  0.00  0.00    -0.326 N 
ATOM      8  H   UNL     1       7.951  -0.909  21.691  0.00  0.00    +0.169 HD
ATOM      9  N   UNL     1       9.717   0.544  23.184  0.00  0.00    -0.221 N 
ATOM     10  H   UNL     1       9.377   1.133  22.443  0.00  0.00    +0.161 HD
ATOM     11  C   UNL     1      10.628   1.100  24.045  0.00  0.00    +0.406 C 
ATOM     12  O   UNL     1      11.180   0.590  25.009  0.00  0.00    -0.226 OA
ATOM     13  C   UNL     1       8.203  -2.646  22.895  0.00  0.00    +0.071 A 
ATOM     14  C   UNL     1       7.422  -3.714  22.425  0.00  0.00    +0.073 A 
ENDROOT
BRANCH  11  15
ATOM     15  O   UNL     1      10.857   2.388  23.660  0.00  0.00    -0.453 OA
ATOM     16  C   UNL     1       9.688   3.211  23.745  0.00  0.00    +0.282 C 
ENDBRANCH  11  15
BRANCH   1  17
ATOM     17  O   UNL     1       6.738  -5.958  22.633  0.00  0.00    -0.492 OA
BRANCH  17  18
ATOM     18  C   UNL     1       5.405  -5.591  22.262  0.00  0.00    +0.229 C 
BRANCH  18  20
ATOM     19  C   UNL     1       4.568  -6.863  24.240  0.00  0.00    +0.007 C 
ATOM     20  C   UNL     1       4.493  -5.547  23.481  0.00  0.00    +0.038 C 
ENDBRANCH  18  20
ENDBRANCH  17  18
ENDBRANCH   1  17
TORSDOF 4
ENDMDL
MODEL 6
REMARK VINA RESULT:      -5.7      2.792      8.158
REMARK  Name = 
REMARK  6 active torsions:
REMARK  status: ('A' for Active; 'I' for Inactive)
REMARK    1  A    between atoms: C_1  and  C_2
REMARK    2  A    between atoms: C_2  and  C_3
REMARK    3  A    between atoms: C_3  and  O_4
REMARK    4  A    between atoms: O_4  and  C_5
REMARK    5  A    between atoms: C_14  and  O_16
REMARK    6  A    between atoms: O_16  and  C_17
REMARK                            x       y       z     vdW  Elec       q    Type
REMARK                         _______ _______ _______ _____ _____    ______ ____
ROOT
ATOM      1  C   UNL     1       4.760  -5.339  22.677  0.00  0.00    +0.123 A 
ATOM      2  C   UNL     1       5.962  -6.013  22.415  0.00  0.00    +0.048 A 
ATOM      3  C   UNL     1       7.169  -5.326  22.298  0.00  0.00    +0.033 A 
ATOM      4  C   UNL     1       7.165  -3.941  22.454  0.00  0.00    +0.091 A 
ATOM      5  N   UNL     1       8.212  -3.075  22.378  0.00  0.00    -0.214 NA
ATOM      6  C   UNL     1       7.717  -1.882  22.587  0.00  0.00    +0.203 A 
ATOM      7  N   UNL     1       6.359  -1.955  22.810  0.00  0.00    -0.326 N 
ATOM      8  H   UNL     1       5.748  -1.176  22.998  0.00  0.00    +0.169 HD
ATOM      9  N   UNL     1       8.407  -0.701  22.593  0.00  0.00    -0.221 N 
ATOM     10  H   UNL     1       7.955   0.181  22.763  0.00  0.00    +0.161 HD
ATOM     11  C   UNL     1       9.758  -0.668  22.359  0.00  0.00    +0.406 C 
ATOM     12  O   UNL     1      10.518  -1.596  22.128  0.00  0.00    -0.226 OA
ATOM     13  C   UNL     1       5.976  -3.275  22.723  0.00  0.00    +0.071 A 
ATOM     14  C   UNL     1       4.747  -3.944  22.844  0.00  0.00    +0.073 A 
ENDROOT
BRANCH  11  15
ATOM     15  O   UNL     1      10.176   0.629  22.422  0.00  0.00    -0.453 OA
ATOM     16  C   UNL     1       9.261   1.540  21.803  0.00  0.00    +0.282 C 
ENDBRANCH  11  15
BRANCH   1  17
ATOM     17  O   UNL     1       3.534  -5.962  22.784  0.00  0.00    -0.492 OA
BRANCH  17  18
ATOM     18  C   UNL     1       3.015  -6.038  24.116  0.00  0.00    +0.229 C 
BRANCH  18  20
ATOM     19  C   UNL     1       4.437  -6.841  26.004  0.00  0.00    +0.007 C 
ATOM     20  C   UNL     1       3.552  -7.264  24.841  0.00  0.00    +0.038 C 
ENDBRANCH  18  20
ENDBRANCH  17  18
ENDBRANCH   1  17
TORSDOF 4
ENDMDL
MODEL 7
REMARK VINA RESULT:      -5.7      1.733      2.169
REMARK  Name = 
REMARK  6 active torsions:
REMARK  status: ('A' for Active; 'I' for Inactive)
REMARK    1  A    between atoms: C_1  and  C_2
REMARK    2  A    between atoms: C_2  and  C_3
REMARK    3  A    between atoms: C_3  and  O_4
REMARK    4  A    between atoms: O_4  and  C_5
REMARK    5  A    between atoms: C_14  and  O_16
REMARK    6  A    between atoms: O_16  and  C_17
REMARK                            x       y       z     vdW  Elec       q    Type
REMARK                         _______ _______ _______ _____ _____    ______ ____
ROOT
ATOM      1  C   UNL     1       9.088   1.500  22.891  0.00  0.00    +0.123 A 
ATOM      2  C   UNL     1      10.016   0.603  22.342  0.00  0.00    +0.048 A 
ATOM      3  C   UNL     1       9.672  -0.720  22.068  0.00  0.00    +0.033 A 
ATOM      4  C   UNL     1       8.373  -1.142  22.345  0.00  0.00    +0.091 A 
ATOM      5  N   UNL     1       7.824  -2.374  22.165  0.00  0.00    -0.214 NA
ATOM      6  C   UNL     1       6.584  -2.286  22.575  0.00  0.00    +0.203 A 
ATOM      7  N   UNL     1       6.310  -1.008  23.012  0.00  0.00    -0.326 N 
ATOM      8  H   UNL     1       5.426  -0.684  23.374  0.00  0.00    +0.169 HD
ATOM      9  N   UNL     1       5.655  -3.290  22.589  0.00  0.00    -0.221 N 
ATOM     10  H   UNL     1       4.716  -3.145  22.920  0.00  0.00    +0.161 HD
ATOM     11  C   UNL     1       5.968  -4.552  22.152  0.00  0.00    +0.406 C 
ATOM     12  O   UNL     1       7.030  -4.968  21.713  0.00  0.00    -0.226 OA
ATOM     13  C   UNL     1       7.451  -0.250  22.880  0.00  0.00    +0.071 A 
ATOM     14  C   UNL     1       7.774   1.086  23.167  0.00  0.00    +0.073 A 
ENDROOT
BRANCH  11  15
ATOM     15  O   UNL     1       4.863  -5.340  22.281  0.00  0.00    -0.453 OA
ATOM     16  C   UNL     1       4.592  -5.702  23.640  0.00  0.00    +0.282 C 
ENDBRANCH  11  15
BRANCH   1  17
ATOM     17  O   UNL     1       9.376   2.813  23.201  0.00  0.00    -0.492 OA
BRANCH  17  18
ATOM     18  C   UNL     1      10.763   3.085  23.427  0.00  0.00    +0.229 C 
BRANCH  18  20
ATOM     19  C   UNL     1      12.408   4.956  23.268  0.00  0.00    +0.007 C 
ATOM     20  C   UNL     1      10.993   4.570  23.671  0.00  0.00    +0.038 C 
ENDBRANCH  18  20
ENDBRANCH  17  18
ENDBRANCH   1  17
TORSDOF 4
ENDMDL
MODEL 8
REMARK VINA RESULT:      -5.6      2.305      7.400
REMARK  Name = 
REMARK  6 active torsions:
REMARK  status: ('A' for Active; 'I' for Inactive)
REMARK    1  A    between atoms: C_1  and  C_2
REMARK    2  A    between atoms: C_2  and  C_3
REMARK    3  A    between atoms: C_3  and  O_4
REMARK    4  A    between atoms: O_4  and  C_5
REMARK    5  A    between atoms: C_14  and  O_16
REMARK    6  A    between atoms: O_16  and  C_17
REMARK                            x       y       z     vdW  Elec       q    Type
REMARK                         _______ _______ _______ _____ _____    ______ ____
ROOT
ATOM      1  C   UNL     1       8.690  -3.118  23.950  0.00  0.00    +0.123 A 
ATOM      2  C   UNL     1       7.452  -2.466  23.858  0.00  0.00    +0.048 A 
ATOM      3  C   UNL     1       7.367  -1.078  23.771  0.00  0.00    +0.033 A 
ATOM      4  C   UNL     1       8.547  -0.337  23.771  0.00  0.00    +0.091 A 
ATOM      5  N   UNL     1       8.702   1.014  23.700  0.00  0.00    -0.214 NA
ATOM      6  C   UNL     1       9.991   1.237  23.739  0.00  0.00    +0.203 A 
ATOM      7  N   UNL     1      10.684   0.049  23.825  0.00  0.00    -0.326 N 
ATOM      8  H   UNL     1      11.687  -0.048  23.866  0.00  0.00    +0.169 HD
ATOM      9  N   UNL     1      10.610   2.457  23.705  0.00  0.00    -0.221 N 
ATOM     10  H   UNL     1      11.611   2.549  23.739  0.00  0.00    +0.161 HD
ATOM     11  C   UNL     1       9.884   3.618  23.628  0.00  0.00    +0.406 C 
ATOM     12  O   UNL     1       8.671   3.762  23.579  0.00  0.00    -0.226 OA
ATOM     13  C   UNL     1       9.774  -0.983  23.853  0.00  0.00    +0.071 A 
ATOM     14  C   UNL     1       9.885  -2.380  23.943  0.00  0.00    +0.073 A 
ENDROOT
BRANCH  11  15
ATOM     15  O   UNL     1      10.752   4.670  23.613  0.00  0.00    -0.453 OA
ATOM     16  C   UNL     1      10.094   5.938  23.690  0.00  0.00    +0.282 C 
ENDBRANCH  11  15
BRANCH   1  17
ATOM     17  O   UNL     1       8.835  -4.485  24.058  0.00  0.00    -0.492 OA
BRANCH  17  18
ATOM     18  C   UNL     1       9.575  -4.921  25.203  0.00  0.00    +0.229 C 
BRANCH  18  20
ATOM     19  C   UNL     1       7.463  -5.407  26.442  0.00  0.00    +0.007 C 
ATOM     20  C   UNL     1       8.793  -4.668  26.484  0.00  0.00    +0.038 C 
ENDBRANCH  18  20
ENDBRANCH  17  18
ENDBRANCH   1  17
TORSDOF 4
ENDMDL
MODEL 9
REMARK VINA RESULT:      -5.6      2.480      7.687
REMARK  Name = 
REMARK  6 active torsions:
REMARK  status: ('A' for Active; 'I' for Inactive)
REMARK    1  A    between atoms: C_1  and  C_2
REMARK    2  A    between atoms: C_2  and  C_3
REMARK    3  A    between atoms: C_3  and  O_4
REMARK    4  A    between atoms: O_4  and  C_5
REMARK    5  A    between atoms: C_14  and  O_16
REMARK    6  A    between atoms: O_16  and  C_17
REMARK                            x       y       z     vdW  Elec       q    Type
REMARK                         _______ _______ _______ _____ _____    ______ ____
ROOT
ATOM      1  C   UNL     1       7.879  -1.610  22.553  0.00  0.00    +0.123 A 
ATOM      2  C   UNL     1       7.000  -0.961  23.433  0.00  0.00    +0.048 A 
ATOM      3  C   UNL     1       7.232   0.346  23.857  0.00  0.00    +0.033 A 
ATOM      4  C   UNL     1       8.362   1.010  23.383  0.00  0.00    +0.091 A 
ATOM      5  N   UNL     1       8.785   2.273  23.664  0.00  0.00    -0.214 NA
ATOM      6  C   UNL     1       9.894   2.446  22.990  0.00  0.00    +0.203 A 
ATOM      7  N   UNL     1      10.198   1.316  22.263  0.00  0.00    -0.326 N 
ATOM      8  H   UNL     1      10.999   1.198  21.662  0.00  0.00    +0.169 HD
ATOM      9  N   UNL     1      10.676   3.569  22.978  0.00  0.00    -0.221 N 
ATOM     10  H   UNL     1      11.518   3.628  22.432  0.00  0.00    +0.161 HD
ATOM     11  C   UNL     1      10.343   4.672  23.723  0.00  0.00    +0.406 C 
ATOM     12  O   UNL     1       9.382   4.838  24.459  0.00  0.00    -0.226 OA
ATOM     13  C   UNL     1       9.227   0.370  22.504  0.00  0.00    +0.071 A 
ATOM     14  C   UNL     1       9.016  -0.946  22.063  0.00  0.00    +0.073 A 
ENDROOT
BRANCH  11  15
ATOM     15  O   UNL     1      11.293   5.630  23.522  0.00  0.00    -0.453 OA
ATOM     16  C   UNL     1      12.599   5.085  23.310  0.00  0.00    +0.282 C 
ENDBRANCH  11  15
BRANCH   1  17
ATOM     17  O   UNL     1       7.712  -2.907  22.114  0.00  0.00    -0.492 OA
BRANCH  17  18
ATOM     18  C   UNL     1       7.754  -3.898  23.145  0.00  0.00    +0.229 C 
BRANCH  18  20
ATOM     19  C   UNL     1       7.043  -5.817  21.715  0.00  0.00    +0.007 C 
ATOM     20  C   UNL     1       6.687  -4.961  22.922  0.00  0.00    +0.038 C 
ENDBRANCH  18  20
ENDBRANCH  17  18
ENDBRANCH   1  17
TORSDOF 4
ENDMDL
