MODEL 1
REMARK VINA RESULT:      -6.9      0.000      0.000
REMARK  Name = 
REMARK  13 active torsions:
REMARK  status: ('A' for Active; 'I' for Inactive)
REMARK    1  A    between atoms: C_5  and  C_6
REMARK    2  A    between atoms: C_6  and  S_7
REMARK    3  A    between atoms: S_7  and  C_8
REMARK    4  A    between atoms: N_12  and  C_13
REMARK    5  A    between atoms: C_13  and  C_14
REMARK    6  A    between atoms: C_14  and  N_15
REMARK    7  A    between atoms: N_15  and  C_16
REMARK    8  A    between atoms: N_15  and  C_17
REMARK    9  A    between atoms: CA_18  and  C_34
REMARK   10  A    between atoms: CA_22  and  N_24
REMARK   11  A    between atoms: C_25  and  C_27
REMARK   12  A    between atoms: C_27  and  C_28
REMARK   13  A    between atoms: C_34  and  O_35
REMARK                            x       y       z     vdW  Elec       q    Type
REMARK                         _______ _______ _______ _____ _____    ______ ____
ROOT
ATOM      1  C   UNL     1       7.252  -2.200  26.677  0.00  0.00    +0.169 C 
ATOM      2  CA  UNL     1       8.536  -2.376  25.801  0.00  0.00    +0.191 C 
ATOM      3  C   UNL     1       8.360  -3.890  26.137  0.00  0.00    +0.244 C 
ATOM      4  O   UNL     1       8.883  -4.947  25.858  0.00  0.00    -0.273 OA
ATOM      5  N   UNL     1       7.198  -3.649  26.778  0.00  0.00    -0.249 N 
ATOM      6  CA  UNL     1       6.147  -4.361  27.292  0.00  0.00    +0.123 C 
ATOM      7  C   UNL     1       4.935  -3.759  27.459  0.00  0.00    -0.021 C 
ATOM      8  C   UNL     1       4.642  -2.321  27.043  0.00  0.00    +0.104 C 
ATOM      9  S   UNL     1       5.770  -1.646  25.803  0.00  0.00    -0.131 S 
ENDROOT
BRANCH   2  10
ATOM     10  N   UNL     1       8.417  -2.029  24.354  0.00  0.00    -0.301 N 
ATOM     11  H   UNL     1       7.633  -1.469  24.033  0.00  0.00    +0.150 HD
ATOM     12  C   UNL     1       9.426  -2.281  23.452  0.00  0.00    +0.220 C 
ATOM     13  O   UNL     1      10.441  -2.905  23.753  0.00  0.00    -0.275 OA
BRANCH  12  14
ATOM     14  C   UNL     1       9.205  -1.704  22.070  0.00  0.00    +0.151 C 
BRANCH  14  15
ATOM     15  C   UNL     1       8.734  -0.294  22.144  0.00  0.00    +0.059 A 
ATOM     16  N   UNL     1       7.412  -0.050  22.494  0.00  0.00    -0.230 NA
ATOM     17  C   UNL     1       7.181   1.241  22.520  0.00  0.00    +0.156 A 
ATOM     18  N   UNL     1       5.988   1.770  22.830  0.00  0.00    -0.338 N 
ATOM     19  H   UNL     1       5.333   1.153  23.295  0.00  0.00    +0.144 HD
ATOM     20  H   UNL     1       5.960   2.730  23.149  0.00  0.00    +0.144 HD
ATOM     21  S   UNL     1       8.529   2.239  22.151  0.00  0.00    -0.061 S 
ATOM     22  C   UNL     1       9.491   0.841  21.924  0.00  0.00    +0.072 A 
ENDBRANCH  14  15
ENDBRANCH  12  14
ENDBRANCH   2  10
BRANCH   6  23
ATOM     23  C   UNL     1       6.323  -5.820  27.670  0.00  0.00    +0.351 C 
ATOM     24  OXT UNL     1       6.887  -6.178  28.694  0.00  0.00    -0.244 OA
BRANCH  23  25
ATOM     25  O   UNL     1       5.855  -6.747  26.817  0.00  0.00    -0.476 OA
ATOM     26  H   UNL     1       5.150  -7.359  27.122  0.00  0.00    +0.295 HD
ENDBRANCH  23  25
ENDBRANCH   6  23
BRANCH   7  27
ATOM     27  C   UNL     1       3.658  -4.458  27.941  0.00  0.00    +0.111 C 
BRANCH  27  28
ATOM     28  S   UNL     1       2.408  -4.643  26.618  0.00  0.00    -0.080 S 
BRANCH  28  29
ATOM     29  C   UNL     1       3.015  -5.963  25.693  0.00  0.00    +0.210 A 
ATOM     30  N   UNL     1       3.863  -5.862  24.622  0.00  0.00    -0.219 N 
ATOM     31  N   UNL     1       4.201  -7.105  24.217  0.00  0.00    -0.043 NA
ATOM     32  N   UNL     1       3.519  -7.931  24.996  0.00  0.00    -0.022 NA
ATOM     33  N   UNL     1       2.769  -7.236  25.908  0.00  0.00    -0.102 NA
BRANCH  30  34
ATOM     34  C   UNL     1       4.369  -4.724  23.875  0.00  0.00    +0.163 C 
BRANCH  34  35
ATOM     35  C   UNL     1       5.885  -4.865  23.646  0.00  0.00    +0.107 C 
BRANCH  35  36
ATOM     36  N   UNL     1       6.410  -4.441  22.329  0.00  0.00    -0.307 NA
ATOM     37  C   UNL     1       5.729  -3.199  21.923  0.00  0.00    +0.104 C 
ATOM     38  C   UNL     1       6.202  -5.442  21.276  0.00  0.00    +0.104 C 
ENDBRANCH  35  36
ENDBRANCH  34  35
ENDBRANCH  30  34
ENDBRANCH  28  29
ENDBRANCH  27  28
ENDBRANCH   7  27
TORSDOF 11
ENDMDL
MODEL 2
REMARK VINA RESULT:      -6.7      1.894      2.969
REMARK  Name = 
REMARK  13 active torsions:
REMARK  status: ('A' for Active; 'I' for Inactive)
REMARK    1  A    between atoms: C_5  and  C_6
REMARK    2  A    between atoms: C_6  and  S_7
REMARK    3  A    between atoms: S_7  and  C_8
REMARK    4  A    between atoms: N_12  and  C_13
REMARK    5  A    between atoms: C_13  and  C_14
REMARK    6  A    between atoms: C_14  and  N_15
REMARK    7  A    between atoms: N_15  and  C_16
REMARK    8  A    between atoms: N_15  and  C_17
REMARK    9  A    between atoms: CA_18  and  C_34
REMARK   10  A    between atoms: CA_22  and  N_24
REMARK   11  A    between atoms: C_25  and  C_27
REMARK   12  A    between atoms: C_27  and  C_28
REMARK   13  A    between atoms: C_34  and  O_35
REMARK                            x       y       z     vdW  Elec       q    Type
REMARK                         _______ _______ _______ _____ _____    ______ ____
ROOT
ATOM      1  C   UNL     1       8.770  -1.267  25.642  0.00  0.00    +0.169 C 
ATOM      2  CA  UNL     1       9.478  -0.598  24.418  0.00  0.00    +0.191 C 
ATOM      3  C   UNL     1       9.813  -2.069  24.016  0.00  0.00    +0.244 C 
ATOM      4  O   UNL     1      10.350  -2.659  23.104  0.00  0.00    -0.273 OA
ATOM      5  N   UNL     1       9.083  -2.553  25.042  0.00  0.00    -0.249 N 
ATOM      6  CA  UNL     1       8.591  -3.758  25.466  0.00  0.00    +0.123 C 
ATOM      7  C   UNL     1       7.512  -3.796  26.300  0.00  0.00    -0.021 C 
ATOM      8  C   UNL     1       6.755  -2.553  26.758  0.00  0.00    +0.104 C 
ATOM      9  S   UNL     1       6.972  -1.102  25.703  0.00  0.00    -0.131 S 
ENDROOT
BRANCH   2  10
ATOM     10  N   UNL     1       8.605   0.138  23.456  0.00  0.00    -0.301 N 
ATOM     11  H   UNL     1       7.656   0.382  23.722  0.00  0.00    +0.150 HD
ATOM     12  C   UNL     1       9.088   0.669  22.282  0.00  0.00    +0.220 C 
ATOM     13  O   UNL     1      10.239   0.477  21.895  0.00  0.00    -0.275 OA
BRANCH  12  14
ATOM     14  C   UNL     1       8.107   1.531  21.519  0.00  0.00    +0.151 C 
BRANCH  14  15
ATOM     15  C   UNL     1       7.802   2.786  22.261  0.00  0.00    +0.059 A 
ATOM     16  N   UNL     1       8.749   3.282  23.148  0.00  0.00    -0.230 NA
ATOM     17  C   UNL     1       8.317   4.392  23.697  0.00  0.00    +0.156 A 
ATOM     18  N   UNL     1       9.025   5.095  24.593  0.00  0.00    -0.338 N 
ATOM     19  H   UNL     1      10.014   4.883  24.647  0.00  0.00    +0.144 HD
ATOM     20  H   UNL     1       8.797   6.073  24.722  0.00  0.00    +0.144 HD
ATOM     21  S   UNL     1       6.770   4.921  23.172  0.00  0.00    -0.061 S 
ATOM     22  C   UNL     1       6.661   3.556  22.146  0.00  0.00    +0.072 A 
ENDBRANCH  14  15
ENDBRANCH  12  14
ENDBRANCH   2  10
BRANCH   6  23
ATOM     23  C   UNL     1       9.235  -5.053  25.007  0.00  0.00    +0.351 C 
ATOM     24  OXT UNL     1       8.903  -5.633  23.983  0.00  0.00    -0.244 OA
BRANCH  23  25
ATOM     25  O   UNL     1      10.191  -5.586  25.786  0.00  0.00    -0.476 OA
ATOM     26  H   UNL     1       9.966  -5.830  26.711  0.00  0.00    +0.295 HD
ENDBRANCH  23  25
ENDBRANCH   6  23
BRANCH   7  27
ATOM     27  C   UNL     1       6.809  -5.071  26.781  0.00  0.00    +0.111 C 
BRANCH  27  28
ATOM     28  S   UNL     1       5.000  -4.862  26.954  0.00  0.00    -0.080 S 
BRANCH  28  29
ATOM     29  C   UNL     1       4.368  -6.131  25.975  0.00  0.00    +0.210 A 
ATOM     30  N   UNL     1       4.736  -6.398  24.683  0.00  0.00    -0.219 N 
ATOM     31  N   UNL     1       4.107  -7.522  24.277  0.00  0.00    -0.043 NA
ATOM     32  N   UNL     1       3.334  -7.883  25.290  0.00  0.00    -0.022 NA
ATOM     33  N   UNL     1       3.476  -7.022  26.345  0.00  0.00    -0.102 NA
BRANCH  30  34
ATOM     34  C   UNL     1       5.578  -5.690  23.736  0.00  0.00    +0.163 C 
BRANCH  34  35
ATOM     35  C   UNL     1       4.815  -4.499  23.127  0.00  0.00    +0.107 C 
BRANCH  35  36
ATOM     36  N   UNL     1       5.428  -3.833  21.956  0.00  0.00    -0.307 NA
ATOM     37  C   UNL     1       6.213  -4.825  21.202  0.00  0.00    +0.104 C 
ATOM     38  C   UNL     1       6.320  -2.727  22.324  0.00  0.00    +0.104 C 
ENDBRANCH  35  36
ENDBRANCH  34  35
ENDBRANCH  30  34
ENDBRANCH  28  29
ENDBRANCH  27  28
ENDBRANCH   7  27
TORSDOF 11
ENDMDL
MODEL 3
REMARK VINA RESULT:      -6.5      4.255      6.499
REMARK  Name = 
REMARK  13 active torsions:
REMARK  status: ('A' for Active; 'I' for Inactive)
REMARK    1  A    between atoms: C_5  and  C_6
REMARK    2  A    between atoms: C_6  and  S_7
REMARK    3  A    between atoms: S_7  and  C_8
REMARK    4  A    between atoms: N_12  and  C_13
REMARK    5  A    between atoms: C_13  and  C_14
REMARK    6  A    between atoms: C_14  and  N_15
REMARK    7  A    between atoms: N_15  and  C_16
REMARK    8  A    between atoms: N_15  and  C_17
REMARK    9  A    between atoms: CA_18  and  C_34
REMARK   10  A    between atoms: CA_22  and  N_24
REMARK   11  A    between atoms: C_25  and  C_27
REMARK   12  A    between atoms: C_27  and  C_28
REMARK   13  A    between atoms: C_34  and  O_35
REMARK                            x       y       z     vdW  Elec       q    Type
REMARK                         _______ _______ _______ _____ _____    ______ ____
ROOT
ATOM      1  C   UNL     1       9.118   1.798  22.797  0.00  0.00    +0.169 C 
ATOM      2  CA  UNL     1       8.312   3.070  22.373  0.00  0.00    +0.191 C 
ATOM      3  C   UNL     1       7.065   2.176  22.662  0.00  0.00    +0.244 C 
ATOM      4  O   UNL     1       5.858   2.281  22.672  0.00  0.00    -0.273 OA
ATOM      5  N   UNL     1       7.845   1.174  23.116  0.00  0.00    -0.249 N 
ATOM      6  CA  UNL     1       7.698  -0.013  23.782  0.00  0.00    +0.123 C 
ATOM      7  C   UNL     1       8.750  -0.539  24.474  0.00  0.00    -0.021 C 
ATOM      8  C   UNL     1      10.101   0.155  24.612  0.00  0.00    +0.104 C 
ATOM      9  S   UNL     1      10.070   1.939  24.326  0.00  0.00    -0.131 S 
ENDROOT
BRANCH   2  10
ATOM     10  N   UNL     1       8.445   4.273  23.247  0.00  0.00    -0.301 N 
ATOM     11  H   UNL     1       8.925   4.198  24.138  0.00  0.00    +0.150 HD
ATOM     12  C   UNL     1       8.105   5.536  22.817  0.00  0.00    +0.220 C 
ATOM     13  O   UNL     1       7.568   5.741  21.730  0.00  0.00    -0.275 OA
BRANCH  12  14
ATOM     14  C   UNL     1       8.471   6.654  23.767  0.00  0.00    +0.151 C 
BRANCH  14  15
ATOM     15  C   UNL     1       9.894   6.554  24.194  0.00  0.00    +0.059 A 
ATOM     16  N   UNL     1      10.805   5.943  23.341  0.00  0.00    -0.230 NA
ATOM     17  C   UNL     1      12.004   5.957  23.874  0.00  0.00    +0.156 A 
ATOM     18  N   UNL     1      13.083   5.438  23.271  0.00  0.00    -0.338 N 
ATOM     19  H   UNL     1      12.998   5.259  22.277  0.00  0.00    +0.144 HD
ATOM     20  H   UNL     1      13.996   5.763  23.563  0.00  0.00    +0.144 HD
ATOM     21  S   UNL     1      12.120   6.718  25.408  0.00  0.00    -0.061 S 
ATOM     22  C   UNL     1      10.440   7.039  25.368  0.00  0.00    +0.072 A 
ENDBRANCH  14  15
ENDBRANCH  12  14
ENDBRANCH   2  10
BRANCH   6  23
ATOM     23  C   UNL     1       6.369  -0.744  23.762  0.00  0.00    +0.351 C 
ATOM     24  OXT UNL     1       5.563  -0.683  24.680  0.00  0.00    -0.244 OA
BRANCH  23  25
ATOM     25  O   UNL     1       6.093  -1.510  22.693  0.00  0.00    -0.476 OA
ATOM     26  H   UNL     1       6.162  -2.486  22.780  0.00  0.00    +0.295 HD
ENDBRANCH  23  25
ENDBRANCH   6  23
BRANCH   7  27
ATOM     27  C   UNL     1       8.700  -1.810  25.330  0.00  0.00    +0.111 C 
BRANCH  27  28
ATOM     28  S   UNL     1       9.413  -3.266  24.482  0.00  0.00    -0.080 S 
BRANCH  28  29
ATOM     29  C   UNL     1       8.026  -4.047  23.822  0.00  0.00    +0.210 A 
ATOM     30  N   UNL     1       7.174  -4.870  24.509  0.00  0.00    -0.219 N 
ATOM     31  N   UNL     1       6.152  -5.213  23.695  0.00  0.00    -0.043 NA
ATOM     32  N   UNL     1       6.424  -4.651  22.527  0.00  0.00    -0.022 NA
ATOM     33  N   UNL     1       7.590  -3.935  22.587  0.00  0.00    -0.102 NA
BRANCH  30  34
ATOM     34  C   UNL     1       7.221  -5.437  25.844  0.00  0.00    +0.163 C 
BRANCH  34  35
ATOM     35  C   UNL     1       5.811  -5.466  26.463  0.00  0.00    +0.107 C 
BRANCH  35  36
ATOM     36  N   UNL     1       5.280  -6.787  26.871  0.00  0.00    -0.307 NA
ATOM     37  C   UNL     1       4.062  -7.069  26.092  0.00  0.00    +0.104 C 
ATOM     38  C   UNL     1       4.939  -6.854  28.296  0.00  0.00    +0.104 C 
ENDBRANCH  35  36
ENDBRANCH  34  35
ENDBRANCH  30  34
ENDBRANCH  28  29
ENDBRANCH  27  28
ENDBRANCH   7  27
TORSDOF 11
ENDMDL
MODEL 4
REMARK VINA RESULT:      -6.5      2.797      8.170
REMARK  Name = 
REMARK  13 active torsions:
REMARK  status: ('A' for Active; 'I' for Inactive)
REMARK    1  A    between atoms: C_5  and  C_6
REMARK    2  A    between atoms: C_6  and  S_7
REMARK    3  A    between atoms: S_7  and  C_8
REMARK    4  A    between atoms: N_12  and  C_13
REMARK    5  A    between atoms: C_13  and  C_14
REMARK    6  A    between atoms: C_14  and  N_15
REMARK    7  A    between atoms: N_15  and  C_16
REMARK    8  A    between atoms: N_15  and  C_17
REMARK    9  A    between atoms: CA_18  and  C_34
REMARK   10  A    between atoms: CA_22  and  N_24
REMARK   11  A    between atoms: C_25  and  C_27
REMARK   12  A    between atoms: C_27  and  C_28
REMARK   13  A    between atoms: C_34  and  O_35
REMARK                            x       y       z     vdW  Elec       q    Type
REMARK                         _______ _______ _______ _____ _____    ______ ____
ROOT
ATOM      1  C   UNL     1       5.545  -3.669  23.376  0.00  0.00    +0.169 C 
ATOM      2  CA  UNL     1       5.568  -5.189  23.005  0.00  0.00    +0.191 C 
ATOM      3  C   UNL     1       7.118  -5.002  23.022  0.00  0.00    +0.244 C 
ATOM      4  O   UNL     1       8.113  -5.679  22.889  0.00  0.00    -0.273 OA
ATOM      5  N   UNL     1       6.995  -3.730  23.452  0.00  0.00    -0.249 N 
ATOM      6  CA  UNL     1       7.796  -2.737  23.950  0.00  0.00    +0.123 C 
ATOM      7  C   UNL     1       7.253  -1.739  24.705  0.00  0.00    -0.021 C 
ATOM      8  C   UNL     1       5.780  -1.683  25.097  0.00  0.00    +0.104 C 
ATOM      9  S   UNL     1       4.915  -3.268  25.022  0.00  0.00    -0.131 S 
ENDROOT
BRANCH   2  10
ATOM     10  N   UNL     1       5.033  -6.139  24.024  0.00  0.00    -0.301 N 
ATOM     11  H   UNL     1       5.583  -6.356  24.849  0.00  0.00    +0.150 HD
ATOM     12  C   UNL     1       3.736  -6.600  23.991  0.00  0.00    +0.220 C 
ATOM     13  O   UNL     1       2.970  -6.351  23.062  0.00  0.00    -0.275 OA
BRANCH  12  14
ATOM     14  C   UNL     1       3.315  -7.411  25.197  0.00  0.00    +0.151 C 
BRANCH  14  15
ATOM     15  C   UNL     1       3.812  -6.797  26.459  0.00  0.00    +0.059 A 
ATOM     16  N   UNL     1       5.133  -7.010  26.830  0.00  0.00    -0.230 NA
ATOM     17  C   UNL     1       5.395  -6.387  27.954  0.00  0.00    +0.156 A 
ATOM     18  N   UNL     1       6.596  -6.414  28.549  0.00  0.00    -0.338 N 
ATOM     19  H   UNL     1       7.373  -6.720  27.975  0.00  0.00    +0.144 HD
ATOM     20  H   UNL     1       6.822  -5.675  29.203  0.00  0.00    +0.144 HD
ATOM     21  S   UNL     1       4.090  -5.493  28.622  0.00  0.00    -0.061 S 
ATOM     22  C   UNL     1       3.095  -5.989  27.321  0.00  0.00    +0.072 A 
ENDBRANCH  14  15
ENDBRANCH  12  14
ENDBRANCH   2  10
BRANCH   6  23
ATOM     23  C   UNL     1       9.288  -2.746  23.672  0.00  0.00    +0.351 C 
ATOM     24  OXT UNL     1      10.081  -3.414  24.320  0.00  0.00    -0.244 OA
BRANCH  23  25
ATOM     25  O   UNL     1       9.744  -1.957  22.683  0.00  0.00    -0.476 OA
ATOM     26  H   UNL     1       9.244  -1.922  21.838  0.00  0.00    +0.295 HD
ENDBRANCH  23  25
ENDBRANCH   6  23
BRANCH   7  27
ATOM     27  C   UNL     1       8.043  -0.619  25.391  0.00  0.00    +0.111 C 
BRANCH  27  28
ATOM     28  S   UNL     1       7.574   1.047  24.798  0.00  0.00    -0.080 S 
BRANCH  28  29
ATOM     29  C   UNL     1       8.436   1.186  23.313  0.00  0.00    +0.210 A 
ATOM     30  N   UNL     1       9.422   2.099  23.047  0.00  0.00    -0.219 N 
ATOM     31  N   UNL     1       9.933   1.841  21.824  0.00  0.00    -0.043 NA
ATOM     32  N   UNL     1       9.222   0.830  21.347  0.00  0.00    -0.022 NA
ATOM     33  N   UNL     1       8.282   0.421  22.255  0.00  0.00    -0.102 NA
BRANCH  30  34
ATOM     34  C   UNL     1       9.924   3.244  23.784  0.00  0.00    +0.163 C 
BRANCH  34  35
ATOM     35  C   UNL     1      11.390   3.522  23.407  0.00  0.00    +0.107 C 
BRANCH  35  36
ATOM     36  N   UNL     1      11.891   4.900  23.617  0.00  0.00    -0.307 NA
ATOM     37  C   UNL     1      10.742   5.820  23.668  0.00  0.00    +0.104 C 
ATOM     38  C   UNL     1      12.793   5.352  22.551  0.00  0.00    +0.104 C 
ENDBRANCH  35  36
ENDBRANCH  34  35
ENDBRANCH  30  34
ENDBRANCH  28  29
ENDBRANCH  27  28
ENDBRANCH   7  27
TORSDOF 11
ENDMDL
MODEL 5
REMARK VINA RESULT:      -6.3      2.486      3.753
REMARK  Name = 
REMARK  13 active torsions:
REMARK  status: ('A' for Active; 'I' for Inactive)
REMARK    1  A    between atoms: C_5  and  C_6
REMARK    2  A    between atoms: C_6  and  S_7
REMARK    3  A    between atoms: S_7  and  C_8
REMARK    4  A    between atoms: N_12  and  C_13
REMARK    5  A    between atoms: C_13  and  C_14
REMARK    6  A    between atoms: C_14  and  N_15
REMARK    7  A    between atoms: N_15  and  C_16
REMARK    8  A    between atoms: N_15  and  C_17
REMARK    9  A    between atoms: CA_18  and  C_34
REMARK   10  A    between atoms: CA_22  and  N_24
REMARK   11  A    between atoms: C_25  and  C_27
REMARK   12  A    between atoms: C_27  and  C_28
REMARK   13  A    between atoms: C_34  and  O_35
REMARK                            x       y       z     vdW  Elec       q    Type
REMARK                         _______ _______ _______ _____ _____    ______ ____
ROOT
ATOM      1  C   UNL     1       8.505  -4.727  24.827  0.00  0.00    +0.169 C 
ATOM      2  CA  UNL     1       8.864  -3.679  23.722  0.00  0.00    +0.191 C 
ATOM      3  C   UNL     1       7.398  -3.923  23.244  0.00  0.00    +0.244 C 
ATOM      4  O   UNL     1       6.638  -3.502  22.400  0.00  0.00    -0.273 OA
ATOM      5  N   UNL     1       7.151  -4.728  24.298  0.00  0.00    -0.249 N 
ATOM      6  CA  UNL     1       6.074  -5.323  24.899  0.00  0.00    +0.123 C 
ATOM      7  C   UNL     1       6.146  -5.692  26.210  0.00  0.00    -0.021 C 
ATOM      8  C   UNL     1       7.357  -5.425  27.098  0.00  0.00    +0.104 C 
ATOM      9  S   UNL     1       8.442  -4.100  26.520  0.00  0.00    -0.131 S 
ENDROOT
BRANCH   2  10
ATOM     10  N   UNL     1       9.157  -2.290  24.183  0.00  0.00    -0.301 N 
ATOM     11  H   UNL     1       8.790  -1.966  25.072  0.00  0.00    +0.150 HD
ATOM     12  C   UNL     1      10.063  -1.477  23.539  0.00  0.00    +0.220 C 
ATOM     13  O   UNL     1      10.605  -1.798  22.483  0.00  0.00    -0.275 OA
BRANCH  12  14
ATOM     14  C   UNL     1      10.365  -0.173  24.245  0.00  0.00    +0.151 C 
BRANCH  14  15
ATOM     15  C   UNL     1       9.305   0.839  23.983  0.00  0.00    +0.059 A 
ATOM     16  N   UNL     1       8.175   0.453  23.274  0.00  0.00    -0.230 NA
ATOM     17  C   UNL     1       7.350   1.465  23.151  0.00  0.00    +0.156 A 
ATOM     18  N   UNL     1       6.173   1.383  22.513  0.00  0.00    -0.338 N 
ATOM     19  H   UNL     1       5.818   0.448  22.348  0.00  0.00    +0.144 HD
ATOM     20  H   UNL     1       5.462   2.069  22.733  0.00  0.00    +0.144 HD
ATOM     21  S   UNL     1       7.861   2.928  23.891  0.00  0.00    -0.061 S 
ATOM     22  C   UNL     1       9.301   2.156  24.401  0.00  0.00    +0.072 A 
ENDBRANCH  14  15
ENDBRANCH  12  14
ENDBRANCH   2  10
BRANCH   6  23
ATOM     23  C   UNL     1       4.797  -5.567  24.116  0.00  0.00    +0.351 C 
ATOM     24  OXT UNL     1       4.466  -6.673  23.715  0.00  0.00    -0.244 OA
BRANCH  23  25
ATOM     25  O   UNL     1       4.023  -4.504  23.837  0.00  0.00    -0.476 OA
ATOM     26  H   UNL     1       4.183  -4.007  23.005  0.00  0.00    +0.295 HD
ENDBRANCH  23  25
ENDBRANCH   6  23
BRANCH   7  27
ATOM     27  C   UNL     1       4.992  -6.286  27.027  0.00  0.00    +0.111 C 
BRANCH  27  28
ATOM     28  S   UNL     1       4.238  -5.076  28.173  0.00  0.00    -0.080 S 
BRANCH  28  29
ATOM     29  C   UNL     1       3.561  -3.904  27.107  0.00  0.00    +0.210 A 
ATOM     30  N   UNL     1       4.162  -2.733  26.727  0.00  0.00    -0.219 N 
ATOM     31  N   UNL     1       3.381  -2.123  25.810  0.00  0.00    -0.043 NA
ATOM     32  N   UNL     1       2.306  -2.887  25.693  0.00  0.00    -0.022 NA
ATOM     33  N   UNL     1       2.399  -3.989  26.501  0.00  0.00    -0.102 NA
BRANCH  30  34
ATOM     34  C   UNL     1       5.377  -2.068  27.160  0.00  0.00    +0.163 C 
BRANCH  34  35
ATOM     35  C   UNL     1       5.986  -1.256  26.002  0.00  0.00    +0.107 C 
BRANCH  35  36
ATOM     36  N   UNL     1       6.322   0.160  26.274  0.00  0.00    -0.307 NA
ATOM     37  C   UNL     1       6.836   0.270  27.650  0.00  0.00    +0.104 C 
ATOM     38  C   UNL     1       5.171   1.060  26.141  0.00  0.00    +0.104 C 
ENDBRANCH  35  36
ENDBRANCH  34  35
ENDBRANCH  30  34
ENDBRANCH  28  29
ENDBRANCH  27  28
ENDBRANCH   7  27
TORSDOF 11
ENDMDL
MODEL 6
REMARK VINA RESULT:      -6.2      3.021      4.013
REMARK  Name = 
REMARK  13 active torsions:
REMARK  status: ('A' for Active; 'I' for Inactive)
REMARK    1  A    between atoms: C_5  and  C_6
REMARK    2  A    between atoms: C_6  and  S_7
REMARK    3  A    between atoms: S_7  and  C_8
REMARK    4  A    between atoms: N_12  and  C_13
REMARK    5  A    between atoms: C_13  and  C_14
REMARK    6  A    between atoms: C_14  and  N_15
REMARK    7  A    between atoms: N_15  and  C_16
REMARK    8  A    between atoms: N_15  and  C_17
REMARK    9  A    between atoms: CA_18  and  C_34
REMARK   10  A    between atoms: CA_22  and  N_24
REMARK   11  A    between atoms: C_25  and  C_27
REMARK   12  A    between atoms: C_27  and  C_28
REMARK   13  A    between atoms: C_34  and  O_35
REMARK                            x       y       z     vdW  Elec       q    Type
REMARK                         _______ _______ _______ _____ _____    ______ ____
ROOT
ATOM      1  C   UNL     1       8.052  -1.019  25.629  0.00  0.00    +0.169 C 
ATOM      2  CA  UNL     1       9.462  -0.833  24.978  0.00  0.00    +0.191 C 
ATOM      3  C   UNL     1       9.270  -2.316  24.529  0.00  0.00    +0.244 C 
ATOM      4  O   UNL     1       9.855  -3.145  23.868  0.00  0.00    -0.273 OA
ATOM      5  N   UNL     1       8.016  -2.341  25.026  0.00  0.00    -0.249 N 
ATOM      6  CA  UNL     1       6.915  -3.152  24.980  0.00  0.00    +0.123 C 
ATOM      7  C   UNL     1       5.677  -2.634  25.227  0.00  0.00    -0.021 C 
ATOM      8  C   UNL     1       5.420  -1.155  25.499  0.00  0.00    +0.104 C 
ATOM      9  S   UNL     1       6.714  -0.040  24.909  0.00  0.00    -0.131 S 
ENDROOT
BRANCH   2  10
ATOM     10  N   UNL     1       9.565   0.157  23.865  0.00  0.00    -0.301 N 
ATOM     11  H   UNL     1       8.810   0.237  23.190  0.00  0.00    +0.150 HD
ATOM     12  C   UNL     1      10.561   1.106  23.814  0.00  0.00    +0.220 C 
ATOM     13  O   UNL     1      11.492   1.130  24.617  0.00  0.00    -0.275 OA
BRANCH  12  14
ATOM     14  C   UNL     1      10.407   2.135  22.716  0.00  0.00    +0.151 C 
BRANCH  14  15
ATOM     15  C   UNL     1      10.565   3.517  23.247  0.00  0.00    +0.059 A 
ATOM     16  N   UNL     1      11.823   4.104  23.215  0.00  0.00    -0.230 NA
ATOM     17  C   UNL     1      11.769   5.318  23.709  0.00  0.00    +0.156 A 
ATOM     18  N   UNL     1      12.837   6.124  23.801  0.00  0.00    -0.338 N 
ATOM     19  H   UNL     1      13.642   5.866  23.242  0.00  0.00    +0.144 HD
ATOM     20  H   UNL     1      12.678   7.121  23.873  0.00  0.00    +0.144 HD
ATOM     21  S   UNL     1      10.215   5.838  24.219  0.00  0.00    -0.061 S 
ATOM     22  C   UNL     1       9.566   4.322  23.761  0.00  0.00    +0.072 A 
ENDBRANCH  14  15
ENDBRANCH  12  14
ENDBRANCH   2  10
BRANCH   6  23
ATOM     23  C   UNL     1       7.062  -4.626  24.648  0.00  0.00    +0.351 C 
ATOM     24  OXT UNL     1       6.803  -5.087  23.545  0.00  0.00    -0.244 OA
BRANCH  23  25
ATOM     25  O   UNL     1       7.470  -5.449  25.628  0.00  0.00    -0.476 OA
ATOM     26  H   UNL     1       8.203  -6.077  25.444  0.00  0.00    +0.295 HD
ENDBRANCH  23  25
ENDBRANCH   6  23
BRANCH   7  27
ATOM     27  C   UNL     1       4.357  -3.407  25.125  0.00  0.00    +0.111 C 
BRANCH  27  28
ATOM     28  S   UNL     1       3.615  -3.761  26.759  0.00  0.00    -0.080 S 
BRANCH  28  29
ATOM     29  C   UNL     1       4.731  -4.870  27.460  0.00  0.00    +0.210 A 
ATOM     30  N   UNL     1       4.747  -6.224  27.250  0.00  0.00    -0.219 N 
ATOM     31  N   UNL     1       5.820  -6.747  27.880  0.00  0.00    -0.043 NA
ATOM     32  N   UNL     1       6.398  -5.732  28.503  0.00  0.00    -0.022 NA
ATOM     33  N   UNL     1       5.726  -4.563  28.261  0.00  0.00    -0.102 NA
BRANCH  30  34
ATOM     34  C   UNL     1       3.836  -7.121  26.564  0.00  0.00    +0.163 C 
BRANCH  34  35
ATOM     35  C   UNL     1       4.163  -7.171  25.060  0.00  0.00    +0.107 C 
BRANCH  35  36
ATOM     36  N   UNL     1       3.138  -7.755  24.166  0.00  0.00    -0.307 NA
ATOM     37  C   UNL     1       2.544  -6.678  23.356  0.00  0.00    +0.104 C 
ATOM     38  C   UNL     1       2.057  -8.431  24.893  0.00  0.00    +0.104 C 
ENDBRANCH  35  36
ENDBRANCH  34  35
ENDBRANCH  30  34
ENDBRANCH  28  29
ENDBRANCH  27  28
ENDBRANCH   7  27
TORSDOF 11
ENDMDL
MODEL 7
REMARK VINA RESULT:      -6.2      2.803      8.003
REMARK  Name = 
REMARK  13 active torsions:
REMARK  status: ('A' for Active; 'I' for Inactive)
REMARK    1  A    between atoms: C_5  and  C_6
REMARK    2  A    between atoms: C_6  and  S_7
REMARK    3  A    between atoms: S_7  and  C_8
REMARK    4  A    between atoms: N_12  and  C_13
REMARK    5  A    between atoms: C_13  and  C_14
REMARK    6  A    between atoms: C_14  and  N_15
REMARK    7  A    between atoms: N_15  and  C_16
REMARK    8  A    between atoms: N_15  and  C_17
REMARK    9  A    between atoms: CA_18  and  C_34
REMARK   10  A    between atoms: CA_22  and  N_24
REMARK   11  A    between atoms: C_25  and  C_27
REMARK   12  A    between atoms: C_27  and  C_28
REMARK   13  A    between atoms: C_34  and  O_35
REMARK                            x       y       z     vdW  Elec       q    Type
REMARK                         _______ _______ _______ _____ _____    ______ ____
ROOT
ATOM      1  C   UNL     1       9.077  -3.157  24.255  0.00  0.00    +0.169 C 
ATOM      2  CA  UNL     1       8.649  -3.618  25.687  0.00  0.00    +0.191 C 
ATOM      3  C   UNL     1       9.065  -2.171  26.100  0.00  0.00    +0.244 C 
ATOM      4  O   UNL     1       9.063  -1.476  27.092  0.00  0.00    -0.273 OA
ATOM      5  N   UNL     1       9.301  -1.835  24.815  0.00  0.00    -0.249 N 
ATOM      6  CA  UNL     1       9.546  -0.705  24.083  0.00  0.00    +0.123 C 
ATOM      7  C   UNL     1       9.281  -0.691  22.745  0.00  0.00    -0.021 C 
ATOM      8  C   UNL     1       8.654  -1.862  21.996  0.00  0.00    +0.104 C 
ATOM      9  S   UNL     1       7.749  -3.030  23.036  0.00  0.00    -0.131 S 
ENDROOT
BRANCH   2  10
ATOM     10  N   UNL     1       7.205  -3.943  25.886  0.00  0.00    -0.301 N 
ATOM     11  H   UNL     1       6.507  -3.534  25.272  0.00  0.00    +0.150 HD
ATOM     12  C   UNL     1       6.785  -4.923  26.757  0.00  0.00    +0.220 C 
ATOM     13  O   UNL     1       7.557  -5.516  27.506  0.00  0.00    -0.275 OA
BRANCH  12  14
ATOM     14  C   UNL     1       5.306  -5.237  26.698  0.00  0.00    +0.151 C 
BRANCH  14  15
ATOM     15  C   UNL     1       4.832  -5.343  25.291  0.00  0.00    +0.059 A 
ATOM     16  N   UNL     1       5.689  -5.879  24.338  0.00  0.00    -0.230 NA
ATOM     17  C   UNL     1       5.102  -5.905  23.165  0.00  0.00    +0.156 A 
ATOM     18  N   UNL     1       5.692  -6.375  22.056  0.00  0.00    -0.338 N 
ATOM     19  H   UNL     1       6.516  -6.949  22.197  0.00  0.00    +0.144 HD
ATOM     20  H   UNL     1       5.101  -6.669  21.289  0.00  0.00    +0.144 HD
ATOM     21  S   UNL     1       3.491  -5.313  23.133  0.00  0.00    -0.061 S 
ATOM     22  C   UNL     1       3.588  -4.982  24.809  0.00  0.00    +0.072 A 
ENDBRANCH  14  15
ENDBRANCH  12  14
ENDBRANCH   2  10
BRANCH   6  23
ATOM     23  C   UNL     1      10.103   0.537  24.754  0.00  0.00    +0.351 C 
ATOM     24  OXT UNL     1      11.268   0.888  24.639  0.00  0.00    -0.244 OA
BRANCH  23  25
ATOM     25  O   UNL     1       9.271   1.256  25.526  0.00  0.00    -0.476 OA
ATOM     26  H   UNL     1       9.480   1.357  26.481  0.00  0.00    +0.295 HD
ENDBRANCH  23  25
ENDBRANCH   6  23
BRANCH   7  27
ATOM     27  C   UNL     1       9.426   0.529  21.826  0.00  0.00    +0.111 C 
BRANCH  27  28
ATOM     28  S   UNL     1       7.824   1.328  21.451  0.00  0.00    -0.080 S 
BRANCH  28  29
ATOM     29  C   UNL     1       7.299   1.888  22.993  0.00  0.00    +0.210 A 
ATOM     30  N   UNL     1       7.519   3.140  23.503  0.00  0.00    -0.219 N 
ATOM     31  N   UNL     1       6.877   3.245  24.687  0.00  0.00    -0.043 NA
ATOM     32  N   UNL     1       6.334   2.056  24.904  0.00  0.00    -0.022 NA
ATOM     33  N   UNL     1       6.599   1.201  23.868  0.00  0.00    -0.102 NA
BRANCH  30  34
ATOM     34  C   UNL     1       8.317   4.261  23.042  0.00  0.00    +0.163 C 
BRANCH  34  35
ATOM     35  C   UNL     1       9.557   4.440  23.937  0.00  0.00    +0.107 C 
BRANCH  35  36
ATOM     36  N   UNL     1      10.349   5.677  23.753  0.00  0.00    -0.307 NA
ATOM     37  C   UNL     1      11.757   5.309  23.524  0.00  0.00    +0.104 C 
ATOM     38  C   UNL     1      10.292   6.574  24.913  0.00  0.00    +0.104 C 
ENDBRANCH  35  36
ENDBRANCH  34  35
ENDBRANCH  30  34
ENDBRANCH  28  29
ENDBRANCH  27  28
ENDBRANCH   7  27
TORSDOF 11
ENDMDL
MODEL 8
REMARK VINA RESULT:      -6.2      2.179      3.331
REMARK  Name = 
REMARK  13 active torsions:
REMARK  status: ('A' for Active; 'I' for Inactive)
REMARK    1  A    between atoms: C_5  and  C_6
REMARK    2  A    between atoms: C_6  and  S_7
REMARK    3  A    between atoms: S_7  and  C_8
REMARK    4  A    between atoms: N_12  and  C_13
REMARK    5  A    between atoms: C_13  and  C_14
REMARK    6  A    between atoms: C_14  and  N_15
REMARK    7  A    between atoms: N_15  and  C_16
REMARK    8  A    between atoms: N_15  and  C_17
REMARK    9  A    between atoms: CA_18  and  C_34
REMARK   10  A    between atoms: CA_22  and  N_24
REMARK   11  A    between atoms: C_25  and  C_27
REMARK   12  A    between atoms: C_27  and  C_28
REMARK   13  A    between atoms: C_34  and  O_35
REMARK                            x       y       z     vdW  Elec       q    Type
REMARK                         _______ _______ _______ _____ _____    ______ ____
ROOT
ATOM      1  C   UNL     1       8.465  -1.165  25.841  0.00  0.00    +0.169 C 
ATOM      2  CA  UNL     1       9.642  -1.111  24.812  0.00  0.00    +0.191 C 
ATOM      3  C   UNL     1       9.309  -2.622  24.599  0.00  0.00    +0.244 C 
ATOM      4  O   UNL     1       9.674  -3.540  23.899  0.00  0.00    -0.273 OA
ATOM      5  N   UNL     1       8.242  -2.538  25.420  0.00  0.00    -0.249 N 
ATOM      6  CA  UNL     1       7.157  -3.299  25.767  0.00  0.00    +0.123 C 
ATOM      7  C   UNL     1       6.046  -2.701  26.285  0.00  0.00    -0.021 C 
ATOM      8  C   UNL     1       5.898  -1.193  26.452  0.00  0.00    +0.104 C 
ATOM      9  S   UNL     1       6.996  -0.204  25.412  0.00  0.00    -0.131 S 
ENDROOT
BRANCH   2  10
ATOM     10  N   UNL     1       9.448  -0.245  23.612  0.00  0.00    -0.301 N 
ATOM     11  H   UNL     1       8.696  -0.447  22.961  0.00  0.00    +0.150 HD
ATOM     12  C   UNL     1      10.132   0.937  23.440  0.00  0.00    +0.220 C 
ATOM     13  O   UNL     1      11.025   1.301  24.203  0.00  0.00    -0.275 OA
BRANCH  12  14
ATOM     14  C   UNL     1       9.682   1.770  22.260  0.00  0.00    +0.151 C 
BRANCH  14  15
ATOM     15  C   UNL     1       8.443   2.532  22.580  0.00  0.00    +0.059 A 
ATOM     16  N   UNL     1       7.212   1.939  22.329  0.00  0.00    -0.230 NA
ATOM     17  C   UNL     1       6.240   2.746  22.681  0.00  0.00    +0.156 A 
ATOM     18  N   UNL     1       4.942   2.434  22.556  0.00  0.00    -0.338 N 
ATOM     19  H   UNL     1       4.729   1.454  22.417  0.00  0.00    +0.144 HD
ATOM     20  H   UNL     1       4.273   2.933  23.130  0.00  0.00    +0.144 HD
ATOM     21  S   UNL     1       6.734   4.247  23.353  0.00  0.00    -0.061 S 
ATOM     22  C   UNL     1       8.371   3.792  23.142  0.00  0.00    +0.072 A 
ENDBRANCH  14  15
ENDBRANCH  12  14
ENDBRANCH   2  10
BRANCH   6  23
ATOM     23  C   UNL     1       7.183  -4.803  25.571  0.00  0.00    +0.351 C 
ATOM     24  OXT UNL     1       6.765  -5.348  24.559  0.00  0.00    -0.244 OA
BRANCH  23  25
ATOM     25  O   UNL     1       7.664  -5.556  26.575  0.00  0.00    -0.476 OA
ATOM     26  H   UNL     1       7.186  -6.379  26.820  0.00  0.00    +0.295 HD
ENDBRANCH  23  25
ENDBRANCH   6  23
BRANCH   7  27
ATOM     27  C   UNL     1       4.736  -3.419  26.634  0.00  0.00    +0.111 C 
BRANCH  27  28
ATOM     28  S   UNL     1       4.541  -3.703  28.430  0.00  0.00    -0.080 S 
BRANCH  28  29
ATOM     29  C   UNL     1       5.210  -5.276  28.649  0.00  0.00    +0.210 A 
ATOM     30  N   UNL     1       4.729  -6.430  28.091  0.00  0.00    -0.219 N 
ATOM     31  N   UNL     1       5.566  -7.443  28.403  0.00  0.00    -0.043 NA
ATOM     32  N   UNL     1       6.495  -6.911  29.182  0.00  0.00    -0.022 NA
ATOM     33  N   UNL     1       6.279  -5.569  29.354  0.00  0.00    -0.102 NA
BRANCH  30  34
ATOM     34  C   UNL     1       3.529  -6.727  27.330  0.00  0.00    +0.163 C 
BRANCH  34  35
ATOM     35  C   UNL     1       3.879  -6.968  25.850  0.00  0.00    +0.107 C 
BRANCH  35  36
ATOM     36  N   UNL     1       2.925  -6.459  24.839  0.00  0.00    -0.307 NA
ATOM     37  C   UNL     1       1.748  -5.909  25.532  0.00  0.00    +0.104 C 
ATOM     38  C   UNL     1       2.467  -7.495  23.907  0.00  0.00    +0.104 C 
ENDBRANCH  35  36
ENDBRANCH  34  35
ENDBRANCH  30  34
ENDBRANCH  28  29
ENDBRANCH  27  28
ENDBRANCH   7  27
TORSDOF 11
ENDMDL
MODEL 9
REMARK VINA RESULT:      -6.1      2.540      7.778
REMARK  Name = 
REMARK  13 active torsions:
REMARK  status: ('A' for Active; 'I' for Inactive)
REMARK    1  A    between atoms: C_5  and  C_6
REMARK    2  A    between atoms: C_6  and  S_7
REMARK    3  A    between atoms: S_7  and  C_8
REMARK    4  A    between atoms: N_12  and  C_13
REMARK    5  A    between atoms: C_13  and  C_14
REMARK    6  A    between atoms: C_14  and  N_15
REMARK    7  A    between atoms: N_15  and  C_16
REMARK    8  A    between atoms: N_15  and  C_17
REMARK    9  A    between atoms: CA_18  and  C_34
REMARK   10  A    between atoms: CA_22  and  N_24
REMARK   11  A    between atoms: C_25  and  C_27
REMARK   12  A    between atoms: C_27  and  C_28
REMARK   13  A    between atoms: C_34  and  O_35
REMARK                            x       y       z     vdW  Elec       q    Type
REMARK                         _______ _______ _______ _____ _____    ______ ____
ROOT
ATOM      1  C   UNL     1       9.100  -3.090  24.329  0.00  0.00    +0.169 C 
ATOM      2  CA  UNL     1       8.661  -3.490  25.777  0.00  0.00    +0.191 C 
ATOM      3  C   UNL     1       9.076  -2.027  26.131  0.00  0.00    +0.244 C 
ATOM      4  O   UNL     1       9.068  -1.291  27.093  0.00  0.00    -0.273 OA
ATOM      5  N   UNL     1       9.322  -1.746  24.835  0.00  0.00    -0.249 N 
ATOM      6  CA  UNL     1       9.573  -0.647  24.058  0.00  0.00    +0.123 C 
ATOM      7  C   UNL     1       9.317  -0.689  22.718  0.00  0.00    -0.021 C 
ATOM      8  C   UNL     1       8.695  -1.890  22.015  0.00  0.00    +0.104 C 
ATOM      9  S   UNL     1       7.781  -3.013  23.097  0.00  0.00    -0.131 S 
ENDROOT
BRANCH   2  10
ATOM     10  N   UNL     1       7.216  -3.805  25.978  0.00  0.00    -0.301 N 
ATOM     11  H   UNL     1       6.515  -3.346  25.404  0.00  0.00    +0.150 HD
ATOM     12  C   UNL     1       6.793  -4.833  26.789  0.00  0.00    +0.220 C 
ATOM     13  O   UNL     1       7.568  -5.487  27.485  0.00  0.00    -0.275 OA
BRANCH  12  14
ATOM     14  C   UNL     1       5.308  -5.120  26.736  0.00  0.00    +0.151 C 
BRANCH  14  15
ATOM     15  C   UNL     1       4.843  -5.291  25.332  0.00  0.00    +0.059 A 
ATOM     16  N   UNL     1       5.723  -5.823  24.398  0.00  0.00    -0.230 NA
ATOM     17  C   UNL     1       5.140  -5.910  23.226  0.00  0.00    +0.156 A 
ATOM     18  N   UNL     1       5.752  -6.392  22.134  0.00  0.00    -0.338 N 
ATOM     19  H   UNL     1       6.598  -6.926  22.293  0.00  0.00    +0.144 HD
ATOM     20  H   UNL     1       5.175  -6.735  21.376  0.00  0.00    +0.144 HD
ATOM     21  S   UNL     1       3.506  -5.388  23.174  0.00  0.00    -0.061 S 
ATOM     22  C   UNL     1       3.586  -4.998  24.839  0.00  0.00    +0.072 A 
ENDBRANCH  14  15
ENDBRANCH  12  14
ENDBRANCH   2  10
BRANCH   6  23
ATOM     23  C   UNL     1      10.126   0.622  24.680  0.00  0.00    +0.351 C 
ATOM     24  OXT UNL     1      11.268   1.013  24.485  0.00  0.00    -0.244 OA
BRANCH  23  25
ATOM     25  O   UNL     1       9.321   1.318  25.501  0.00  0.00    -0.476 OA
ATOM     26  H   UNL     1       9.700   1.699  26.323  0.00  0.00    +0.295 HD
ENDBRANCH  23  25
ENDBRANCH   6  23
BRANCH   7  27
ATOM     27  C   UNL     1       9.470   0.491  21.751  0.00  0.00    +0.111 C 
BRANCH  27  28
ATOM     28  S   UNL     1       7.908   1.409  21.499  0.00  0.00    -0.080 S 
BRANCH  28  29
ATOM     29  C   UNL     1       7.892   2.516  22.818  0.00  0.00    +0.210 A 
ATOM     30  N   UNL     1       6.953   2.555  23.813  0.00  0.00    -0.219 N 
ATOM     31  N   UNL     1       7.322   3.483  24.722  0.00  0.00    -0.043 NA
ATOM     32  N   UNL     1       8.431   4.028  24.245  0.00  0.00    -0.022 NA
ATOM     33  N   UNL     1       8.790   3.446  23.058  0.00  0.00    -0.102 NA
BRANCH  30  34
ATOM     34  C   UNL     1       5.693   1.859  24.002  0.00  0.00    +0.163 C 
BRANCH  34  35
ATOM     35  C   UNL     1       4.514   2.839  23.874  0.00  0.00    +0.107 C 
BRANCH  35  36
ATOM     36  N   UNL     1       4.405   3.602  22.610  0.00  0.00    -0.307 NA
ATOM     37  C   UNL     1       4.519   5.040  22.911  0.00  0.00    +0.104 C 
ATOM     38  C   UNL     1       3.133   3.380  21.912  0.00  0.00    +0.104 C 
ENDBRANCH  35  36
ENDBRANCH  34  35
ENDBRANCH  30  34
ENDBRANCH  28  29
ENDBRANCH  27  28
ENDBRANCH   7  27
TORSDOF 11
ENDMDL
