MODEL 1
REMARK VINA RESULT:      -3.7      0.000      0.000
REMARK  Name = 
REMARK  2 active torsions:
REMARK  status: ('A' for Active; 'I' for Inactive)
REMARK    1  A    between atoms: S_1  and  C_2
REMARK    2  A    between atoms: C_2  and  C_3
REMARK                            x       y       z     vdW  Elec       q    Type
REMARK                         _______ _______ _______ _____ _____    ______ ____
ROOT
ATOM      1  C   UNL     1      10.204  -0.335  22.875  0.00  0.00    -0.020 A 
ATOM      2  C   UNL     1      10.643   0.288  24.039  0.00  0.00    +0.115 A 
ATOM      3  N   UNL     1      10.678   1.628  24.221  0.00  0.00    -0.263 NA
ATOM      4  C   UNL     1      10.271   2.390  23.183  0.00  0.00    +0.111 A 
ATOM      5  C   UNL     1       9.828   1.873  21.977  0.00  0.00    +0.020 A 
ATOM      6  C   UNL     1       9.797   0.491  21.822  0.00  0.00    +0.007 A 
ENDROOT
BRANCH   1   7
ATOM      7  C   UNL     1      10.194  -1.829  22.755  0.00  0.00    +0.102 C 
BRANCH   7   8
ATOM      8  S   UNL     1       9.366  -2.622  24.159  0.00  0.00    -0.174 S 
ATOM      9  H   UNL     1      10.293  -2.307  25.075  0.00  0.00    +0.102 HD
ENDBRANCH   7   8
ENDBRANCH   1   7
TORSDOF 2
ENDMDL
MODEL 2
REMARK VINA RESULT:      -3.5      0.999      1.698
REMARK  Name = 
REMARK  2 active torsions:
REMARK  status: ('A' for Active; 'I' for Inactive)
REMARK    1  A    between atoms: S_1  and  C_2
REMARK    2  A    between atoms: C_2  and  C_3
REMARK                            x       y       z     vdW  Elec       q    Type
REMARK                         _______ _______ _______ _____ _____    ______ ____
ROOT
ATOM      1  C   UNL     1      10.204  -0.380  22.918  0.00  0.00    -0.020 A 
ATOM      2  C   UNL     1       9.801   0.409  21.845  0.00  0.00    +0.115 A 
ATOM      3  N   UNL     1       9.809   1.761  21.848  0.00  0.00    -0.263 NA
ATOM      4  C   UNL     1      10.222   2.361  22.985  0.00  0.00    +0.111 A 
ATOM      5  C   UNL     1      10.632   1.672  24.113  0.00  0.00    +0.020 A 
ATOM      6  C   UNL     1      10.619   0.280  24.078  0.00  0.00    +0.007 A 
ENDROOT
BRANCH   1   7
ATOM      7  C   UNL     1      10.168  -1.877  22.832  0.00  0.00    +0.102 C 
BRANCH   7   8
ATOM      8  S   UNL     1       9.309  -2.623  24.243  0.00  0.00    -0.174 S 
ATOM      9  H   UNL     1       8.126  -2.030  24.027  0.00  0.00    +0.102 HD
ENDBRANCH   7   8
ENDBRANCH   1   7
TORSDOF 2
ENDMDL
MODEL 3
REMARK VINA RESULT:      -3.5      2.507      3.360
REMARK  Name = 
REMARK  2 active torsions:
REMARK  status: ('A' for Active; 'I' for Inactive)
REMARK    1  A    between atoms: S_1  and  C_2
REMARK    2  A    between atoms: C_2  and  C_3
REMARK                            x       y       z     vdW  Elec       q    Type
REMARK                         _______ _______ _______ _____ _____    ______ ____
ROOT
ATOM      1  C   UNL     1      10.251   1.351  23.070  0.00  0.00    -0.020 A 
ATOM      2  C   UNL     1      10.479   0.231  23.863  0.00  0.00    +0.115 A 
ATOM      3  N   UNL     1      10.229  -1.040  23.476  0.00  0.00    -0.263 NA
ATOM      4  C   UNL     1       9.707  -1.206  22.242  0.00  0.00    +0.111 A 
ATOM      5  C   UNL     1       9.430  -0.160  21.378  0.00  0.00    +0.020 A 
ATOM      6  C   UNL     1       9.704   1.137  21.801  0.00  0.00    +0.007 A 
ENDROOT
BRANCH   1   7
ATOM      7  C   UNL     1      10.559   2.730  23.574  0.00  0.00    +0.102 C 
BRANCH   7   8
ATOM      8  S   UNL     1       9.076   3.594  24.154  0.00  0.00    -0.174 S 
ATOM      9  H   UNL     1       8.416   2.501  24.562  0.00  0.00    +0.102 HD
ENDBRANCH   7   8
ENDBRANCH   1   7
TORSDOF 2
ENDMDL
MODEL 4
REMARK VINA RESULT:      -3.5      5.115      6.455
REMARK  Name = 
REMARK  2 active torsions:
REMARK  status: ('A' for Active; 'I' for Inactive)
REMARK    1  A    between atoms: S_1  and  C_2
REMARK    2  A    between atoms: C_2  and  C_3
REMARK                            x       y       z     vdW  Elec       q    Type
REMARK                         _______ _______ _______ _____ _____    ______ ____
ROOT
ATOM      1  C   UNL     1       7.267  -4.073  23.085  0.00  0.00    -0.020 A 
ATOM      2  C   UNL     1       6.420  -3.517  22.131  0.00  0.00    +0.115 A 
ATOM      3  N   UNL     1       5.858  -4.210  21.115  0.00  0.00    -0.263 NA
ATOM      4  C   UNL     1       6.168  -5.521  21.032  0.00  0.00    +0.111 A 
ATOM      5  C   UNL     1       7.008  -6.170  21.921  0.00  0.00    +0.020 A 
ATOM      6  C   UNL     1       7.567  -5.433  22.961  0.00  0.00    +0.007 A 
ENDROOT
BRANCH   1   7
ATOM      7  C   UNL     1       7.847  -3.234  24.184  0.00  0.00    +0.102 C 
BRANCH   7   8
ATOM      8  S   UNL     1       9.416  -2.465  23.703  0.00  0.00    -0.174 S 
ATOM      9  H   UNL     1       9.835  -3.463  22.912  0.00  0.00    +0.102 HD
ENDBRANCH   7   8
ENDBRANCH   1   7
TORSDOF 2
ENDMDL
MODEL 5
REMARK VINA RESULT:      -3.3      2.640      3.743
REMARK  Name = 
REMARK  2 active torsions:
REMARK  status: ('A' for Active; 'I' for Inactive)
REMARK    1  A    between atoms: S_1  and  C_2
REMARK    2  A    between atoms: C_2  and  C_3
REMARK                            x       y       z     vdW  Elec       q    Type
REMARK                         _______ _______ _______ _____ _____    ______ ____
ROOT
ATOM      1  C   UNL     1       9.748   0.506  22.578  0.00  0.00    -0.020 A 
ATOM      2  C   UNL     1       9.811  -0.584  21.715  0.00  0.00    +0.115 A 
ATOM      3  N   UNL     1       9.897  -1.872  22.120  0.00  0.00    -0.263 NA
ATOM      4  C   UNL     1       9.943  -2.086  23.452  0.00  0.00    +0.111 A 
ATOM      5  C   UNL     1       9.900  -1.074  24.395  0.00  0.00    +0.020 A 
ATOM      6  C   UNL     1       9.804   0.241  23.950  0.00  0.00    +0.007 A 
ENDROOT
BRANCH   1   7
ATOM      7  C   UNL     1       9.649   1.905  22.048  0.00  0.00    +0.102 C 
BRANCH   7   8
ATOM      8  S   UNL     1       7.951   2.538  22.103  0.00  0.00    -0.174 S 
ATOM      9  H   UNL     1       7.344   1.346  22.025  0.00  0.00    +0.102 HD
ENDBRANCH   7   8
ENDBRANCH   1   7
TORSDOF 2
ENDMDL
MODEL 6
REMARK VINA RESULT:      -3.2      6.411      7.060
REMARK  Name = 
REMARK  2 active torsions:
REMARK  status: ('A' for Active; 'I' for Inactive)
REMARK    1  A    between atoms: S_1  and  C_2
REMARK    2  A    between atoms: C_2  and  C_3
REMARK                            x       y       z     vdW  Elec       q    Type
REMARK                         _______ _______ _______ _____ _____    ______ ____
ROOT
ATOM      1  C   UNL     1       6.630  -4.656  23.936  0.00  0.00    -0.020 A 
ATOM      2  C   UNL     1       5.339  -4.590  23.423  0.00  0.00    +0.115 A 
ATOM      3  N   UNL     1       4.956  -5.143  22.250  0.00  0.00    -0.263 NA
ATOM      4  C   UNL     1       5.912  -5.778  21.539  0.00  0.00    +0.111 A 
ATOM      5  C   UNL     1       7.229  -5.891  21.951  0.00  0.00    +0.020 A 
ATOM      6  C   UNL     1       7.592  -5.319  23.166  0.00  0.00    +0.007 A 
ENDROOT
BRANCH   1   7
ATOM      7  C   UNL     1       6.973  -4.020  25.249  0.00  0.00    +0.102 C 
BRANCH   7   8
ATOM      8  S   UNL     1       7.757  -5.189  26.392  0.00  0.00    -0.174 S 
ATOM      9  H   UNL     1       7.769  -4.372  27.455  0.00  0.00    +0.102 HD
ENDBRANCH   7   8
ENDBRANCH   1   7
TORSDOF 2
ENDMDL
MODEL 7
REMARK VINA RESULT:      -3.2      3.125      4.594
REMARK  Name = 
REMARK  2 active torsions:
REMARK  status: ('A' for Active; 'I' for Inactive)
REMARK    1  A    between atoms: S_1  and  C_2
REMARK    2  A    between atoms: C_2  and  C_3
REMARK                            x       y       z     vdW  Elec       q    Type
REMARK                         _______ _______ _______ _____ _____    ______ ____
ROOT
ATOM      1  C   UNL     1       8.883  -2.207  22.726  0.00  0.00    -0.020 A 
ATOM      2  C   UNL     1       9.767  -2.600  23.726  0.00  0.00    +0.115 A 
ATOM      3  N   UNL     1       9.628  -3.723  24.468  0.00  0.00    -0.263 NA
ATOM      4  C   UNL     1       8.543  -4.485  24.215  0.00  0.00    +0.111 A 
ATOM      5  C   UNL     1       7.596  -4.180  23.251  0.00  0.00    +0.020 A 
ATOM      6  C   UNL     1       7.769  -3.022  22.499  0.00  0.00    +0.007 A 
ENDROOT
BRANCH   1   7
ATOM      7  C   UNL     1       9.111  -0.948  21.945  0.00  0.00    +0.102 C 
BRANCH   7   8
ATOM      8  S   UNL     1      10.079   0.269  22.876  0.00  0.00    -0.174 S 
ATOM      9  H   UNL     1       9.878   1.294  22.036  0.00  0.00    +0.102 HD
ENDBRANCH   7   8
ENDBRANCH   1   7
TORSDOF 2
ENDMDL
MODEL 8
REMARK VINA RESULT:      -3.2      3.394      4.634
REMARK  Name = 
REMARK  2 active torsions:
REMARK  status: ('A' for Active; 'I' for Inactive)
REMARK    1  A    between atoms: S_1  and  C_2
REMARK    2  A    between atoms: C_2  and  C_3
REMARK                            x       y       z     vdW  Elec       q    Type
REMARK                         _______ _______ _______ _____ _____    ______ ____
ROOT
ATOM      1  C   UNL     1       7.851  -3.835  23.299  0.00  0.00    -0.020 A 
ATOM      2  C   UNL     1       7.781  -2.872  22.298  0.00  0.00    +0.115 A 
ATOM      3  N   UNL     1       8.678  -1.873  22.137  0.00  0.00    -0.263 NA
ATOM      4  C   UNL     1       9.689  -1.817  23.031  0.00  0.00    +0.111 A 
ATOM      5  C   UNL     1       9.845  -2.717  24.072  0.00  0.00    +0.020 A 
ATOM      6  C   UNL     1       8.910  -3.739  24.208  0.00  0.00    +0.007 A 
ENDROOT
BRANCH   1   7
ATOM      7  C   UNL     1       6.817  -4.915  23.406  0.00  0.00    +0.102 C 
BRANCH   7   8
ATOM      8  S   UNL     1       6.829  -6.019  21.969  0.00  0.00    -0.174 S 
ATOM      9  H   UNL     1       7.119  -7.140  22.645  0.00  0.00    +0.102 HD
ENDBRANCH   7   8
ENDBRANCH   1   7
TORSDOF 2
ENDMDL
MODEL 9
REMARK VINA RESULT:      -3.2      2.955      4.482
REMARK  Name = 
REMARK  2 active torsions:
REMARK  status: ('A' for Active; 'I' for Inactive)
REMARK    1  A    between atoms: S_1  and  C_2
REMARK    2  A    between atoms: C_2  and  C_3
REMARK                            x       y       z     vdW  Elec       q    Type
REMARK                         _______ _______ _______ _____ _____    ______ ____
ROOT
ATOM      1  C   UNL     1       9.465  -1.691  23.178  0.00  0.00    -0.020 A 
ATOM      2  C   UNL     1       8.465  -1.908  22.235  0.00  0.00    +0.115 A 
ATOM      3  N   UNL     1       7.630  -2.972  22.240  0.00  0.00    -0.263 NA
ATOM      4  C   UNL     1       7.811  -3.878  23.224  0.00  0.00    +0.111 A 
ATOM      5  C   UNL     1       8.782  -3.766  24.204  0.00  0.00    +0.020 A 
ATOM      6  C   UNL     1       9.622  -2.657  24.178  0.00  0.00    +0.007 A 
ENDROOT
BRANCH   1   7
ATOM      7  C   UNL     1      10.347  -0.481  23.104  0.00  0.00    +0.102 C 
BRANCH   7   8
ATOM      8  S   UNL     1      10.511   0.346  24.709  0.00  0.00    -0.174 S 
ATOM      9  H   UNL     1       9.590   1.293  24.483  0.00  0.00    +0.102 HD
ENDBRANCH   7   8
ENDBRANCH   1   7
TORSDOF 2
ENDMDL
