MODEL 1
REMARK VINA RESULT:      -7.4      0.000      0.000
REMARK  Name = 
REMARK  7 active torsions:
REMARK  status: ('A' for Active; 'I' for Inactive)
REMARK    1  A    between atoms: C_1  and  C_2
REMARK    2  A    between atoms: N_5  and  C_11
REMARK    3  A    between atoms: C_7  and  C_9
REMARK    4  A    between atoms: C_14  and  N_15
REMARK    5  A    between atoms: C_19  and  C_28
REMARK    6  A    between atoms: N_21  and  C_22
REMARK    7  A    between atoms: C_28  and  O_29
REMARK                            x       y       z     vdW  Elec       q    Type
REMARK                         _______ _______ _______ _____ _____    ______ ____
ROOT
ATOM      1  C   UNL     1       7.915  -0.924  23.436  0.00  0.00    +0.105 A 
ATOM      2  C   UNL     1       7.761  -2.296  23.131  0.00  0.00    +0.171 A 
ATOM      3  F   UNL     1       8.235  -2.736  21.953  0.00  0.00    -0.201 F 
ATOM      4  C   UNL     1       7.204  -3.242  24.019  0.00  0.00    +0.092 A 
ATOM      5  C   UNL     1       6.871  -2.804  25.317  0.00  0.00    +0.072 A 
ATOM      6  C   UNL     1       6.380  -3.802  26.306  0.00  0.00    +0.205 A 
ATOM      7  C   UNL     1       6.189  -5.201  25.876  0.00  0.00    +0.122 A 
ATOM      8  C   UNL     1       6.501  -5.496  24.607  0.00  0.00    +0.105 A 
ATOM      9  O   UNL     1       6.169  -3.510  27.485  0.00  0.00    -0.286 OA
ATOM     10  C   UNL     1       7.056  -1.466  25.702  0.00  0.00    +0.075 A 
ATOM     11  N   UNL     1       6.964  -4.606  23.657  0.00  0.00    -0.340 N 
ATOM     12  C   UNL     1       7.532  -0.557  24.739  0.00  0.00    +0.168 A 
ATOM     13  F   UNL     1       7.593   0.731  25.124  0.00  0.00    -0.201 F 
ENDROOT
BRANCH   1  21
ATOM     14  C   UNL     1      10.566   1.776  23.976  0.00  0.00    +0.025 C 
ATOM     15  C   UNL     1      10.321   1.568  22.478  0.00  0.00    +0.068 C 
ATOM     16  N   UNL     1       9.478   2.633  21.893  0.00  0.00    -0.308 NA
ATOM     17  H   UNL     1       9.747   3.540  22.267  0.00  0.00    +0.123 HD
ATOM     18  C   UNL     1       8.025   2.423  22.056  0.00  0.00    +0.068 C 
ATOM     19  C   UNL     1       7.508   2.985  23.387  0.00  0.00    +0.025 C 
ATOM     20  C   UNL     1       7.530   0.965  21.826  0.00  0.00    +0.123 C 
ATOM     21  N   UNL     1       8.396  -0.011  22.508  0.00  0.00    -0.322 N 
ATOM     22  C   UNL     1       9.818   0.136  22.162  0.00  0.00    +0.123 C 
ENDBRANCH   1  21
BRANCH  10  23
ATOM     23  N   UNL     1       6.558  -0.950  26.919  0.00  0.00    -0.355 N 
ATOM     24  H   UNL     1       5.809  -1.514  27.329  0.00  0.00    +0.142 HD
ATOM     25  H   UNL     1       7.285  -0.691  27.583  0.00  0.00    +0.142 HD
ENDBRANCH  10  23
BRANCH  11  26
ATOM     26  C   UNL     1       7.194  -5.093  22.279  0.00  0.00    +0.088 C 
ATOM     27  C   UNL     1       6.068  -5.096  21.269  0.00  0.00    +0.027 C 
ATOM     28  C   UNL     1       6.654  -6.392  21.730  0.00  0.00    +0.027 C 
ENDBRANCH  11  26
BRANCH   7  29
ATOM     29  C   UNL     1       5.693  -6.268  26.768  0.00  0.00    +0.342 C 
ATOM     30  O   UNL     1       4.744  -6.988  26.491  0.00  0.00    -0.245 OA
BRANCH  29  31
ATOM     31  O   UNL     1       6.371  -6.392  27.929  0.00  0.00    -0.477 OA
ATOM     32  H   UNL     1       6.051  -5.793  28.648  0.00  0.00    +0.295 HD
ENDBRANCH  29  31
ENDBRANCH   7  29
TORSDOF 5
ENDMDL
MODEL 2
REMARK VINA RESULT:      -7.2      2.183      3.661
REMARK  Name = 
REMARK  7 active torsions:
REMARK  status: ('A' for Active; 'I' for Inactive)
REMARK    1  A    between atoms: C_1  and  C_2
REMARK    2  A    between atoms: N_5  and  C_11
REMARK    3  A    between atoms: C_7  and  C_9
REMARK    4  A    between atoms: C_14  and  N_15
REMARK    5  A    between atoms: C_19  and  C_28
REMARK    6  A    between atoms: N_21  and  C_22
REMARK    7  A    between atoms: C_28  and  O_29
REMARK                            x       y       z     vdW  Elec       q    Type
REMARK                         _______ _______ _______ _____ _____    ______ ____
ROOT
ATOM      1  C   UNL     1       9.142  -1.201  23.911  0.00  0.00    +0.105 A 
ATOM      2  C   UNL     1       7.963  -0.937  24.644  0.00  0.00    +0.171 A 
ATOM      3  F   UNL     1       7.330   0.228  24.420  0.00  0.00    -0.201 F 
ATOM      4  C   UNL     1       7.373  -1.853  25.543  0.00  0.00    +0.092 A 
ATOM      5  C   UNL     1       7.945  -3.137  25.639  0.00  0.00    +0.072 A 
ATOM      6  C   UNL     1       7.282  -4.154  26.500  0.00  0.00    +0.205 A 
ATOM      7  C   UNL     1       6.090  -3.765  27.279  0.00  0.00    +0.122 A 
ATOM      8  C   UNL     1       5.656  -2.505  27.140  0.00  0.00    +0.105 A 
ATOM      9  O   UNL     1       7.668  -5.324  26.550  0.00  0.00    -0.286 OA
ATOM     10  C   UNL     1       9.084  -3.482  24.892  0.00  0.00    +0.075 A 
ATOM     11  N   UNL     1       6.235  -1.530  26.351  0.00  0.00    -0.340 N 
ATOM     12  C   UNL     1       9.672  -2.493  24.083  0.00  0.00    +0.168 A 
ATOM     13  F   UNL     1      10.818  -2.841  23.469  0.00  0.00    -0.201 F 
ENDROOT
BRANCH   1  21
ATOM     14  C   UNL     1       9.252   2.582  24.448  0.00  0.00    +0.025 C 
ATOM     15  C   UNL     1      10.264   2.170  23.374  0.00  0.00    +0.068 C 
ATOM     16  N   UNL     1       9.783   2.464  22.006  0.00  0.00    -0.308 NA
ATOM     17  H   UNL     1       9.321   3.371  21.984  0.00  0.00    +0.123 HD
ATOM     18  C   UNL     1       8.903   1.427  21.430  0.00  0.00    +0.068 C 
ATOM     19  C   UNL     1       7.432   1.645  21.808  0.00  0.00    +0.025 C 
ATOM     20  C   UNL     1       9.343  -0.043  21.691  0.00  0.00    +0.123 C 
ATOM     21  N   UNL     1       9.734  -0.247  23.096  0.00  0.00    -0.322 N 
ATOM     22  C   UNL     1      10.751   0.710  23.559  0.00  0.00    +0.123 C 
ENDBRANCH   1  21
BRANCH  10  23
ATOM     23  N   UNL     1       9.795  -4.684  25.105  0.00  0.00    -0.355 N 
ATOM     24  H   UNL     1       9.439  -5.240  25.886  0.00  0.00    +0.142 HD
ATOM     25  H   UNL     1       9.951  -5.224  24.256  0.00  0.00    +0.142 HD
ENDBRANCH  10  23
BRANCH  11  26
ATOM     26  C   UNL     1       5.661  -0.167  26.370  0.00  0.00    +0.088 C 
ATOM     27  C   UNL     1       6.073   0.825  27.435  0.00  0.00    +0.027 C 
ATOM     28  C   UNL     1       4.664   0.326  27.391  0.00  0.00    +0.027 C 
ENDBRANCH  11  26
BRANCH   7  29
ATOM     29  C   UNL     1       5.365  -4.688  28.175  0.00  0.00    +0.342 C 
ATOM     30  O   UNL     1       4.163  -4.895  28.095  0.00  0.00    -0.245 OA
BRANCH  29  31
ATOM     31  O   UNL     1       6.136  -5.294  29.103  0.00  0.00    -0.477 OA
ATOM     32  H   UNL     1       6.932  -4.770  29.369  0.00  0.00    +0.295 HD
ENDBRANCH  29  31
ENDBRANCH   7  29
TORSDOF 5
ENDMDL
MODEL 3
REMARK VINA RESULT:      -7.1      4.226      7.520
REMARK  Name = 
REMARK  7 active torsions:
REMARK  status: ('A' for Active; 'I' for Inactive)
REMARK    1  A    between atoms: C_1  and  C_2
REMARK    2  A    between atoms: N_5  and  C_11
REMARK    3  A    between atoms: C_7  and  C_9
REMARK    4  A    between atoms: C_14  and  N_15
REMARK    5  A    between atoms: C_19  and  C_28
REMARK    6  A    between atoms: N_21  and  C_22
REMARK    7  A    between atoms: C_28  and  O_29
REMARK                            x       y       z     vdW  Elec       q    Type
REMARK                         _______ _______ _______ _____ _____    ______ ____
ROOT
ATOM      1  C   UNL     1       8.913  -0.775  23.593  0.00  0.00    +0.105 A 
ATOM      2  C   UNL     1       8.277  -0.145  24.687  0.00  0.00    +0.171 A 
ATOM      3  F   UNL     1       7.736  -0.928  25.636  0.00  0.00    -0.201 F 
ATOM      4  C   UNL     1       8.240   1.254  24.877  0.00  0.00    +0.092 A 
ATOM      5  C   UNL     1       8.960   2.057  23.970  0.00  0.00    +0.072 A 
ATOM      6  C   UNL     1       9.023   3.525  24.208  0.00  0.00    +0.205 A 
ATOM      7  C   UNL     1       8.273   4.100  25.342  0.00  0.00    +0.122 A 
ATOM      8  C   UNL     1       7.591   3.245  26.116  0.00  0.00    +0.105 A 
ATOM      9  O   UNL     1       9.718   4.273  23.517  0.00  0.00    -0.286 OA
ATOM     10  C   UNL     1       9.662   1.488  22.895  0.00  0.00    +0.075 A 
ATOM     11  N   UNL     1       7.507   1.878  25.937  0.00  0.00    -0.340 N 
ATOM     12  C   UNL     1       9.584   0.095  22.713  0.00  0.00    +0.168 A 
ATOM     13  F   UNL     1      10.186  -0.389  21.612  0.00  0.00    -0.201 F 
ENDROOT
BRANCH   1  21
ATOM     14  C   UNL     1       5.942  -3.105  24.189  0.00  0.00    +0.025 C 
ATOM     15  C   UNL     1       7.013  -3.816  23.355  0.00  0.00    +0.068 C 
ATOM     16  N   UNL     1       7.812  -4.767  24.158  0.00  0.00    -0.308 NA
ATOM     17  H   UNL     1       7.208  -5.279  24.798  0.00  0.00    +0.123 HD
ATOM     18  C   UNL     1       8.936  -4.155  24.895  0.00  0.00    +0.068 C 
ATOM     19  C   UNL     1       8.505  -3.625  26.268  0.00  0.00    +0.025 C 
ATOM     20  C   UNL     1       9.750  -3.087  24.105  0.00  0.00    +0.123 C 
ATOM     21  N   UNL     1       8.862  -2.148  23.399  0.00  0.00    -0.322 N 
ATOM     22  C   UNL     1       7.875  -2.819  22.539  0.00  0.00    +0.123 C 
ENDBRANCH   1  21
BRANCH  10  23
ATOM     23  N   UNL     1      10.230   2.266  21.862  0.00  0.00    -0.355 N 
ATOM     24  H   UNL     1       9.591   2.967  21.476  0.00  0.00    +0.142 HD
ATOM     25  H   UNL     1      11.152   2.634  22.085  0.00  0.00    +0.142 HD
ENDBRANCH  10  23
BRANCH  11  26
ATOM     26  C   UNL     1       6.649   1.093  26.851  0.00  0.00    +0.088 C 
ATOM     27  C   UNL     1       5.171   0.935  26.570  0.00  0.00    +0.027 C 
ATOM     28  C   UNL     1       5.619   1.690  27.781  0.00  0.00    +0.027 C 
ENDBRANCH  11  26
BRANCH   7  29
ATOM     29  C   UNL     1       8.253   5.541  25.659  0.00  0.00    +0.342 C 
ATOM     30  O   UNL     1       8.636   5.999  26.726  0.00  0.00    -0.245 OA
BRANCH  29  31
ATOM     31  O   UNL     1       7.772   6.329  24.673  0.00  0.00    -0.477 OA
ATOM     32  H   UNL     1       8.472   6.801  24.158  0.00  0.00    +0.295 HD
ENDBRANCH  29  31
ENDBRANCH   7  29
TORSDOF 5
ENDMDL
MODEL 4
REMARK VINA RESULT:      -6.9      2.459      4.019
REMARK  Name = 
REMARK  7 active torsions:
REMARK  status: ('A' for Active; 'I' for Inactive)
REMARK    1  A    between atoms: C_1  and  C_2
REMARK    2  A    between atoms: N_5  and  C_11
REMARK    3  A    between atoms: C_7  and  C_9
REMARK    4  A    between atoms: C_14  and  N_15
REMARK    5  A    between atoms: C_19  and  C_28
REMARK    6  A    between atoms: N_21  and  C_22
REMARK    7  A    between atoms: C_28  and  O_29
REMARK                            x       y       z     vdW  Elec       q    Type
REMARK                         _______ _______ _______ _____ _____    ______ ____
ROOT
ATOM      1  C   UNL     1       7.645  -1.399  25.106  0.00  0.00    +0.105 A 
ATOM      2  C   UNL     1       6.506  -1.663  25.899  0.00  0.00    +0.171 A 
ATOM      3  F   UNL     1       5.498  -0.774  25.869  0.00  0.00    -0.201 F 
ATOM      4  C   UNL     1       6.333  -2.838  26.664  0.00  0.00    +0.092 A 
ATOM      5  C   UNL     1       7.316  -3.842  26.551  0.00  0.00    +0.072 A 
ATOM      6  C   UNL     1       7.106  -5.132  27.264  0.00  0.00    +0.205 A 
ATOM      7  C   UNL     1       5.916  -5.291  28.121  0.00  0.00    +0.122 A 
ATOM      8  C   UNL     1       5.068  -4.256  28.184  0.00  0.00    +0.105 A 
ATOM      9  O   UNL     1       7.872  -6.090  27.127  0.00  0.00    -0.286 OA
ATOM     10  C   UNL     1       8.444  -3.666  25.733  0.00  0.00    +0.075 A 
ATOM     11  N   UNL     1       5.218  -3.044  27.538  0.00  0.00    -0.340 N 
ATOM     12  C   UNL     1       8.597  -2.435  25.068  0.00  0.00    +0.168 A 
ATOM     13  F   UNL     1       9.743  -2.276  24.382  0.00  0.00    -0.201 F 
ENDROOT
BRANCH   1  21
ATOM     14  C   UNL     1       9.506  -0.811  21.819  0.00  0.00    +0.025 C 
ATOM     15  C   UNL     1       8.634   0.402  22.158  0.00  0.00    +0.068 C 
ATOM     16  N   UNL     1       9.424   1.526  22.708  0.00  0.00    -0.308 NA
ATOM     17  H   UNL     1      10.298   1.624  22.196  0.00  0.00    +0.123 HD
ATOM     18  C   UNL     1       9.688   1.438  24.158  0.00  0.00    +0.068 C 
ATOM     19  C   UNL     1      10.953   0.626  24.465  0.00  0.00    +0.025 C 
ATOM     20  C   UNL     1       8.486   0.967  25.029  0.00  0.00    +0.123 C 
ATOM     21  N   UNL     1       7.813  -0.199  24.431  0.00  0.00    -0.322 N 
ATOM     22  C   UNL     1       7.413   0.018  23.032  0.00  0.00    +0.123 C 
ENDBRANCH   1  21
BRANCH  10  23
ATOM     23  N   UNL     1       9.537  -4.560  25.744  0.00  0.00    -0.355 N 
ATOM     24  H   UNL     1      10.142  -4.460  26.564  0.00  0.00    +0.142 HD
ATOM     25  H   UNL     1       9.281  -5.524  25.541  0.00  0.00    +0.142 HD
ENDBRANCH  10  23
BRANCH  11  26
ATOM     26  C   UNL     1       4.216  -1.983  27.777  0.00  0.00    +0.088 C 
ATOM     27  C   UNL     1       4.336  -1.069  28.976  0.00  0.00    +0.027 C 
ATOM     28  C   UNL     1       3.182  -2.015  28.877  0.00  0.00    +0.027 C 
ENDBRANCH  11  26
BRANCH   7  29
ATOM     29  C   UNL     1       5.619  -6.520  28.884  0.00  0.00    +0.342 C 
ATOM     30  O   UNL     1       5.668  -6.581  30.104  0.00  0.00    -0.245 OA
BRANCH  29  31
ATOM     31  O   UNL     1       5.286  -7.587  28.126  0.00  0.00    -0.477 OA
ATOM     32  H   UNL     1       4.617  -8.184  28.544  0.00  0.00    +0.295 HD
ENDBRANCH  29  31
ENDBRANCH   7  29
TORSDOF 5
ENDMDL
MODEL 5
REMARK VINA RESULT:      -6.9      3.754      7.681
REMARK  Name = 
REMARK  7 active torsions:
REMARK  status: ('A' for Active; 'I' for Inactive)
REMARK    1  A    between atoms: C_1  and  C_2
REMARK    2  A    between atoms: N_5  and  C_11
REMARK    3  A    between atoms: C_7  and  C_9
REMARK    4  A    between atoms: C_14  and  N_15
REMARK    5  A    between atoms: C_19  and  C_28
REMARK    6  A    between atoms: N_21  and  C_22
REMARK    7  A    between atoms: C_28  and  O_29
REMARK                            x       y       z     vdW  Elec       q    Type
REMARK                         _______ _______ _______ _____ _____    ______ ____
ROOT
ATOM      1  C   UNL     1       7.233  -1.594  23.969  0.00  0.00    +0.105 A 
ATOM      2  C   UNL     1       7.259  -0.427  24.766  0.00  0.00    +0.171 A 
ATOM      3  F   UNL     1       6.626  -0.459  25.951  0.00  0.00    -0.201 F 
ATOM      4  C   UNL     1       7.969   0.745  24.422  0.00  0.00    +0.092 A 
ATOM      5  C   UNL     1       8.770   0.708  23.264  0.00  0.00    +0.072 A 
ATOM      6  C   UNL     1       9.610   1.893  22.936  0.00  0.00    +0.205 A 
ATOM      7  C   UNL     1       9.521   3.092  23.792  0.00  0.00    +0.122 A 
ATOM      8  C   UNL     1       8.695   3.028  24.845  0.00  0.00    +0.105 A 
ATOM      9  O   UNL     1      10.411   1.891  21.998  0.00  0.00    -0.286 OA
ATOM     10  C   UNL     1       8.835  -0.443  22.461  0.00  0.00    +0.075 A 
ATOM     11  N   UNL     1       7.902   1.951  25.191  0.00  0.00    -0.340 N 
ATOM     12  C   UNL     1       8.034  -1.544  22.813  0.00  0.00    +0.168 A 
ATOM     13  F   UNL     1       8.051  -2.582  21.957  0.00  0.00    -0.201 F 
ENDROOT
BRANCH   1  21
ATOM     14  C   UNL     1       8.316  -5.260  24.050  0.00  0.00    +0.025 C 
ATOM     15  C   UNL     1       6.982  -5.086  24.783  0.00  0.00    +0.068 C 
ATOM     16  N   UNL     1       5.831  -5.532  23.969  0.00  0.00    -0.308 NA
ATOM     17  H   UNL     1       6.061  -6.394  23.479  0.00  0.00    +0.123 HD
ATOM     18  C   UNL     1       5.324  -4.522  23.018  0.00  0.00    +0.068 C 
ATOM     19  C   UNL     1       6.068  -4.568  21.678  0.00  0.00    +0.025 C 
ATOM     20  C   UNL     1       5.239  -3.068  23.570  0.00  0.00    +0.123 C 
ATOM     21  N   UNL     1       6.461  -2.699  24.303  0.00  0.00    -0.322 N 
ATOM     22  C   UNL     1       6.815  -3.657  25.361  0.00  0.00    +0.123 C 
ENDBRANCH   1  21
BRANCH  10  23
ATOM     23  N   UNL     1       9.469  -0.453  21.198  0.00  0.00    -0.355 N 
ATOM     24  H   UNL     1       9.432  -1.361  20.727  0.00  0.00    +0.142 HD
ATOM     25  H   UNL     1       9.205   0.327  20.601  0.00  0.00    +0.142 HD
ENDBRANCH  10  23
BRANCH  11  26
ATOM     26  C   UNL     1       6.996   2.080  26.352  0.00  0.00    +0.088 C 
ATOM     27  C   UNL     1       5.665   2.785  26.213  0.00  0.00    +0.027 C 
ATOM     28  C   UNL     1       6.727   3.371  27.088  0.00  0.00    +0.027 C 
ENDBRANCH  11  26
BRANCH   7  29
ATOM     29  C   UNL     1      10.294   4.326  23.550  0.00  0.00    +0.342 C 
ATOM     30  O   UNL     1       9.859   5.446  23.773  0.00  0.00    -0.245 OA
BRANCH  29  31
ATOM     31  O   UNL     1      11.535   4.125  23.056  0.00  0.00    -0.477 OA
ATOM     32  H   UNL     1      12.213   3.914  23.744  0.00  0.00    +0.295 HD
ENDBRANCH  29  31
ENDBRANCH   7  29
TORSDOF 5
ENDMDL
MODEL 6
REMARK VINA RESULT:      -6.8      2.325      3.106
REMARK  Name = 
REMARK  7 active torsions:
REMARK  status: ('A' for Active; 'I' for Inactive)
REMARK    1  A    between atoms: C_1  and  C_2
REMARK    2  A    between atoms: N_5  and  C_11
REMARK    3  A    between atoms: C_7  and  C_9
REMARK    4  A    between atoms: C_14  and  N_15
REMARK    5  A    between atoms: C_19  and  C_28
REMARK    6  A    between atoms: N_21  and  C_22
REMARK    7  A    between atoms: C_28  and  O_29
REMARK                            x       y       z     vdW  Elec       q    Type
REMARK                         _______ _______ _______ _____ _____    ______ ____
ROOT
ATOM      1  C   UNL     1       7.337  -2.386  24.156  0.00  0.00    +0.105 A 
ATOM      2  C   UNL     1       6.055  -2.943  24.363  0.00  0.00    +0.171 A 
ATOM      3  F   UNL     1       5.078  -2.613  23.500  0.00  0.00    -0.201 F 
ATOM      4  C   UNL     1       5.757  -3.878  25.379  0.00  0.00    +0.092 A 
ATOM      5  C   UNL     1       6.825  -4.349  26.168  0.00  0.00    +0.072 A 
ATOM      6  C   UNL     1       6.557  -5.412  27.175  0.00  0.00    +0.205 A 
ATOM      7  C   UNL     1       5.172  -5.885  27.365  0.00  0.00    +0.122 A 
ATOM      8  C   UNL     1       4.230  -5.338  26.586  0.00  0.00    +0.105 A 
ATOM      9  O   UNL     1       7.460  -5.943  27.826  0.00  0.00    -0.286 OA
ATOM     10  C   UNL     1       8.135  -3.879  25.973  0.00  0.00    +0.075 A 
ATOM     11  N   UNL     1       4.432  -4.355  25.636  0.00  0.00    -0.340 N 
ATOM     12  C   UNL     1       8.345  -2.883  25.003  0.00  0.00    +0.168 A 
ATOM     13  F   UNL     1       9.596  -2.391  24.925  0.00  0.00    -0.201 F 
ENDROOT
BRANCH   1  21
ATOM     14  C   UNL     1      10.655  -1.537  22.459  0.00  0.00    +0.025 C 
ATOM     15  C   UNL     1       9.491  -0.897  21.695  0.00  0.00    +0.068 C 
ATOM     16  N   UNL     1       9.362   0.550  21.976  0.00  0.00    -0.308 NA
ATOM     17  H   UNL     1      10.281   0.985  22.007  0.00  0.00    +0.123 HD
ATOM     18  C   UNL     1       8.601   0.871  23.201  0.00  0.00    +0.068 C 
ATOM     19  C   UNL     1       9.496   0.886  24.446  0.00  0.00    +0.025 C 
ATOM     20  C   UNL     1       7.319   0.020  23.433  0.00  0.00    +0.123 C 
ATOM     21  N   UNL     1       7.573  -1.411  23.197  0.00  0.00    -0.322 N 
ATOM     22  C   UNL     1       8.169  -1.684  21.880  0.00  0.00    +0.123 C 
ENDBRANCH   1  21
BRANCH  10  23
ATOM     23  N   UNL     1       9.190  -4.179  26.863  0.00  0.00    -0.355 N 
ATOM     24  H   UNL     1      10.099  -4.279  26.405  0.00  0.00    +0.142 HD
ATOM     25  H   UNL     1       9.211  -3.584  27.689  0.00  0.00    +0.142 HD
ENDBRANCH  10  23
BRANCH  11  26
ATOM     26  C   UNL     1       3.260  -3.815  24.912  0.00  0.00    +0.088 C 
ATOM     27  C   UNL     1       2.080  -3.253  25.673  0.00  0.00    +0.027 C 
ATOM     28  C   UNL     1       1.910  -4.489  24.848  0.00  0.00    +0.027 C 
ENDBRANCH  11  26
BRANCH   7  29
ATOM     29  C   UNL     1       4.792  -6.921  28.345  0.00  0.00    +0.342 C 
ATOM     30  O   UNL     1       3.743  -6.900  28.972  0.00  0.00    -0.245 OA
BRANCH  29  31
ATOM     31  O   UNL     1       5.701  -7.908  28.503  0.00  0.00    -0.477 OA
ATOM     32  H   UNL     1       5.983  -8.049  29.441  0.00  0.00    +0.295 HD
ENDBRANCH  29  31
ENDBRANCH   7  29
TORSDOF 5
ENDMDL
MODEL 7
REMARK VINA RESULT:      -6.7      3.769      7.512
REMARK  Name = 
REMARK  7 active torsions:
REMARK  status: ('A' for Active; 'I' for Inactive)
REMARK    1  A    between atoms: C_1  and  C_2
REMARK    2  A    between atoms: N_5  and  C_11
REMARK    3  A    between atoms: C_7  and  C_9
REMARK    4  A    between atoms: C_14  and  N_15
REMARK    5  A    between atoms: C_19  and  C_28
REMARK    6  A    between atoms: N_21  and  C_22
REMARK    7  A    between atoms: C_28  and  O_29
REMARK                            x       y       z     vdW  Elec       q    Type
REMARK                         _______ _______ _______ _____ _____    ______ ____
ROOT
ATOM      1  C   UNL     1       7.557  -2.418  23.689  0.00  0.00    +0.105 A 
ATOM      2  C   UNL     1       7.506  -1.338  24.599  0.00  0.00    +0.171 A 
ATOM      3  F   UNL     1       6.950  -1.555  25.804  0.00  0.00    -0.201 F 
ATOM      4  C   UNL     1       8.068  -0.067  24.345  0.00  0.00    +0.092 A 
ATOM      5  C   UNL     1       8.800   0.098  23.152  0.00  0.00    +0.072 A 
ATOM      6  C   UNL     1       9.490   1.395  22.909  0.00  0.00    +0.205 A 
ATOM      7  C   UNL     1       9.326   2.487  23.887  0.00  0.00    +0.122 A 
ATOM      8  C   UNL     1       8.574   2.230  24.966  0.00  0.00    +0.105 A 
ATOM      9  O   UNL     1      10.231   1.572  21.940  0.00  0.00    -0.286 OA
ATOM     10  C   UNL     1       8.938  -0.955  22.233  0.00  0.00    +0.075 A 
ATOM     11  N   UNL     1       7.920   1.043  25.236  0.00  0.00    -0.340 N 
ATOM     12  C   UNL     1       8.279  -2.167  22.507  0.00  0.00    +0.168 A 
ATOM     13  F   UNL     1       8.355  -3.109  21.549  0.00  0.00    -0.201 F 
ENDROOT
BRANCH   1  21
ATOM     14  C   UNL     1       4.241  -2.984  25.504  0.00  0.00    +0.025 C 
ATOM     15  C   UNL     1       4.655  -4.252  24.752  0.00  0.00    +0.068 C 
ATOM     16  N   UNL     1       5.226  -5.278  25.652  0.00  0.00    -0.308 NA
ATOM     17  H   UNL     1       4.691  -5.323  26.517  0.00  0.00    +0.123 HD
ATOM     18  C   UNL     1       6.663  -5.105  25.946  0.00  0.00    +0.068 C 
ATOM     19  C   UNL     1       6.897  -4.175  27.143  0.00  0.00    +0.025 C 
ATOM     20  C   UNL     1       7.550  -4.703  24.732  0.00  0.00    +0.123 C 
ATOM     21  N   UNL     1       6.926  -3.628  23.943  0.00  0.00    -0.322 N 
ATOM     22  C   UNL     1       5.550  -3.938  23.525  0.00  0.00    +0.123 C 
ENDBRANCH   1  21
BRANCH  10  23
ATOM     23  N   UNL     1       9.495  -0.773  20.947  0.00  0.00    -0.355 N 
ATOM     24  H   UNL     1       9.374  -1.579  20.329  0.00  0.00    +0.142 HD
ATOM     25  H   UNL     1       9.248   0.115  20.516  0.00  0.00    +0.142 HD
ENDBRANCH  10  23
BRANCH  11  26
ATOM     26  C   UNL     1       7.074   0.958  26.446  0.00  0.00    +0.088 C 
ATOM     27  C   UNL     1       5.650   1.466  26.424  0.00  0.00    +0.027 C 
ATOM     28  C   UNL     1       6.665   2.142  27.290  0.00  0.00    +0.027 C 
ENDBRANCH  11  26
BRANCH   7  29
ATOM     29  C   UNL     1       9.950   3.816  23.738  0.00  0.00    +0.342 C 
ATOM     30  O   UNL     1       9.421   4.853  24.112  0.00  0.00    -0.245 OA
BRANCH  29  31
ATOM     31  O   UNL     1      11.165   3.805  23.148  0.00  0.00    -0.477 OA
ATOM     32  H   UNL     1      11.856   3.314  23.658  0.00  0.00    +0.295 HD
ENDBRANCH  29  31
ENDBRANCH   7  29
TORSDOF 5
ENDMDL
MODEL 8
REMARK VINA RESULT:      -6.6      2.419      4.175
REMARK  Name = 
REMARK  7 active torsions:
REMARK  status: ('A' for Active; 'I' for Inactive)
REMARK    1  A    between atoms: C_1  and  C_2
REMARK    2  A    between atoms: N_5  and  C_11
REMARK    3  A    between atoms: C_7  and  C_9
REMARK    4  A    between atoms: C_14  and  N_15
REMARK    5  A    between atoms: C_19  and  C_28
REMARK    6  A    between atoms: N_21  and  C_22
REMARK    7  A    between atoms: C_28  and  O_29
REMARK                            x       y       z     vdW  Elec       q    Type
REMARK                         _______ _______ _______ _____ _____    ______ ____
ROOT
ATOM      1  C   UNL     1       8.481   1.165  23.354  0.00  0.00    +0.105 A 
ATOM      2  C   UNL     1       7.617   0.613  24.326  0.00  0.00    +0.171 A 
ATOM      3  F   UNL     1       6.582   1.361  24.746  0.00  0.00    -0.201 F 
ATOM      4  C   UNL     1       7.734  -0.702  24.828  0.00  0.00    +0.092 A 
ATOM      5  C   UNL     1       8.714  -1.537  24.254  0.00  0.00    +0.072 A 
ATOM      6  C   UNL     1       8.789  -2.958  24.691  0.00  0.00    +0.205 A 
ATOM      7  C   UNL     1       7.886  -3.427  25.760  0.00  0.00    +0.122 A 
ATOM      8  C   UNL     1       7.020  -2.535  26.260  0.00  0.00    +0.105 A 
ATOM      9  O   UNL     1       9.551  -3.769  24.159  0.00  0.00    -0.286 OA
ATOM     10  C   UNL     1       9.566  -1.066  23.242  0.00  0.00    +0.075 A 
ATOM     11  N   UNL     1       6.911  -1.210  25.883  0.00  0.00    -0.340 N 
ATOM     12  C   UNL     1       9.454   0.280  22.851  0.00  0.00    +0.168 A 
ATOM     13  F   UNL     1      10.360   0.711  21.954  0.00  0.00    -0.201 F 
ENDROOT
BRANCH   1  21
ATOM     14  C   UNL     1       7.664   4.221  25.499  0.00  0.00    +0.025 C 
ATOM     15  C   UNL     1       8.231   4.661  24.146  0.00  0.00    +0.068 C 
ATOM     16  N   UNL     1       7.177   5.134  23.221  0.00  0.00    -0.308 NA
ATOM     17  H   UNL     1       6.498   5.701  23.724  0.00  0.00    +0.123 HD
ATOM     18  C   UNL     1       6.493   4.061  22.471  0.00  0.00    +0.068 C 
ATOM     19  C   UNL     1       5.306   3.480  23.250  0.00  0.00    +0.025 C 
ATOM     20  C   UNL     1       7.417   2.934  21.923  0.00  0.00    +0.123 C 
ATOM     21  N   UNL     1       8.382   2.486  22.942  0.00  0.00    -0.322 N 
ATOM     22  C   UNL     1       9.162   3.588  23.526  0.00  0.00    +0.123 C 
ENDBRANCH   1  21
BRANCH  10  23
ATOM     23  N   UNL     1      10.679  -1.805  22.782  0.00  0.00    -0.355 N 
ATOM     24  H   UNL     1      10.845  -2.669  23.306  0.00  0.00    +0.142 HD
ATOM     25  H   UNL     1      10.699  -1.930  21.772  0.00  0.00    +0.142 HD
ENDBRANCH  10  23
BRANCH  11  26
ATOM     26  C   UNL     1       5.942  -0.348  26.593  0.00  0.00    +0.088 C 
ATOM     27  C   UNL     1       6.316   0.311  27.903  0.00  0.00    +0.027 C 
ATOM     28  C   UNL     1       5.239  -0.726  27.875  0.00  0.00    +0.027 C 
ENDBRANCH  11  26
BRANCH   7  29
ATOM     29  C   UNL     1       7.887  -4.808  26.280  0.00  0.00    +0.342 C 
ATOM     30  O   UNL     1       6.893  -5.519  26.300  0.00  0.00    -0.245 OA
BRANCH  29  31
ATOM     31  O   UNL     1       9.082  -5.236  26.742  0.00  0.00    -0.477 OA
ATOM     32  H   UNL     1       9.264  -4.985  27.681  0.00  0.00    +0.295 HD
ENDBRANCH  29  31
ENDBRANCH   7  29
TORSDOF 5
ENDMDL
MODEL 9
REMARK VINA RESULT:      -6.6      2.014      2.725
REMARK  Name = 
REMARK  7 active torsions:
REMARK  status: ('A' for Active; 'I' for Inactive)
REMARK    1  A    between atoms: C_1  and  C_2
REMARK    2  A    between atoms: N_5  and  C_11
REMARK    3  A    between atoms: C_7  and  C_9
REMARK    4  A    between atoms: C_14  and  N_15
REMARK    5  A    between atoms: C_19  and  C_28
REMARK    6  A    between atoms: N_21  and  C_22
REMARK    7  A    between atoms: C_28  and  O_29
REMARK                            x       y       z     vdW  Elec       q    Type
REMARK                         _______ _______ _______ _____ _____    ______ ____
ROOT
ATOM      1  C   UNL     1       7.190   0.444  24.570  0.00  0.00    +0.105 A 
ATOM      2  C   UNL     1       7.727  -0.838  24.822  0.00  0.00    +0.171 A 
ATOM      3  F   UNL     1       8.929  -1.132  24.296  0.00  0.00    -0.201 F 
ATOM      4  C   UNL     1       7.110  -1.801  25.651  0.00  0.00    +0.092 A 
ATOM      5  C   UNL     1       5.939  -1.421  26.337  0.00  0.00    +0.072 A 
ATOM      6  C   UNL     1       5.328  -2.380  27.297  0.00  0.00    +0.205 A 
ATOM      7  C   UNL     1       5.924  -3.722  27.444  0.00  0.00    +0.122 A 
ATOM      8  C   UNL     1       7.014  -3.988  26.713  0.00  0.00    +0.105 A 
ATOM      9  O   UNL     1       4.366  -2.076  28.006  0.00  0.00    -0.286 OA
ATOM     10  C   UNL     1       5.387  -0.139  26.175  0.00  0.00    +0.075 A 
ATOM     11  N   UNL     1       7.618  -3.130  25.815  0.00  0.00    -0.340 N 
ATOM     12  C   UNL     1       6.003   0.740  25.266  0.00  0.00    +0.168 A 
ATOM     13  F   UNL     1       5.378   1.915  25.069  0.00  0.00    -0.201 F 
ENDROOT
BRANCH   1  21
ATOM     14  C   UNL     1       9.370  -0.381  21.541  0.00  0.00    +0.025 C 
ATOM     15  C   UNL     1       8.919   1.082  21.485  0.00  0.00    +0.068 C 
ATOM     16  N   UNL     1       9.989   2.017  21.894  0.00  0.00    -0.308 NA
ATOM     17  H   UNL     1      10.882   1.720  21.506  0.00  0.00    +0.123 HD
ATOM     18  C   UNL     1      10.106   2.215  23.353  0.00  0.00    +0.068 C 
ATOM     19  C   UNL     1      11.013   1.164  24.006  0.00  0.00    +0.025 C 
ATOM     20  C   UNL     1       8.757   2.355  24.119  0.00  0.00    +0.123 C 
ATOM     21  N   UNL     1       7.786   1.334  23.688  0.00  0.00    -0.322 N 
ATOM     22  C   UNL     1       7.580   1.309  22.232  0.00  0.00    +0.123 C 
ENDBRANCH   1  21
BRANCH  10  23
ATOM     23  N   UNL     1       4.119   0.211  26.690  0.00  0.00    -0.355 N 
ATOM     24  H   UNL     1       3.528  -0.594  26.911  0.00  0.00    +0.142 HD
ATOM     25  H   UNL     1       4.156   0.907  27.432  0.00  0.00    +0.142 HD
ENDBRANCH  10  23
BRANCH  11  26
ATOM     26  C   UNL     1       8.779  -3.616  25.038  0.00  0.00    +0.088 C 
ATOM     27  C   UNL     1       8.639  -4.803  24.111  0.00  0.00    +0.027 C 
ATOM     28  C   UNL     1       9.517  -4.904  25.318  0.00  0.00    +0.027 C 
ENDBRANCH  11  26
BRANCH   7  29
ATOM     29  C   UNL     1       5.390  -4.756  28.354  0.00  0.00    +0.342 C 
ATOM     30  O   UNL     1       6.068  -5.323  29.198  0.00  0.00    -0.245 OA
BRANCH  29  31
ATOM     31  O   UNL     1       4.080  -5.035  28.182  0.00  0.00    -0.477 OA
ATOM     32  H   UNL     1       3.474  -4.472  28.724  0.00  0.00    +0.295 HD
ENDBRANCH  29  31
ENDBRANCH   7  29
TORSDOF 5
ENDMDL
