MODEL 1
REMARK VINA RESULT:      -6.7      0.000      0.000
REMARK  Name = 
REMARK  14 active torsions:
REMARK  status: ('A' for Active; 'I' for Inactive)
REMARK    1  A    between atoms: N_10  and  C_11
REMARK    2  A    between atoms: C_14  and  C_16
REMARK    3  A    between atoms: C_16  and  O_17
REMARK    4  A    between atoms: O_17  and  P_18
REMARK    5  A    between atoms: P_18  and  O_19
REMARK    6  A    between atoms: P_18  and  O_21
REMARK    7  A    between atoms: O_21  and  P_22
REMARK    8  A    between atoms: P_22  and  O_23
REMARK    9  A    between atoms: P_22  and  C_25
REMARK   10  A    between atoms: C_25  and  P_26
REMARK   11  A    between atoms: P_26  and  O_27
REMARK   12  A    between atoms: P_26  and  O_28
REMARK   13  A    between atoms: C_30  and  O_32
REMARK   14  A    between atoms: C_33  and  O_35
REMARK                            x       y       z     vdW  Elec       q    Type
REMARK                         _______ _______ _______ _____ _____    ______ ____
ROOT
ATOM      1  C   UNL     1       7.706  -3.212  24.365  0.00  0.00    +0.253 C 
ATOM      2  C   UNL     1       8.367  -4.432  23.724  0.00  0.00    +0.195 C 
ATOM      3  C   UNL     1       8.922  -5.234  24.904  0.00  0.00    +0.178 C 
ATOM      4  C   UNL     1       8.316  -4.615  26.160  0.00  0.00    +0.178 C 
ATOM      5  O   UNL     1       7.310  -3.673  25.694  0.00  0.00    -0.346 OA
ENDROOT
BRANCH   1  13
ATOM      6  N   UNL     1      10.725   2.026  23.862  0.00  0.00    -0.341 N 
ATOM      7  H   UNL     1      10.453   2.260  24.813  0.00  0.00    +0.144 HD
ATOM      8  H   UNL     1      10.791   2.790  23.195  0.00  0.00    +0.144 HD
ATOM      9  C   UNL     1      10.090   0.923  23.344  0.00  0.00    +0.147 A 
ATOM     10  C   UNL     1       9.486  -0.068  24.140  0.00  0.00    +0.147 A 
ATOM     11  N   UNL     1       9.326  -0.178  25.503  0.00  0.00    -0.231 NA
ATOM     12  C   UNL     1       8.678  -1.308  25.673  0.00  0.00    +0.203 A 
ATOM     13  N   UNL     1       8.461  -1.968  24.481  0.00  0.00    -0.286 N 
ATOM     14  C   UNL     1       8.896  -1.136  23.474  0.00  0.00    +0.167 A 
ATOM     15  N   UNL     1       8.819  -1.307  22.149  0.00  0.00    -0.216 NA
ATOM     16  C   UNL     1       9.410  -0.294  21.495  0.00  0.00    +0.225 A 
ATOM     17  N   UNL     1      10.027   0.796  22.000  0.00  0.00    -0.219 NA
ENDBRANCH   1  13
BRANCH   2  18
ATOM     18  O   UNL     1       7.371  -5.222  23.035  0.00  0.00    -0.385 OA
ATOM     19  H   UNL     1       6.616  -5.363  23.631  0.00  0.00    +0.210 HD
ENDBRANCH   2  18
BRANCH   3  20
ATOM     20  O   UNL     1      10.344  -5.097  24.912  0.00  0.00    -0.386 OA
ATOM     21  H   UNL     1      10.703  -5.699  24.233  0.00  0.00    +0.210 HD
ENDBRANCH   3  20
BRANCH   4  22
ATOM     22  C   UNL     1       7.703  -5.610  27.200  0.00  0.00    +0.206 C 
BRANCH  22  23
ATOM     23  O   UNL     1       6.285  -5.854  27.105  0.00  0.00    -0.284 OA
BRANCH  23  24
ATOM     24  P   UNL     1       5.397  -6.133  28.434  0.00  0.00    +0.482 P 
ATOM     25  O   UNL     1       5.818  -5.332  29.623  0.00  0.00    -0.227 OA
BRANCH  24  26
ATOM     26  O   UNL     1       5.629  -7.701  28.634  0.00  0.00    -0.302 OA
ATOM     27  H   UNL     1       5.820  -8.206  27.823  0.00  0.00    +0.222 HD
ENDBRANCH  24  26
BRANCH  24  28
ATOM     28  O   UNL     1       3.834  -6.061  28.142  0.00  0.00    -0.208 OA
BRANCH  28  29
ATOM     29  P   UNL     1       2.835  -6.410  26.974  0.00  0.00    +0.350 P 
ATOM     30  O   UNL     1       1.517  -6.942  27.429  0.00  0.00    -0.258 OA
BRANCH  29  31
ATOM     31  O   UNL     1       3.657  -7.594  26.227  0.00  0.00    -0.323 OA
ATOM     32  H   UNL     1       4.196  -7.303  25.470  0.00  0.00    +0.220 HD
ENDBRANCH  29  31
BRANCH  29  33
ATOM     33  C   UNL     1       2.755  -5.281  25.598  0.00  0.00    +0.254 C 
BRANCH  33  34
ATOM     34  P   UNL     1       3.808  -4.810  24.285  0.00  0.00    +0.339 P 
ATOM     35  O   UNL     1       3.312  -4.982  22.890  0.00  0.00    -0.258 OA
BRANCH  34  36
ATOM     36  O   UNL     1       5.165  -5.627  24.560  0.00  0.00    -0.324 OA
ATOM     37  H   UNL     1       5.694  -5.321  25.324  0.00  0.00    +0.220 HD
ENDBRANCH  34  36
BRANCH  34  38
ATOM     38  O   UNL     1       4.343  -3.341  24.618  0.00  0.00    -0.324 OA
ATOM     39  H   UNL     1       3.678  -2.792  25.076  0.00  0.00    +0.220 HD
ENDBRANCH  34  38
ENDBRANCH  33  34
ENDBRANCH  29  33
ENDBRANCH  28  29
ENDBRANCH  24  28
ENDBRANCH  23  24
ENDBRANCH  22  23
ENDBRANCH   4  22
TORSDOF 14
ENDMDL
MODEL 2
REMARK VINA RESULT:      -6.7      2.790      4.555
REMARK  Name = 
REMARK  14 active torsions:
REMARK  status: ('A' for Active; 'I' for Inactive)
REMARK    1  A    between atoms: N_10  and  C_11
REMARK    2  A    between atoms: C_14  and  C_16
REMARK    3  A    between atoms: C_16  and  O_17
REMARK    4  A    between atoms: O_17  and  P_18
REMARK    5  A    between atoms: P_18  and  O_19
REMARK    6  A    between atoms: P_18  and  O_21
REMARK    7  A    between atoms: O_21  and  P_22
REMARK    8  A    between atoms: P_22  and  O_23
REMARK    9  A    between atoms: P_22  and  C_25
REMARK   10  A    between atoms: C_25  and  P_26
REMARK   11  A    between atoms: P_26  and  O_27
REMARK   12  A    between atoms: P_26  and  O_28
REMARK   13  A    between atoms: C_30  and  O_32
REMARK   14  A    between atoms: C_33  and  O_35
REMARK                            x       y       z     vdW  Elec       q    Type
REMARK                         _______ _______ _______ _____ _____    ______ ____
ROOT
ATOM      1  C   UNL     1       8.303  -0.172  22.517  0.00  0.00    +0.253 C 
ATOM      2  C   UNL     1       9.764  -0.598  22.657  0.00  0.00    +0.195 C 
ATOM      3  C   UNL     1       9.889  -1.078  24.105  0.00  0.00    +0.178 C 
ATOM      4  C   UNL     1       8.464  -1.187  24.640  0.00  0.00    +0.178 C 
ATOM      5  O   UNL     1       7.593  -0.998  23.491  0.00  0.00    -0.346 OA
ENDROOT
BRANCH   1  13
ATOM      6  N   UNL     1       7.793   5.809  23.396  0.00  0.00    -0.341 N 
ATOM      7  H   UNL     1       6.933   5.803  22.853  0.00  0.00    +0.144 HD
ATOM      8  H   UNL     1       8.387   6.629  23.319  0.00  0.00    +0.144 HD
ATOM      9  C   UNL     1       8.503   4.633  23.350  0.00  0.00    +0.147 A 
ATOM     10  C   UNL     1       7.930   3.396  22.999  0.00  0.00    +0.147 A 
ATOM     11  N   UNL     1       6.660   3.055  22.593  0.00  0.00    -0.231 NA
ATOM     12  C   UNL     1       6.710   1.758  22.393  0.00  0.00    +0.203 A 
ATOM     13  N   UNL     1       7.945   1.230  22.708  0.00  0.00    -0.286 N 
ATOM     14  C   UNL     1       8.770   2.289  23.013  0.00  0.00    +0.167 A 
ATOM     15  N   UNL     1      10.077   2.281  23.301  0.00  0.00    -0.216 NA
ATOM     16  C   UNL     1      10.514   3.514  23.601  0.00  0.00    +0.225 A 
ATOM     17  N   UNL     1       9.821   4.674  23.639  0.00  0.00    -0.219 NA
ENDBRANCH   1  13
BRANCH   2  18
ATOM     18  O   UNL     1      10.040  -1.699  21.762  0.00  0.00    -0.385 OA
ATOM     19  H   UNL     1       9.264  -1.842  21.193  0.00  0.00    +0.210 HD
ENDBRANCH   2  18
BRANCH   3  20
ATOM     20  O   UNL     1      10.628  -0.102  24.840  0.00  0.00    -0.386 OA
ATOM     21  H   UNL     1      10.005   0.599  25.113  0.00  0.00    +0.210 HD
ENDBRANCH   3  20
BRANCH   4  22
ATOM     22  C   UNL     1       8.105  -2.509  25.396  0.00  0.00    +0.206 C 
BRANCH  22  23
ATOM     23  O   UNL     1       9.165  -3.474  25.553  0.00  0.00    -0.284 OA
BRANCH  23  24
ATOM     24  P   UNL     1       8.895  -5.055  25.313  0.00  0.00    +0.482 P 
ATOM     25  O   UNL     1       7.948  -5.665  26.296  0.00  0.00    -0.227 OA
BRANCH  24  26
ATOM     26  O   UNL     1      10.376  -5.642  25.440  0.00  0.00    -0.302 OA
ATOM     27  H   UNL     1      10.443  -6.540  25.811  0.00  0.00    +0.222 HD
ENDBRANCH  24  26
BRANCH  24  28
ATOM     28  O   UNL     1       8.534  -5.383  23.799  0.00  0.00    -0.208 OA
BRANCH  28  29
ATOM     29  P   UNL     1       7.310  -5.228  22.817  0.00  0.00    +0.350 P 
ATOM     30  O   UNL     1       7.341  -6.150  21.643  0.00  0.00    -0.258 OA
BRANCH  29  31
ATOM     31  O   UNL     1       7.535  -3.705  22.303  0.00  0.00    -0.323 OA
ATOM     32  H   UNL     1       7.709  -3.057  23.009  0.00  0.00    +0.220 HD
ENDBRANCH  29  31
BRANCH  29  33
ATOM     33  C   UNL     1       5.701  -4.991  23.544  0.00  0.00    +0.254 C 
BRANCH  33  34
ATOM     34  P   UNL     1       4.556  -5.970  24.432  0.00  0.00    +0.339 P 
ATOM     35  O   UNL     1       3.196  -5.413  24.674  0.00  0.00    -0.258 OA
BRANCH  34  36
ATOM     36  O   UNL     1       5.327  -6.330  25.797  0.00  0.00    -0.324 OA
ATOM     37  H   UNL     1       4.756  -6.469  26.579  0.00  0.00    +0.220 HD
ENDBRANCH  34  36
BRANCH  34  38
ATOM     38  O   UNL     1       4.566  -7.422  23.764  0.00  0.00    -0.324 OA
ATOM     39  H   UNL     1       4.045  -8.075  24.271  0.00  0.00    +0.220 HD
ENDBRANCH  34  38
ENDBRANCH  33  34
ENDBRANCH  29  33
ENDBRANCH  28  29
ENDBRANCH  24  28
ENDBRANCH  23  24
ENDBRANCH  22  23
ENDBRANCH   4  22
TORSDOF 14
ENDMDL
MODEL 3
REMARK VINA RESULT:      -6.7      2.608      4.831
REMARK  Name = 
REMARK  14 active torsions:
REMARK  status: ('A' for Active; 'I' for Inactive)
REMARK    1  A    between atoms: N_10  and  C_11
REMARK    2  A    between atoms: C_14  and  C_16
REMARK    3  A    between atoms: C_16  and  O_17
REMARK    4  A    between atoms: O_17  and  P_18
REMARK    5  A    between atoms: P_18  and  O_19
REMARK    6  A    between atoms: P_18  and  O_21
REMARK    7  A    between atoms: O_21  and  P_22
REMARK    8  A    between atoms: P_22  and  O_23
REMARK    9  A    between atoms: P_22  and  C_25
REMARK   10  A    between atoms: C_25  and  P_26
REMARK   11  A    between atoms: P_26  and  O_27
REMARK   12  A    between atoms: P_26  and  O_28
REMARK   13  A    between atoms: C_30  and  O_32
REMARK   14  A    between atoms: C_33  and  O_35
REMARK                            x       y       z     vdW  Elec       q    Type
REMARK                         _______ _______ _______ _____ _____    ______ ____
ROOT
ATOM      1  C   UNL     1       9.083   0.319  25.182  0.00  0.00    +0.253 C 
ATOM      2  C   UNL     1       7.613  -0.096  25.220  0.00  0.00    +0.195 C 
ATOM      3  C   UNL     1       7.435  -0.999  23.997  0.00  0.00    +0.178 C 
ATOM      4  C   UNL     1       8.840  -1.302  23.485  0.00  0.00    +0.178 C 
ATOM      5  O   UNL     1       9.750  -0.785  24.496  0.00  0.00    -0.346 OA
ENDROOT
BRANCH   1  13
ATOM      6  N   UNL     1       9.927   5.976  23.161  0.00  0.00    -0.341 N 
ATOM      7  H   UNL     1      10.896   5.745  22.955  0.00  0.00    +0.144 HD
ATOM      8  H   UNL     1       9.731   6.920  23.478  0.00  0.00    +0.144 HD
ATOM      9  C   UNL     1       9.257   5.021  23.887  0.00  0.00    +0.147 A 
ATOM     10  C   UNL     1       9.664   3.676  23.959  0.00  0.00    +0.147 A 
ATOM     11  N   UNL     1      10.752   3.017  23.434  0.00  0.00    -0.231 NA
ATOM     12  C   UNL     1      10.617   1.774  23.837  0.00  0.00    +0.203 A 
ATOM     13  N   UNL     1       9.454   1.583  24.556  0.00  0.00    -0.286 N 
ATOM     14  C   UNL     1       8.875   2.821  24.720  0.00  0.00    +0.167 A 
ATOM     15  N   UNL     1       7.780   3.151  25.416  0.00  0.00    -0.216 NA
ATOM     16  C   UNL     1       7.501   4.459  25.287  0.00  0.00    +0.225 A 
ATOM     17  N   UNL     1       8.162   5.401  24.581  0.00  0.00    -0.219 NA
ENDBRANCH   1  13
BRANCH   2  18
ATOM     18  O   UNL     1       7.350  -0.858  26.420  0.00  0.00    -0.385 OA
ATOM     19  H   UNL     1       6.730  -1.575  26.206  0.00  0.00    +0.210 HD
ENDBRANCH   2  18
BRANCH   3  20
ATOM     20  O   UNL     1       6.686  -0.282  23.014  0.00  0.00    -0.386 OA
ATOM     21  H   UNL     1       5.926   0.132  23.464  0.00  0.00    +0.210 HD
ENDBRANCH   3  20
BRANCH   4  22
ATOM     22  C   UNL     1       9.156  -2.801  23.169  0.00  0.00    +0.206 C 
BRANCH  22  23
ATOM     23  O   UNL     1       9.734  -3.581  24.237  0.00  0.00    -0.284 OA
BRANCH  23  24
ATOM     24  P   UNL     1       8.794  -4.312  25.338  0.00  0.00    +0.482 P 
ATOM     25  O   UNL     1       8.659  -3.555  26.619  0.00  0.00    -0.227 OA
BRANCH  24  26
ATOM     26  O   UNL     1       9.562  -5.701  25.522  0.00  0.00    -0.302 OA
ATOM     27  H   UNL     1       9.710  -6.212  24.706  0.00  0.00    +0.222 HD
ENDBRANCH  24  26
BRANCH  24  28
ATOM     28  O   UNL     1       7.400  -4.778  24.728  0.00  0.00    -0.208 OA
BRANCH  28  29
ATOM     29  P   UNL     1       5.880  -4.803  25.144  0.00  0.00    +0.350 P 
ATOM     30  O   UNL     1       4.927  -4.841  23.995  0.00  0.00    -0.258 OA
BRANCH  29  31
ATOM     31  O   UNL     1       5.755  -3.366  25.890  0.00  0.00    -0.323 OA
ATOM     32  H   UNL     1       6.509  -2.766  25.750  0.00  0.00    +0.220 HD
ENDBRANCH  29  31
BRANCH  29  33
ATOM     33  C   UNL     1       5.425  -5.824  26.530  0.00  0.00    +0.254 C 
BRANCH  33  34
ATOM     34  P   UNL     1       6.005  -6.076  28.161  0.00  0.00    +0.339 P 
ATOM     35  O   UNL     1       5.651  -5.065  29.196  0.00  0.00    -0.258 OA
BRANCH  34  36
ATOM     36  O   UNL     1       7.595  -6.249  27.987  0.00  0.00    -0.324 OA
ATOM     37  H   UNL     1       7.879  -6.982  27.406  0.00  0.00    +0.220 HD
ENDBRANCH  34  36
BRANCH  34  38
ATOM     38  O   UNL     1       5.645  -7.581  28.558  0.00  0.00    -0.324 OA
ATOM     39  H   UNL     1       6.436  -8.148  28.649  0.00  0.00    +0.220 HD
ENDBRANCH  34  38
ENDBRANCH  33  34
ENDBRANCH  29  33
ENDBRANCH  28  29
ENDBRANCH  24  28
ENDBRANCH  23  24
ENDBRANCH  22  23
ENDBRANCH   4  22
TORSDOF 14
ENDMDL
MODEL 4
REMARK VINA RESULT:      -6.7      5.876      8.749
REMARK  Name = 
REMARK  14 active torsions:
REMARK  status: ('A' for Active; 'I' for Inactive)
REMARK    1  A    between atoms: N_10  and  C_11
REMARK    2  A    between atoms: C_14  and  C_16
REMARK    3  A    between atoms: C_16  and  O_17
REMARK    4  A    between atoms: O_17  and  P_18
REMARK    5  A    between atoms: P_18  and  O_19
REMARK    6  A    between atoms: P_18  and  O_21
REMARK    7  A    between atoms: O_21  and  P_22
REMARK    8  A    between atoms: P_22  and  O_23
REMARK    9  A    between atoms: P_22  and  C_25
REMARK   10  A    between atoms: C_25  and  P_26
REMARK   11  A    between atoms: P_26  and  O_27
REMARK   12  A    between atoms: P_26  and  O_28
REMARK   13  A    between atoms: C_30  and  O_32
REMARK   14  A    between atoms: C_33  and  O_35
REMARK                            x       y       z     vdW  Elec       q    Type
REMARK                         _______ _______ _______ _____ _____    ______ ____
ROOT
ATOM      1  C   UNL     1       7.320  -1.887  24.576  0.00  0.00    +0.253 C 
ATOM      2  C   UNL     1       8.731  -1.889  25.163  0.00  0.00    +0.195 C 
ATOM      3  C   UNL     1       9.646  -2.157  23.966  0.00  0.00    +0.178 C 
ATOM      4  C   UNL     1       8.774  -2.006  22.723  0.00  0.00    +0.178 C 
ATOM      5  O   UNL     1       7.507  -1.465  23.190  0.00  0.00    -0.346 OA
ENDROOT
BRANCH   1  13
ATOM      6  N   UNL     1       4.424  -7.113  25.634  0.00  0.00    -0.341 N 
ATOM      7  H   UNL     1       3.671  -6.804  25.024  0.00  0.00    +0.144 HD
ATOM      8  H   UNL     1       4.171  -7.677  26.439  0.00  0.00    +0.144 HD
ATOM      9  C   UNL     1       5.346  -6.139  25.937  0.00  0.00    +0.147 A 
ATOM     10  C   UNL     1       5.532  -4.981  25.158  0.00  0.00    +0.147 A 
ATOM     11  N   UNL     1       4.886  -4.516  24.035  0.00  0.00    -0.231 NA
ATOM     12  C   UNL     1       5.482  -3.380  23.754  0.00  0.00    +0.203 A 
ATOM     13  N   UNL     1       6.528  -3.112  24.613  0.00  0.00    -0.286 N 
ATOM     14  C   UNL     1       6.514  -4.092  25.580  0.00  0.00    +0.167 A 
ATOM     15  N   UNL     1       7.285  -4.210  26.669  0.00  0.00    -0.216 NA
ATOM     16  C   UNL     1       7.005  -5.340  27.339  0.00  0.00    +0.225 A 
ATOM     17  N   UNL     1       6.095  -6.295  27.050  0.00  0.00    -0.219 NA
ENDBRANCH   1  13
BRANCH   2  18
ATOM     18  O   UNL     1       9.032  -0.587  25.715  0.00  0.00    -0.385 OA
ATOM     19  H   UNL     1       9.721  -0.168  25.171  0.00  0.00    +0.210 HD
ENDBRANCH   2  18
BRANCH   3  20
ATOM     20  O   UNL     1      10.145  -3.491  24.071  0.00  0.00    -0.386 OA
ATOM     21  H   UNL     1       9.555  -4.070  23.552  0.00  0.00    +0.210 HD
ENDBRANCH   3  20
BRANCH   4  22
ATOM     22  C   UNL     1       9.359  -1.129  21.567  0.00  0.00    +0.206 C 
BRANCH  22  23
ATOM     23  O   UNL     1      10.106   0.042  21.955  0.00  0.00    -0.284 OA
BRANCH  23  24
ATOM     24  P   UNL     1       9.369   1.475  22.148  0.00  0.00    +0.482 P 
ATOM     25  O   UNL     1       8.092   1.608  21.383  0.00  0.00    -0.227 OA
BRANCH  24  26
ATOM     26  O   UNL     1      10.503   2.474  21.630  0.00  0.00    -0.302 OA
ATOM     27  H   UNL     1      10.558   2.584  20.664  0.00  0.00    +0.222 HD
ENDBRANCH  24  26
BRANCH  24  28
ATOM     28  O   UNL     1       9.236   1.884  23.680  0.00  0.00    -0.208 OA
BRANCH  28  29
ATOM     29  P   UNL     1       8.321   2.799  24.581  0.00  0.00    +0.350 P 
ATOM     30  O   UNL     1       7.815   2.134  25.819  0.00  0.00    -0.258 OA
BRANCH  29  31
ATOM     31  O   UNL     1       7.077   3.058  23.571  0.00  0.00    -0.323 OA
ATOM     32  H   UNL     1       6.778   2.271  23.081  0.00  0.00    +0.220 HD
ENDBRANCH  29  31
BRANCH  29  33
ATOM     33  C   UNL     1       8.809   4.499  24.787  0.00  0.00    +0.254 C 
BRANCH  33  34
ATOM     34  P   UNL     1       9.929   5.597  24.014  0.00  0.00    +0.339 P 
ATOM     35  O   UNL     1      10.496   6.710  24.827  0.00  0.00    -0.258 OA
BRANCH  34  36
ATOM     36  O   UNL     1       9.129   6.124  22.722  0.00  0.00    -0.324 OA
ATOM     37  H   UNL     1       8.233   5.751  22.599  0.00  0.00    +0.220 HD
ENDBRANCH  34  36
BRANCH  34  38
ATOM     38  O   UNL     1      11.022   4.702  23.267  0.00  0.00    -0.324 OA
ATOM     39  H   UNL     1      11.935   5.016  23.418  0.00  0.00    +0.220 HD
ENDBRANCH  34  38
ENDBRANCH  33  34
ENDBRANCH  29  33
ENDBRANCH  28  29
ENDBRANCH  24  28
ENDBRANCH  23  24
ENDBRANCH  22  23
ENDBRANCH   4  22
TORSDOF 14
ENDMDL
MODEL 5
REMARK VINA RESULT:      -6.7      6.298      9.380
REMARK  Name = 
REMARK  14 active torsions:
REMARK  status: ('A' for Active; 'I' for Inactive)
REMARK    1  A    between atoms: N_10  and  C_11
REMARK    2  A    between atoms: C_14  and  C_16
REMARK    3  A    between atoms: C_16  and  O_17
REMARK    4  A    between atoms: O_17  and  P_18
REMARK    5  A    between atoms: P_18  and  O_19
REMARK    6  A    between atoms: P_18  and  O_21
REMARK    7  A    between atoms: O_21  and  P_22
REMARK    8  A    between atoms: P_22  and  O_23
REMARK    9  A    between atoms: P_22  and  C_25
REMARK   10  A    between atoms: C_25  and  P_26
REMARK   11  A    between atoms: P_26  and  O_27
REMARK   12  A    between atoms: P_26  and  O_28
REMARK   13  A    between atoms: C_30  and  O_32
REMARK   14  A    between atoms: C_33  and  O_35
REMARK                            x       y       z     vdW  Elec       q    Type
REMARK                         _______ _______ _______ _____ _____    ______ ____
ROOT
ATOM      1  C   UNL     1       8.414  -5.127  26.211  0.00  0.00    +0.253 C 
ATOM      2  C   UNL     1       9.078  -5.009  24.839  0.00  0.00    +0.195 C 
ATOM      3  C   UNL     1       8.817  -3.563  24.409  0.00  0.00    +0.178 C 
ATOM      4  C   UNL     1       8.289  -2.841  25.645  0.00  0.00    +0.178 C 
ATOM      5  O   UNL     1       8.459  -3.770  26.751  0.00  0.00    -0.346 OA
ENDROOT
BRANCH   1  13
ATOM      6  N   UNL     1       2.905  -7.263  27.586  0.00  0.00    -0.341 N 
ATOM      7  H   UNL     1       2.549  -6.869  26.719  0.00  0.00    +0.144 HD
ATOM      8  H   UNL     1       2.282  -7.263  28.389  0.00  0.00    +0.144 HD
ATOM      9  C   UNL     1       4.183  -6.872  27.907  0.00  0.00    +0.147 A 
ATOM     10  C   UNL     1       5.098  -6.371  26.963  0.00  0.00    +0.147 A 
ATOM     11  N   UNL     1       4.977  -6.104  25.617  0.00  0.00    -0.231 NA
ATOM     12  C   UNL     1       6.153  -5.642  25.261  0.00  0.00    +0.203 A 
ATOM     13  N   UNL     1       7.055  -5.649  26.305  0.00  0.00    -0.286 N 
ATOM     14  C   UNL     1       6.362  -6.032  27.432  0.00  0.00    +0.167 A 
ATOM     15  N   UNL     1       6.792  -6.108  28.697  0.00  0.00    -0.216 NA
ATOM     16  C   UNL     1       5.830  -6.580  29.507  0.00  0.00    +0.225 A 
ATOM     17  N   UNL     1       4.570  -6.957  29.198  0.00  0.00    -0.219 NA
ENDBRANCH   1  13
BRANCH   2  18
ATOM     18  O   UNL     1      10.502  -5.222  24.965  0.00  0.00    -0.385 OA
ATOM     19  H   UNL     1      10.718  -6.105  24.618  0.00  0.00    +0.210 HD
ENDBRANCH   2  18
BRANCH   3  20
ATOM     20  O   UNL     1       7.834  -3.572  23.373  0.00  0.00    -0.386 OA
ATOM     21  H   UNL     1       8.197  -3.076  22.615  0.00  0.00    +0.210 HD
ENDBRANCH   3  20
BRANCH   4  22
ATOM     22  C   UNL     1       8.944  -1.460  25.976  0.00  0.00    +0.206 C 
BRANCH  22  23
ATOM     23  O   UNL     1       8.615  -0.360  25.102  0.00  0.00    -0.284 OA
BRANCH  23  24
ATOM     24  P   UNL     1       9.772   0.431  24.286  0.00  0.00    +0.482 P 
ATOM     25  O   UNL     1      10.145  -0.210  22.989  0.00  0.00    -0.227 OA
BRANCH  24  26
ATOM     26  O   UNL     1      10.966   0.408  25.349  0.00  0.00    -0.302 OA
ATOM     27  H   UNL     1      11.843   0.648  25.002  0.00  0.00    +0.222 HD
ENDBRANCH  24  26
BRANCH  24  28
ATOM     28  O   UNL     1       9.466   1.987  24.160  0.00  0.00    -0.208 OA
BRANCH  28  29
ATOM     29  P   UNL     1       9.956   3.220  23.308  0.00  0.00    +0.350 P 
ATOM     30  O   UNL     1       8.974   4.342  23.228  0.00  0.00    -0.258 OA
BRANCH  29  31
ATOM     31  O   UNL     1      10.095   2.531  21.844  0.00  0.00    -0.323 OA
ATOM     32  H   UNL     1       9.312   2.030  21.553  0.00  0.00    +0.220 HD
ENDBRANCH  29  31
BRANCH  29  33
ATOM     33  C   UNL     1      11.655   3.721  23.490  0.00  0.00    +0.254 C 
BRANCH  33  34
ATOM     34  P   UNL     1      12.570   5.195  23.276  0.00  0.00    +0.339 P 
ATOM     35  O   UNL     1      12.226   6.366  24.131  0.00  0.00    -0.258 OA
BRANCH  34  36
ATOM     36  O   UNL     1      12.430   5.517  21.706  0.00  0.00    -0.324 OA
ATOM     37  H   UNL     1      12.384   6.466  21.473  0.00  0.00    +0.220 HD
ENDBRANCH  34  36
BRANCH  34  38
ATOM     38  O   UNL     1      14.116   4.793  23.299  0.00  0.00    -0.324 OA
ATOM     39  H   UNL     1      14.654   5.322  22.677  0.00  0.00    +0.220 HD
ENDBRANCH  34  38
ENDBRANCH  33  34
ENDBRANCH  29  33
ENDBRANCH  28  29
ENDBRANCH  24  28
ENDBRANCH  23  24
ENDBRANCH  22  23
ENDBRANCH   4  22
TORSDOF 14
ENDMDL
MODEL 6
REMARK VINA RESULT:      -6.6      5.628      8.391
REMARK  Name = 
REMARK  14 active torsions:
REMARK  status: ('A' for Active; 'I' for Inactive)
REMARK    1  A    between atoms: N_10  and  C_11
REMARK    2  A    between atoms: C_14  and  C_16
REMARK    3  A    between atoms: C_16  and  O_17
REMARK    4  A    between atoms: O_17  and  P_18
REMARK    5  A    between atoms: P_18  and  O_19
REMARK    6  A    between atoms: P_18  and  O_21
REMARK    7  A    between atoms: O_21  and  P_22
REMARK    8  A    between atoms: P_22  and  O_23
REMARK    9  A    between atoms: P_22  and  C_25
REMARK   10  A    between atoms: C_25  and  P_26
REMARK   11  A    between atoms: P_26  and  O_27
REMARK   12  A    between atoms: P_26  and  O_28
REMARK   13  A    between atoms: C_30  and  O_32
REMARK   14  A    between atoms: C_33  and  O_35
REMARK                            x       y       z     vdW  Elec       q    Type
REMARK                         _______ _______ _______ _____ _____    ______ ____
ROOT
ATOM      1  C   UNL     1       6.791  -2.720  24.680  0.00  0.00    +0.253 C 
ATOM      2  C   UNL     1       7.969  -3.153  25.550  0.00  0.00    +0.195 C 
ATOM      3  C   UNL     1       9.152  -3.238  24.583  0.00  0.00    +0.178 C 
ATOM      4  C   UNL     1       8.689  -2.580  23.287  0.00  0.00    +0.178 C 
ATOM      5  O   UNL     1       7.406  -1.965  23.590  0.00  0.00    -0.346 OA
ENDROOT
BRANCH   1  13
ATOM      6  N   UNL     1       3.094  -7.331  23.309  0.00  0.00    -0.341 N 
ATOM      7  H   UNL     1       2.656  -6.752  22.598  0.00  0.00    +0.144 HD
ATOM      8  H   UNL     1       2.500  -7.986  23.808  0.00  0.00    +0.144 HD
ATOM      9  C   UNL     1       3.955  -6.656  24.141  0.00  0.00    +0.147 A 
ATOM     10  C   UNL     1       4.550  -5.426  23.805  0.00  0.00    +0.147 A 
ATOM     11  N   UNL     1       4.416  -4.611  22.703  0.00  0.00    -0.231 NA
ATOM     12  C   UNL     1       5.207  -3.591  22.944  0.00  0.00    +0.203 A 
ATOM     13  N   UNL     1       5.896  -3.733  24.131  0.00  0.00    -0.286 N 
ATOM     14  C   UNL     1       5.414  -4.869  24.742  0.00  0.00    +0.167 A 
ATOM     15  N   UNL     1       5.718  -5.370  25.945  0.00  0.00    -0.216 NA
ATOM     16  C   UNL     1       5.079  -6.531  26.162  0.00  0.00    +0.225 A 
ATOM     17  N   UNL     1       4.226  -7.194  25.350  0.00  0.00    -0.219 NA
ENDBRANCH   1  13
BRANCH   2  18
ATOM     18  O   UNL     1       8.238  -2.141  26.548  0.00  0.00    -0.385 OA
ATOM     19  H   UNL     1       9.201  -2.038  26.638  0.00  0.00    +0.210 HD
ENDBRANCH   2  18
BRANCH   3  20
ATOM     20  O   UNL     1       9.457  -4.616  24.365  0.00  0.00    -0.386 OA
ATOM     21  H   UNL     1       8.614  -5.108  24.350  0.00  0.00    +0.210 HD
ENDBRANCH   3  20
BRANCH   4  22
ATOM     22  C   UNL     1       9.666  -1.538  22.649  0.00  0.00    +0.206 C 
BRANCH  22  23
ATOM     23  O   UNL     1      10.540  -0.831  23.552  0.00  0.00    -0.284 OA
BRANCH  23  24
ATOM     24  P   UNL     1      10.128   0.622  24.144  0.00  0.00    +0.482 P 
ATOM     25  O   UNL     1      11.240   1.620  24.131  0.00  0.00    -0.227 OA
BRANCH  24  26
ATOM     26  O   UNL     1       9.672   0.230  25.625  0.00  0.00    -0.302 OA
ATOM     27  H   UNL     1       8.879   0.688  25.957  0.00  0.00    +0.222 HD
ENDBRANCH  24  26
BRANCH  24  28
ATOM     28  O   UNL     1       8.776   1.171  23.512  0.00  0.00    -0.208 OA
BRANCH  28  29
ATOM     29  P   UNL     1       8.323   2.203  22.410  0.00  0.00    +0.350 P 
ATOM     30  O   UNL     1       7.207   1.726  21.540  0.00  0.00    -0.258 OA
BRANCH  29  31
ATOM     31  O   UNL     1       9.680   2.305  21.525  0.00  0.00    -0.323 OA
ATOM     32  H   UNL     1      10.507   2.219  22.033  0.00  0.00    +0.220 HD
ENDBRANCH  29  31
BRANCH  29  33
ATOM     33  C   UNL     1       8.226   3.918  22.882  0.00  0.00    +0.254 C 
BRANCH  33  34
ATOM     34  P   UNL     1       7.082   5.225  22.677  0.00  0.00    +0.339 P 
ATOM     35  O   UNL     1       6.733   6.046  23.871  0.00  0.00    -0.258 OA
BRANCH  34  36
ATOM     36  O   UNL     1       5.796   4.518  22.019  0.00  0.00    -0.324 OA
ATOM     37  H   UNL     1       5.975   3.693  21.524  0.00  0.00    +0.220 HD
ENDBRANCH  34  36
BRANCH  34  38
ATOM     38  O   UNL     1       7.562   6.072  21.411  0.00  0.00    -0.324 OA
ATOM     39  H   UNL     1       7.185   6.973  21.394  0.00  0.00    +0.220 HD
ENDBRANCH  34  38
ENDBRANCH  33  34
ENDBRANCH  29  33
ENDBRANCH  28  29
ENDBRANCH  24  28
ENDBRANCH  23  24
ENDBRANCH  22  23
ENDBRANCH   4  22
TORSDOF 14
ENDMDL
MODEL 7
REMARK VINA RESULT:      -6.6      2.138      3.109
REMARK  Name = 
REMARK  14 active torsions:
REMARK  status: ('A' for Active; 'I' for Inactive)
REMARK    1  A    between atoms: N_10  and  C_11
REMARK    2  A    between atoms: C_14  and  C_16
REMARK    3  A    between atoms: C_16  and  O_17
REMARK    4  A    between atoms: O_17  and  P_18
REMARK    5  A    between atoms: P_18  and  O_19
REMARK    6  A    between atoms: P_18  and  O_21
REMARK    7  A    between atoms: O_21  and  P_22
REMARK    8  A    between atoms: P_22  and  O_23
REMARK    9  A    between atoms: P_22  and  C_25
REMARK   10  A    between atoms: C_25  and  P_26
REMARK   11  A    between atoms: P_26  and  O_27
REMARK   12  A    between atoms: P_26  and  O_28
REMARK   13  A    between atoms: C_30  and  O_32
REMARK   14  A    between atoms: C_33  and  O_35
REMARK                            x       y       z     vdW  Elec       q    Type
REMARK                         _______ _______ _______ _____ _____    ______ ____
ROOT
ATOM      1  C   UNL     1       8.095  -0.628  25.235  0.00  0.00    +0.253 C 
ATOM      2  C   UNL     1       7.122  -1.298  24.265  0.00  0.00    +0.195 C 
ATOM      3  C   UNL     1       7.809  -2.608  23.874  0.00  0.00    +0.178 C 
ATOM      4  C   UNL     1       8.981  -2.777  24.836  0.00  0.00    +0.178 C 
ATOM      5  O   UNL     1       8.819  -1.741  25.844  0.00  0.00    -0.346 OA
ENDROOT
BRANCH   1  13
ATOM      6  N   UNL     1      11.273   4.102  23.155  0.00  0.00    -0.341 N 
ATOM      7  H   UNL     1      12.114   3.701  23.564  0.00  0.00    +0.144 HD
ATOM      8  H   UNL     1      11.193   5.114  23.153  0.00  0.00    +0.144 HD
ATOM      9  C   UNL     1      10.107   3.477  23.525  0.00  0.00    +0.147 A 
ATOM     10  C   UNL     1      10.058   2.162  24.026  0.00  0.00    +0.147 A 
ATOM     11  N   UNL     1      11.050   1.251  24.309  0.00  0.00    -0.231 NA
ATOM     12  C   UNL     1      10.414   0.195  24.761  0.00  0.00    +0.203 A 
ATOM     13  N   UNL     1       9.044   0.358  24.729  0.00  0.00    -0.286 N 
ATOM     14  C   UNL     1       8.803   1.657  24.343  0.00  0.00    +0.167 A 
ATOM     15  N   UNL     1       7.634   2.302  24.247  0.00  0.00    -0.216 NA
ATOM     16  C   UNL     1       7.806   3.548  23.777  0.00  0.00    +0.225 A 
ATOM     17  N   UNL     1       8.952   4.169  23.420  0.00  0.00    -0.219 NA
ENDBRANCH   1  13
BRANCH   2  18
ATOM     18  O   UNL     1       5.880  -1.593  24.944  0.00  0.00    -0.385 OA
ATOM     19  H   UNL     1       5.151  -1.532  24.304  0.00  0.00    +0.210 HD
ENDBRANCH   2  18
BRANCH   3  20
ATOM     20  O   UNL     1       8.277  -2.486  22.530  0.00  0.00    -0.386 OA
ATOM     21  H   UNL     1       8.352  -3.386  22.159  0.00  0.00    +0.210 HD
ENDBRANCH   3  20
BRANCH   4  22
ATOM     22  C   UNL     1       9.133  -4.183  25.506  0.00  0.00    +0.206 C 
BRANCH  22  23
ATOM     23  O   UNL     1       8.055  -5.119  25.300  0.00  0.00    -0.284 OA
BRANCH  23  24
ATOM     24  P   UNL     1       6.830  -5.225  26.359  0.00  0.00    +0.482 P 
ATOM     25  O   UNL     1       6.360  -3.904  26.876  0.00  0.00    -0.227 OA
BRANCH  24  26
ATOM     26  O   UNL     1       7.488  -6.132  27.498  0.00  0.00    -0.302 OA
ATOM     27  H   UNL     1       7.530  -7.086  27.305  0.00  0.00    +0.222 HD
ENDBRANCH  24  26
BRANCH  24  28
ATOM     28  O   UNL     1       5.652  -6.154  25.829  0.00  0.00    -0.208 OA
BRANCH  28  29
ATOM     29  P   UNL     1       4.432  -6.060  24.835  0.00  0.00    +0.350 P 
ATOM     30  O   UNL     1       3.106  -5.902  25.502  0.00  0.00    -0.258 OA
BRANCH  29  31
ATOM     31  O   UNL     1       4.505  -7.525  24.139  0.00  0.00    -0.323 OA
ATOM     32  H   UNL     1       5.304  -7.685  23.606  0.00  0.00    +0.220 HD
ENDBRANCH  29  31
BRANCH  29  33
ATOM     33  C   UNL     1       4.650  -5.091  23.357  0.00  0.00    +0.254 C 
BRANCH  33  34
ATOM     34  P   UNL     1       5.757  -5.079  22.003  0.00  0.00    +0.339 P 
ATOM     35  O   UNL     1       5.804  -3.861  21.146  0.00  0.00    -0.258 OA
BRANCH  34  36
ATOM     36  O   UNL     1       5.372  -6.401  21.173  0.00  0.00    -0.324 OA
ATOM     37  H   UNL     1       5.986  -7.156  21.272  0.00  0.00    +0.220 HD
ENDBRANCH  34  36
BRANCH  34  38
ATOM     38  O   UNL     1       7.179  -5.552  22.557  0.00  0.00    -0.324 OA
ATOM     39  H   UNL     1       7.899  -5.422  21.910  0.00  0.00    +0.220 HD
ENDBRANCH  34  38
ENDBRANCH  33  34
ENDBRANCH  29  33
ENDBRANCH  28  29
ENDBRANCH  24  28
ENDBRANCH  23  24
ENDBRANCH  22  23
ENDBRANCH   4  22
TORSDOF 14
ENDMDL
MODEL 8
REMARK VINA RESULT:      -6.5      4.553      7.841
REMARK  Name = 
REMARK  14 active torsions:
REMARK  status: ('A' for Active; 'I' for Inactive)
REMARK    1  A    between atoms: N_10  and  C_11
REMARK    2  A    between atoms: C_14  and  C_16
REMARK    3  A    between atoms: C_16  and  O_17
REMARK    4  A    between atoms: O_17  and  P_18
REMARK    5  A    between atoms: P_18  and  O_19
REMARK    6  A    between atoms: P_18  and  O_21
REMARK    7  A    between atoms: O_21  and  P_22
REMARK    8  A    between atoms: P_22  and  O_23
REMARK    9  A    between atoms: P_22  and  C_25
REMARK   10  A    between atoms: C_25  and  P_26
REMARK   11  A    between atoms: P_26  and  O_27
REMARK   12  A    between atoms: P_26  and  O_28
REMARK   13  A    between atoms: C_30  and  O_32
REMARK   14  A    between atoms: C_33  and  O_35
REMARK                            x       y       z     vdW  Elec       q    Type
REMARK                         _______ _______ _______ _____ _____    ______ ____
ROOT
ATOM      1  C   UNL     1       7.467  -4.900  25.617  0.00  0.00    +0.253 C 
ATOM      2  C   UNL     1       8.251  -5.545  24.475  0.00  0.00    +0.195 C 
ATOM      3  C   UNL     1       7.711  -4.873  23.210  0.00  0.00    +0.178 C 
ATOM      4  C   UNL     1       6.874  -3.688  23.683  0.00  0.00    +0.178 C 
ATOM      5  O   UNL     1       7.120  -3.573  25.112  0.00  0.00    -0.346 OA
ENDROOT
BRANCH   1  13
ATOM      6  N   UNL     1       2.925  -7.572  28.624  0.00  0.00    -0.341 N 
ATOM      7  H   UNL     1       2.277  -7.241  27.914  0.00  0.00    +0.144 HD
ATOM      8  H   UNL     1       2.586  -7.617  29.580  0.00  0.00    +0.144 HD
ATOM      9  C   UNL     1       4.189  -7.039  28.534  0.00  0.00    +0.147 A 
ATOM     10  C   UNL     1       4.706  -6.468  27.355  0.00  0.00    +0.147 A 
ATOM     11  N   UNL     1       4.144  -6.252  26.117  0.00  0.00    -0.231 NA
ATOM     12  C   UNL     1       5.093  -5.677  25.415  0.00  0.00    +0.203 A 
ATOM     13  N   UNL     1       6.270  -5.561  26.127  0.00  0.00    -0.286 N 
ATOM     14  C   UNL     1       6.008  -5.984  27.410  0.00  0.00    +0.167 A 
ATOM     15  N   UNL     1       6.814  -5.980  28.478  0.00  0.00    -0.216 NA
ATOM     16  C   UNL     1       6.209  -6.530  29.543  0.00  0.00    +0.225 A 
ATOM     17  N   UNL     1       4.965  -7.047  29.639  0.00  0.00    -0.219 NA
ENDBRANCH   1  13
BRANCH   2  18
ATOM     18  O   UNL     1       9.657  -5.242  24.615  0.00  0.00    -0.385 OA
ATOM     19  H   UNL     1       9.821  -4.347  24.273  0.00  0.00    +0.210 HD
ENDBRANCH   2  18
BRANCH   3  20
ATOM     20  O   UNL     1       6.896  -5.816  22.513  0.00  0.00    -0.386 OA
ATOM     21  H   UNL     1       7.485  -6.505  22.149  0.00  0.00    +0.210 HD
ENDBRANCH   3  20
BRANCH   4  22
ATOM     22  C   UNL     1       7.135  -2.323  22.965  0.00  0.00    +0.206 C 
BRANCH  22  23
ATOM     23  O   UNL     1       8.383  -2.193  22.252  0.00  0.00    -0.284 OA
BRANCH  23  24
ATOM     24  P   UNL     1       9.668  -1.486  22.944  0.00  0.00    +0.482 P 
ATOM     25  O   UNL     1      10.957  -1.744  22.233  0.00  0.00    -0.227 OA
BRANCH  24  26
ATOM     26  O   UNL     1       9.628  -2.139  24.402  0.00  0.00    -0.302 OA
ATOM     27  H   UNL     1       9.354  -1.544  25.122  0.00  0.00    +0.222 HD
ENDBRANCH  24  26
BRANCH  24  28
ATOM     28  O   UNL     1       9.415   0.053  23.259  0.00  0.00    -0.208 OA
BRANCH  28  29
ATOM     29  P   UNL     1       9.255   0.988  24.517  0.00  0.00    +0.350 P 
ATOM     30  O   UNL     1       9.611   2.417  24.272  0.00  0.00    -0.258 OA
BRANCH  29  31
ATOM     31  O   UNL     1      10.355   0.331  25.515  0.00  0.00    -0.323 OA
ATOM     32  H   UNL     1      11.048  -0.191  25.072  0.00  0.00    +0.220 HD
ENDBRANCH  29  31
BRANCH  29  33
ATOM     33  C   UNL     1       7.826   0.737  25.550  0.00  0.00    +0.254 C 
BRANCH  33  34
ATOM     34  P   UNL     1       7.422  -0.256  26.932  0.00  0.00    +0.339 P 
ATOM     35  O   UNL     1       5.983  -0.408  27.289  0.00  0.00    -0.258 OA
BRANCH  34  36
ATOM     36  O   UNL     1       8.291   0.372  28.131  0.00  0.00    -0.324 OA
ATOM     37  H   UNL     1       8.924   1.070  27.872  0.00  0.00    +0.220 HD
ENDBRANCH  34  36
BRANCH  34  38
ATOM     38  O   UNL     1       8.210  -1.635  26.763  0.00  0.00    -0.324 OA
ATOM     39  H   UNL     1       9.146  -1.508  26.514  0.00  0.00    +0.220 HD
ENDBRANCH  34  38
ENDBRANCH  33  34
ENDBRANCH  29  33
ENDBRANCH  28  29
ENDBRANCH  24  28
ENDBRANCH  23  24
ENDBRANCH  22  23
ENDBRANCH   4  22
TORSDOF 14
ENDMDL
MODEL 9
REMARK VINA RESULT:      -6.5      5.514      8.228
REMARK  Name = 
REMARK  14 active torsions:
REMARK  status: ('A' for Active; 'I' for Inactive)
REMARK    1  A    between atoms: N_10  and  C_11
REMARK    2  A    between atoms: C_14  and  C_16
REMARK    3  A    between atoms: C_16  and  O_17
REMARK    4  A    between atoms: O_17  and  P_18
REMARK    5  A    between atoms: P_18  and  O_19
REMARK    6  A    between atoms: P_18  and  O_21
REMARK    7  A    between atoms: O_21  and  P_22
REMARK    8  A    between atoms: P_22  and  O_23
REMARK    9  A    between atoms: P_22  and  C_25
REMARK   10  A    between atoms: C_25  and  P_26
REMARK   11  A    between atoms: P_26  and  O_27
REMARK   12  A    between atoms: P_26  and  O_28
REMARK   13  A    between atoms: C_30  and  O_32
REMARK   14  A    between atoms: C_33  and  O_35
REMARK                            x       y       z     vdW  Elec       q    Type
REMARK                         _______ _______ _______ _____ _____    ______ ____
ROOT
ATOM      1  C   UNL     1       7.096  -1.826  24.037  0.00  0.00    +0.253 C 
ATOM      2  C   UNL     1       8.341  -1.938  24.916  0.00  0.00    +0.195 C 
ATOM      3  C   UNL     1       9.501  -2.068  23.926  0.00  0.00    +0.178 C 
ATOM      4  C   UNL     1       8.927  -1.735  22.552  0.00  0.00    +0.178 C 
ATOM      5  O   UNL     1       7.585  -1.230  22.795  0.00  0.00    -0.346 OA
ENDROOT
BRANCH   1  13
ATOM      6  N   UNL     1       4.025  -7.049  23.737  0.00  0.00    -0.341 N 
ATOM      7  H   UNL     1       3.461  -6.660  22.986  0.00  0.00    +0.144 HD
ATOM      8  H   UNL     1       3.568  -7.686  24.382  0.00  0.00    +0.144 HD
ATOM      9  C   UNL     1       4.833  -6.137  24.373  0.00  0.00    +0.147 A 
ATOM     10  C   UNL     1       5.219  -4.912  23.798  0.00  0.00    +0.147 A 
ATOM     11  N   UNL     1       4.894  -4.317  22.600  0.00  0.00    -0.231 NA
ATOM     12  C   UNL     1       5.542  -3.175  22.607  0.00  0.00    +0.203 A 
ATOM     13  N   UNL     1       6.323  -3.026  23.735  0.00  0.00    -0.286 N 
ATOM     14  C   UNL     1       6.054  -4.098  24.555  0.00  0.00    +0.167 A 
ATOM     15  N   UNL     1       6.508  -4.348  25.789  0.00  0.00    -0.216 NA
ATOM     16  C   UNL     1       6.061  -5.531  26.240  0.00  0.00    +0.225 A 
ATOM     17  N   UNL     1       5.260  -6.426  25.621  0.00  0.00    -0.219 NA
ENDBRANCH   1  13
BRANCH   2  18
ATOM     18  O   UNL     1       8.505  -0.727  25.689  0.00  0.00    -0.385 OA
ATOM     19  H   UNL     1       9.243  -0.849  26.310  0.00  0.00    +0.210 HD
ENDBRANCH   2  18
BRANCH   3  20
ATOM     20  O   UNL     1       9.972  -3.416  23.960  0.00  0.00    -0.386 OA
ATOM     21  H   UNL     1       9.302  -3.953  24.424  0.00  0.00    +0.210 HD
ENDBRANCH   3  20
BRANCH   4  22
ATOM     22  C   UNL     1       9.748  -0.728  21.681  0.00  0.00    +0.206 C 
BRANCH  22  23
ATOM     23  O   UNL     1      10.242   0.452  22.347  0.00  0.00    -0.284 OA
BRANCH  23  24
ATOM     24  P   UNL     1       9.301   1.761  22.531  0.00  0.00    +0.482 P 
ATOM     25  O   UNL     1       8.272   1.924  21.460  0.00  0.00    -0.227 OA
BRANCH  24  26
ATOM     26  O   UNL     1      10.394   2.927  22.517  0.00  0.00    -0.302 OA
ATOM     27  H   UNL     1      11.304   2.655  22.732  0.00  0.00    +0.222 HD
ENDBRANCH  24  26
BRANCH  24  28
ATOM     28  O   UNL     1       8.708   1.876  24.003  0.00  0.00    -0.208 OA
BRANCH  28  29
ATOM     29  P   UNL     1       7.388   2.372  24.707  0.00  0.00    +0.350 P 
ATOM     30  O   UNL     1       7.300   2.036  26.159  0.00  0.00    -0.258 OA
BRANCH  29  31
ATOM     31  O   UNL     1       6.278   1.509  23.894  0.00  0.00    -0.323 OA
ATOM     32  H   UNL     1       6.638   0.943  23.189  0.00  0.00    +0.220 HD
ENDBRANCH  29  31
BRANCH  29  33
ATOM     33  C   UNL     1       6.785   3.991  24.273  0.00  0.00    +0.254 C 
BRANCH  33  34
ATOM     34  P   UNL     1       6.561   4.905  22.800  0.00  0.00    +0.339 P 
ATOM     35  O   UNL     1       5.778   6.171  22.871  0.00  0.00    -0.258 OA
BRANCH  34  36
ATOM     36  O   UNL     1       5.922   3.843  21.775  0.00  0.00    -0.324 OA
ATOM     37  H   UNL     1       4.976   3.640  21.914  0.00  0.00    +0.220 HD
ENDBRANCH  34  36
BRANCH  34  38
ATOM     38  O   UNL     1       7.999   5.056  22.120  0.00  0.00    -0.324 OA
ATOM     39  H   UNL     1       8.113   4.474  21.343  0.00  0.00    +0.220 HD
ENDBRANCH  34  38
ENDBRANCH  33  34
ENDBRANCH  29  33
ENDBRANCH  28  29
ENDBRANCH  24  28
ENDBRANCH  23  24
ENDBRANCH  22  23
ENDBRANCH   4  22
TORSDOF 14
ENDMDL
