MODEL 1
REMARK VINA RESULT:      -4.2      0.000      0.000
REMARK  Name = 
REMARK  3 active torsions:
REMARK  status: ('A' for Active; 'I' for Inactive)
REMARK    1  A    between atoms: OD_1  and  CG_2
REMARK    2  A    between atoms: CA_6  and  C_8
REMARK    3  A    between atoms: C_8  and  O_9
REMARK                            x       y       z     vdW  Elec       q    Type
REMARK                         _______ _______ _______ _____ _____    ______ ____
ROOT
ATOM      1  CG  HYP A   1       9.400   1.806  22.717  0.00  0.00    +0.130 C 
ATOM      2  CB  HYP A   1       8.720   0.447  22.787  0.00  0.00    +0.062 C 
ATOM      3  CA  HYP A   1       9.627  -0.407  23.671  0.00  0.00    +0.166 C 
ATOM      4  N   HYP A   1      10.812   0.444  24.018  0.00  0.00    -0.302 NA
ATOM      5  H   HYP A   1      11.084   0.255  24.989  0.00  0.00    +0.123 HD
ATOM      6  CD  HYP A   1      10.306   1.829  23.942  0.00  0.00    +0.113 C 
ENDROOT
BRANCH   1   7
ATOM      7  OD  HYP A   1      10.172   1.900  21.523  0.00  0.00    -0.390 OA
ATOM      8  HD  HYP A   1      10.507   1.007  21.321  0.00  0.00    +0.210 HD
ENDBRANCH   1   7
BRANCH   3   9
ATOM      9  C   HYP A   1      10.105  -1.668  22.945  0.00  0.00    +0.322 C 
ATOM     10  OXT HYP A   1      10.308  -2.748  23.478  0.00  0.00    -0.249 OA
BRANCH   9  11
ATOM     11  O   HYP A   1      10.279  -1.446  21.616  0.00  0.00    -0.480 OA
ATOM     12  H   HYP A   1      11.135  -0.962  21.526  0.00  0.00    +0.295 HD
ENDBRANCH   9  11
ENDBRANCH   3   9
TORSDOF 3
ENDMDL
MODEL 2
REMARK VINA RESULT:      -4.0      4.728      6.414
REMARK  Name = 
REMARK  3 active torsions:
REMARK  status: ('A' for Active; 'I' for Inactive)
REMARK    1  A    between atoms: OD_1  and  CG_2
REMARK    2  A    between atoms: CA_6  and  C_8
REMARK    3  A    between atoms: C_8  and  O_9
REMARK                            x       y       z     vdW  Elec       q    Type
REMARK                         _______ _______ _______ _____ _____    ______ ____
ROOT
ATOM      1  CG  HYP A   1       7.128  -4.967  27.021  0.00  0.00    +0.130 C 
ATOM      2  CB  HYP A   1       7.969  -3.774  26.590  0.00  0.00    +0.062 C 
ATOM      3  CA  HYP A   1       8.097  -3.903  25.074  0.00  0.00    +0.166 C 
ATOM      4  N   HYP A   1       7.402  -5.176  24.692  0.00  0.00    -0.302 NA
ATOM      5  H   HYP A   1       6.910  -5.032  23.803  0.00  0.00    +0.123 HD
ATOM      6  CD  HYP A   1       6.393  -5.377  25.751  0.00  0.00    +0.113 C 
ENDROOT
BRANCH   1   7
ATOM      7  OD  HYP A   1       7.977  -6.020  27.469  0.00  0.00    -0.390 OA
ATOM      8  HD  HYP A   1       8.829  -5.925  27.005  0.00  0.00    +0.210 HD
ENDBRANCH   1   7
BRANCH   3   9
ATOM      9  C   HYP A   1       9.561  -3.974  24.630  0.00  0.00    +0.322 C 
ATOM     10  OXT HYP A   1      10.128  -3.132  23.952  0.00  0.00    -0.249 OA
BRANCH   9  11
ATOM     11  O   HYP A   1      10.170  -5.098  25.088  0.00  0.00    -0.480 OA
ATOM     12  H   HYP A   1      11.104  -4.845  25.286  0.00  0.00    +0.295 HD
ENDBRANCH   9  11
ENDBRANCH   3   9
TORSDOF 3
ENDMDL
MODEL 3
REMARK VINA RESULT:      -4.0      1.427      3.494
REMARK  Name = 
REMARK  3 active torsions:
REMARK  status: ('A' for Active; 'I' for Inactive)
REMARK    1  A    between atoms: OD_1  and  CG_2
REMARK    2  A    between atoms: CA_6  and  C_8
REMARK    3  A    between atoms: C_8  and  O_9
REMARK                            x       y       z     vdW  Elec       q    Type
REMARK                         _______ _______ _______ _____ _____    ______ ____
ROOT
ATOM      1  CG  HYP A   1       9.768  -1.439  22.796  0.00  0.00    +0.130 C 
ATOM      2  CB  HYP A   1      10.441  -0.296  23.542  0.00  0.00    +0.062 C 
ATOM      3  CA  HYP A   1       9.467   0.876  23.437  0.00  0.00    +0.166 C 
ATOM      4  N   HYP A   1       8.320   0.407  22.591  0.00  0.00    -0.302 NA
ATOM      5  H   HYP A   1       7.450   0.798  22.967  0.00  0.00    +0.123 HD
ATOM      6  CD  HYP A   1       8.293  -1.056  22.787  0.00  0.00    +0.113 C 
ENDROOT
BRANCH   1   7
ATOM      7  OD  HYP A   1      10.272  -1.510  21.465  0.00  0.00    -0.390 OA
ATOM      8  HD  HYP A   1      11.045  -0.918  21.413  0.00  0.00    +0.210 HD
ENDBRANCH   1   7
BRANCH   3   9
ATOM      9  C   HYP A   1      10.116   2.096  22.777  0.00  0.00    +0.322 C 
ATOM     10  OXT HYP A   1      10.745   2.960  23.368  0.00  0.00    -0.249 OA
BRANCH   9  11
ATOM     11  O   HYP A   1       9.911   2.109  21.434  0.00  0.00    -0.480 OA
ATOM     12  H   HYP A   1       9.898   3.059  21.165  0.00  0.00    +0.295 HD
ENDBRANCH   9  11
ENDBRANCH   3   9
TORSDOF 3
ENDMDL
MODEL 4
REMARK VINA RESULT:      -3.9      2.238      2.690
REMARK  Name = 
REMARK  3 active torsions:
REMARK  status: ('A' for Active; 'I' for Inactive)
REMARK    1  A    between atoms: OD_1  and  CG_2
REMARK    2  A    between atoms: CA_6  and  C_8
REMARK    3  A    between atoms: C_8  and  O_9
REMARK                            x       y       z     vdW  Elec       q    Type
REMARK                         _______ _______ _______ _____ _____    ______ ____
ROOT
ATOM      1  CG  HYP A   1       9.207   0.985  21.504  0.00  0.00    +0.130 C 
ATOM      2  CB  HYP A   1       9.892  -0.077  22.352  0.00  0.00    +0.062 C 
ATOM      3  CA  HYP A   1       9.215   0.006  23.718  0.00  0.00    +0.166 C 
ATOM      4  N   HYP A   1       8.232   1.137  23.641  0.00  0.00    -0.302 NA
ATOM      5  H   HYP A   1       7.390   0.880  24.166  0.00  0.00    +0.123 HD
ATOM      6  CD  HYP A   1       7.878   1.220  22.211  0.00  0.00    +0.113 C 
ENDROOT
BRANCH   1   7
ATOM      7  OD  HYP A   1       9.988   2.177  21.498  0.00  0.00    -0.390 OA
ATOM      8  HD  HYP A   1      10.611   2.114  20.752  0.00  0.00    +0.210 HD
ENDBRANCH   1   7
BRANCH   3   9
ATOM      9  C   HYP A   1      10.224   0.289  24.836  0.00  0.00    +0.322 C 
ATOM     10  OXT HYP A   1      11.354   0.719  24.665  0.00  0.00    -0.249 OA
BRANCH   9  11
ATOM     11  O   HYP A   1       9.710   0.006  26.060  0.00  0.00    -0.480 OA
ATOM     12  H   HYP A   1       8.837   0.467  26.107  0.00  0.00    +0.295 HD
ENDBRANCH   9  11
ENDBRANCH   3   9
TORSDOF 3
ENDMDL
MODEL 5
REMARK VINA RESULT:      -3.9      2.017      3.467
REMARK  Name = 
REMARK  3 active torsions:
REMARK  status: ('A' for Active; 'I' for Inactive)
REMARK    1  A    between atoms: OD_1  and  CG_2
REMARK    2  A    between atoms: CA_6  and  C_8
REMARK    3  A    between atoms: C_8  and  O_9
REMARK                            x       y       z     vdW  Elec       q    Type
REMARK                         _______ _______ _______ _____ _____    ______ ____
ROOT
ATOM      1  CG  HYP A   1       9.930  -0.839  23.915  0.00  0.00    +0.130 C 
ATOM      2  CB  HYP A   1       8.642  -0.095  23.595  0.00  0.00    +0.062 C 
ATOM      3  CA  HYP A   1       8.635   0.056  22.075  0.00  0.00    +0.166 C 
ATOM      4  N   HYP A   1       9.926  -0.528  21.581  0.00  0.00    -0.302 NA
ATOM      5  H   HYP A   1       9.750  -1.022  20.700  0.00  0.00    +0.123 HD
ATOM      6  CD  HYP A   1      10.294  -1.526  22.605  0.00  0.00    +0.113 C 
ENDROOT
BRANCH   1   7
ATOM      7  OD  HYP A   1      10.944   0.090  24.290  0.00  0.00    -0.390 OA
ATOM      8  HD  HYP A   1      11.752  -0.147  23.800  0.00  0.00    +0.210 HD
ENDBRANCH   1   7
BRANCH   3   9
ATOM      9  C   HYP A   1       8.550   1.525  21.651  0.00  0.00    +0.322 C 
ATOM     10  OXT HYP A   1       7.514   2.159  21.529  0.00  0.00    -0.249 OA
BRANCH   9  11
ATOM     11  O   HYP A   1       9.781   2.054  21.423  0.00  0.00    -0.480 OA
ATOM     12  H   HYP A   1       9.787   2.939  21.863  0.00  0.00    +0.295 HD
ENDBRANCH   9  11
ENDBRANCH   3   9
TORSDOF 3
ENDMDL
MODEL 6
REMARK VINA RESULT:      -3.8      6.740      7.727
REMARK  Name = 
REMARK  3 active torsions:
REMARK  status: ('A' for Active; 'I' for Inactive)
REMARK    1  A    between atoms: OD_1  and  CG_2
REMARK    2  A    between atoms: CA_6  and  C_8
REMARK    3  A    between atoms: C_8  and  O_9
REMARK                            x       y       z     vdW  Elec       q    Type
REMARK                         _______ _______ _______ _____ _____    ______ ____
ROOT
ATOM      1  CG  HYP A   1       6.518  -4.256  22.036  0.00  0.00    +0.130 C 
ATOM      2  CB  HYP A   1       5.714  -4.539  23.297  0.00  0.00    +0.062 C 
ATOM      3  CA  HYP A   1       5.387  -6.030  23.235  0.00  0.00    +0.166 C 
ATOM      4  N   HYP A   1       5.939  -6.536  21.934  0.00  0.00    -0.302 NA
ATOM      5  H   HYP A   1       6.323  -7.475  22.080  0.00  0.00    +0.123 HD
ATOM      6  CD  HYP A   1       7.056  -5.621  21.628  0.00  0.00    +0.113 C 
ENDROOT
BRANCH   1   7
ATOM      7  OD  HYP A   1       5.661  -3.734  21.024  0.00  0.00    -0.390 OA
ATOM      8  HD  HYP A   1       5.134  -4.477  20.676  0.00  0.00    +0.210 HD
ENDBRANCH   1   7
BRANCH   3   9
ATOM      9  C   HYP A   1       3.877  -6.283  23.276  0.00  0.00    +0.322 C 
ATOM     10  OXT HYP A   1       3.025  -5.496  22.894  0.00  0.00    -0.249 OA
BRANCH   9  11
ATOM     11  O   HYP A   1       3.588  -7.506  23.792  0.00  0.00    -0.480 OA
ATOM     12  H   HYP A   1       4.227  -8.138  23.382  0.00  0.00    +0.295 HD
ENDBRANCH   9  11
ENDBRANCH   3   9
TORSDOF 3
ENDMDL
MODEL 7
REMARK VINA RESULT:      -3.7      3.630      4.592
REMARK  Name = 
REMARK  3 active torsions:
REMARK  status: ('A' for Active; 'I' for Inactive)
REMARK    1  A    between atoms: OD_1  and  CG_2
REMARK    2  A    between atoms: CA_6  and  C_8
REMARK    3  A    between atoms: C_8  and  O_9
REMARK                            x       y       z     vdW  Elec       q    Type
REMARK                         _______ _______ _______ _____ _____    ______ ____
ROOT
ATOM      1  CG  HYP A   1      10.368   2.604  23.364  0.00  0.00    +0.130 C 
ATOM      2  CB  HYP A   1       8.952   2.844  23.868  0.00  0.00    +0.062 C 
ATOM      3  CA  HYP A   1       8.048   2.542  22.674  0.00  0.00    +0.166 C 
ATOM      4  N   HYP A   1       8.953   2.214  21.523  0.00  0.00    -0.302 NA
ATOM      5  H   HYP A   1       8.531   1.459  20.974  0.00  0.00    +0.123 HD
ATOM      6  CD  HYP A   1      10.181   1.694  22.157  0.00  0.00    +0.113 C 
ENDROOT
BRANCH   1   7
ATOM      7  OD  HYP A   1      10.956   3.842  22.971  0.00  0.00    -0.390 OA
ATOM      8  HD  HYP A   1      10.655   4.521  23.601  0.00  0.00    +0.210 HD
ENDBRANCH   1   7
BRANCH   3   9
ATOM      9  C   HYP A   1       7.175   3.744  22.304  0.00  0.00    +0.322 C 
ATOM     10  OXT HYP A   1       5.955   3.730  22.244  0.00  0.00    -0.249 OA
BRANCH   9  11
ATOM     11  O   HYP A   1       7.923   4.848  22.048  0.00  0.00    -0.480 OA
ATOM     12  H   HYP A   1       8.857   4.537  21.970  0.00  0.00    +0.295 HD
ENDBRANCH   9  11
ENDBRANCH   3   9
TORSDOF 3
ENDMDL
MODEL 8
REMARK VINA RESULT:      -3.7      5.584      6.542
REMARK  Name = 
REMARK  3 active torsions:
REMARK  status: ('A' for Active; 'I' for Inactive)
REMARK    1  A    between atoms: OD_1  and  CG_2
REMARK    2  A    between atoms: CA_6  and  C_8
REMARK    3  A    between atoms: C_8  and  O_9
REMARK                            x       y       z     vdW  Elec       q    Type
REMARK                         _______ _______ _______ _____ _____    ______ ____
ROOT
ATOM      1  CG  HYP A   1       6.138  -4.400  26.608  0.00  0.00    +0.130 C 
ATOM      2  CB  HYP A   1       6.853  -4.680  25.295  0.00  0.00    +0.062 C 
ATOM      3  CA  HYP A   1       8.096  -5.480  25.681  0.00  0.00    +0.166 C 
ATOM      4  N   HYP A   1       8.098  -5.573  27.178  0.00  0.00    -0.302 NA
ATOM      5  H   HYP A   1       8.433  -6.502  27.452  0.00  0.00    +0.123 HD
ATOM      6  CD  HYP A   1       6.674  -5.466  27.556  0.00  0.00    +0.113 C 
ENDROOT
BRANCH   1   7
ATOM      7  OD  HYP A   1       6.479  -3.098  27.076  0.00  0.00    -0.390 OA
ATOM      8  HD  HYP A   1       6.271  -2.467  26.363  0.00  0.00    +0.210 HD
ENDBRANCH   1   7
BRANCH   3   9
ATOM      9  C   HYP A   1       9.382  -4.791  25.216  0.00  0.00    +0.322 C 
ATOM     10  OXT HYP A   1       9.436  -3.686  24.697  0.00  0.00    -0.249 OA
BRANCH   9  11
ATOM     11  O   HYP A   1      10.477  -5.559  25.453  0.00  0.00    -0.480 OA
ATOM     12  H   HYP A   1      10.170  -6.312  26.014  0.00  0.00    +0.295 HD
ENDBRANCH   9  11
ENDBRANCH   3   9
TORSDOF 3
ENDMDL
MODEL 9
REMARK VINA RESULT:      -3.7      3.905      4.906
REMARK  Name = 
REMARK  3 active torsions:
REMARK  status: ('A' for Active; 'I' for Inactive)
REMARK    1  A    between atoms: OD_1  and  CG_2
REMARK    2  A    between atoms: CA_6  and  C_8
REMARK    3  A    between atoms: C_8  and  O_9
REMARK                            x       y       z     vdW  Elec       q    Type
REMARK                         _______ _______ _______ _____ _____    ______ ____
ROOT
ATOM      1  CG  HYP A   1       7.630  -2.906  23.355  0.00  0.00    +0.130 C 
ATOM      2  CB  HYP A   1       7.375  -3.437  24.758  0.00  0.00    +0.062 C 
ATOM      3  CA  HYP A   1       8.760  -3.729  25.331  0.00  0.00    +0.166 C 
ATOM      4  N   HYP A   1       9.747  -3.432  24.240  0.00  0.00    -0.302 NA
ATOM      5  H   HYP A   1      10.580  -3.002  24.654  0.00  0.00    +0.123 HD
ATOM      6  CD  HYP A   1       9.074  -2.422  23.400  0.00  0.00    +0.113 C 
ENDROOT
BRANCH   1   7
ATOM      7  OD  HYP A   1       7.485  -3.959  22.406  0.00  0.00    -0.390 OA
ATOM      8  HD  HYP A   1       8.252  -3.918  21.805  0.00  0.00    +0.210 HD
ENDBRANCH   1   7
BRANCH   3   9
ATOM      9  C   HYP A   1       8.902  -5.194  25.755  0.00  0.00    +0.322 C 
ATOM     10  OXT HYP A   1       8.042  -5.842  26.330  0.00  0.00    -0.249 OA
BRANCH   9  11
ATOM     11  O   HYP A   1      10.115  -5.701  25.412  0.00  0.00    -0.480 OA
ATOM     12  H   HYP A   1      10.006  -6.090  24.510  0.00  0.00    +0.295 HD
ENDBRANCH   9  11
ENDBRANCH   3   9
TORSDOF 3
ENDMDL
