MODEL 1
REMARK VINA RESULT:      81.1      0.000      0.000
REMARK  Name = 
REMARK  22 active torsions:
REMARK  status: ('A' for Active; 'I' for Inactive)
REMARK    1  A    between atoms: O_1  and  C_2
REMARK    2  A    between atoms: C_5  and  C_6
REMARK    3  A    between atoms: C_8  and  C_9
REMARK    4  A    between atoms: C_10  and  C_11
REMARK    5  A    between atoms: C_11  and  C_12
REMARK    6  A    between atoms: C_13  and  C_14
REMARK    7  A    between atoms: C_15  and  C_16
REMARK    8  A    between atoms: C_16  and  C_17
REMARK    9  A    between atoms: C_18  and  C_19
REMARK   10  A    between atoms: C_20  and  C_21
REMARK   11  A    between atoms: C_22  and  C_23
REMARK   12  A    between atoms: C_22  and  C_24
REMARK   13  A    between atoms: C_25  and  C_26
REMARK   14  A    between atoms: C_27  and  C_28
REMARK   15  A    between atoms: C_27  and  C_29
REMARK   16  A    between atoms: C_30  and  C_31
REMARK   17  A    between atoms: C_33  and  C_34
REMARK   18  A    between atoms: C_36  and  O_38
REMARK   19  A    between atoms: C_40  and  C_41
REMARK   20  A    between atoms: C_40  and  C_42
REMARK   21  A    between atoms: C_43  and  C_44
REMARK   22  A    between atoms: C_43  and  C_45
REMARK                            x       y       z     vdW  Elec       q    Type
REMARK                         _______ _______ _______ _____ _____    ______ ____
ROOT
ATOM      1  C   UNL     1      11.606  -0.803  22.723  0.00  0.00    +0.000 C 
ATOM      2  C   UNL     1      10.515  -0.024  22.532  0.00  0.00    +0.000 C 
ENDROOT
BRANCH   1   4
ATOM      3  C   UNL     1      13.537  -2.191  21.822  0.00  0.00    -0.050 C 
ATOM      4  C   UNL     1      12.335  -1.567  21.678  0.00  0.00    +0.003 C 
ATOM      5  C   UNL     1      14.256  -2.134  23.149  0.00  0.00    +0.044 C 
BRANCH   3   7
ATOM      6  C   UNL     1      13.642  -3.718  19.769  0.00  0.00    +0.001 C 
ATOM      7  C   UNL     1      14.202  -2.922  20.690  0.00  0.00    +0.003 C 
BRANCH   6   9
ATOM      8  C   UNL     1      15.227  -5.484  18.815  0.00  0.00    -0.051 C 
ATOM      9  C   UNL     1      14.328  -4.468  18.681  0.00  0.00    +0.003 C 
ATOM     10  C   UNL     1      15.620  -5.955  20.209  0.00  0.00    +0.044 C 
BRANCH   8  12
ATOM     11  C   UNL     1      15.393  -7.044  16.794  0.00  0.00    +0.011 C 
ATOM     12  C   UNL     1      15.886  -6.084  17.604  0.00  0.00    +0.002 C 
BRANCH  11  18
ATOM     13  C   UNL     1      16.441  -8.235  12.609  0.00  0.00    +0.118 C 
ATOM     14  C   UNL     1      16.743  -6.872  13.459  0.00  0.00    +0.041 C 
ATOM     15  C   UNL     1      17.282  -7.233  14.885  0.00  0.00    +0.003 C 
ATOM     16  C   UNL     1      18.652  -7.894  14.427  0.00  0.00    +0.014 C 
ATOM     17  C   UNL     1      17.976  -6.451  16.059  0.00  0.00    +0.014 C 
ATOM     18  C   UNL     1      15.958  -7.897  15.610  0.00  0.00    +0.122 C 
ATOM     19  C   UNL     1      15.335  -9.061  14.685  0.00  0.00    +0.103 C 
ATOM     20  C   UNL     1      14.954 -10.315  15.382  0.00  0.00    +0.045 C 
ATOM     21  O   UNL     1      14.662  -7.890  14.909  0.00  0.00    -0.357 OA
ATOM     22  C   UNL     1      15.315  -9.089  13.168  0.00  0.00    +0.069 C 
BRANCH  13  23
ATOM     23  O   UNL     1      17.514  -9.190  12.485  0.00  0.00    -0.392 OA
ATOM     24  H   UNL     1      18.274  -8.775  12.031  0.00  0.00    +0.210 HD
ENDBRANCH  13  23
ENDBRANCH  11  18
ENDBRANCH   8  12
ENDBRANCH   6   9
ENDBRANCH   3   7
ENDBRANCH   1   4
BRANCH   2  25
ATOM     25  C   UNL     1       9.798   0.732  23.593  0.00  0.00    +0.003 C 
ATOM     26  C   UNL     1       9.988   2.022  23.994  0.00  0.00    -0.050 C 
ATOM     27  C   UNL     1      11.030   2.921  23.366  0.00  0.00    +0.044 C 
BRANCH  26  28
ATOM     28  C   UNL     1       9.164   2.657  25.085  0.00  0.00    +0.003 C 
ATOM     29  C   UNL     1       7.857   3.017  25.011  0.00  0.00    +0.001 C 
BRANCH  29  30
ATOM     30  C   UNL     1       7.008   3.601  26.078  0.00  0.00    +0.003 C 
ATOM     31  C   UNL     1       6.657   4.911  26.245  0.00  0.00    -0.051 C 
ATOM     32  C   UNL     1       7.146   6.018  25.334  0.00  0.00    +0.044 C 
BRANCH  31  33
ATOM     33  C   UNL     1       5.676   5.344  27.297  0.00  0.00    +0.002 C 
ATOM     34  C   UNL     1       4.382   5.721  27.108  0.00  0.00    +0.011 C 
BRANCH  34  35
ATOM     35  C   UNL     1       3.259   5.952  28.105  0.00  0.00    +0.122 C 
ATOM     36  C   UNL     1       3.537   5.901  29.647  0.00  0.00    +0.003 C 
ATOM     37  C   UNL     1       5.027   6.052  29.997  0.00  0.00    +0.014 C 
ATOM     38  C   UNL     1       2.839   7.024  30.479  0.00  0.00    +0.014 C 
ATOM     39  C   UNL     1       2.990   4.527  30.094  0.00  0.00    +0.041 C 
ATOM     40  C   UNL     1       1.452   4.469  30.023  0.00  0.00    +0.118 C 
ATOM     41  C   UNL     1       0.821   5.181  28.810  0.00  0.00    +0.069 C 
ATOM     42  C   UNL     1       1.812   5.529  27.713  0.00  0.00    +0.103 C 
ATOM     43  C   UNL     1       1.378   5.152  26.328  0.00  0.00    +0.045 C 
ATOM     44  O   UNL     1       2.234   6.901  27.775  0.00  0.00    -0.357 OA
BRANCH  40  45
ATOM     45  O   UNL     1       1.045   3.101  30.049  0.00  0.00    -0.392 OA
ATOM     46  H   UNL     1       1.666   2.631  30.633  0.00  0.00    +0.210 HD
ENDBRANCH  40  45
ENDBRANCH  34  35
ENDBRANCH  31  33
ENDBRANCH  29  30
ENDBRANCH  26  28
ENDBRANCH   2  25
TORSDOF 12
ENDMDL
