MODEL 1
REMARK VINA RESULT:      -4.7      0.000      0.000
REMARK  Name = 
REMARK  10 active torsions:
REMARK  status: ('A' for Active; 'I' for Inactive)
REMARK    1  A    between atoms: C_1  and  C_2
REMARK    2  A    between atoms: C_2  and  O_3
REMARK    3  A    between atoms: O_3  and  C_4
REMARK    4  A    between atoms: C_4  and  C_6
REMARK    5  A    between atoms: C_6  and  S_7
REMARK    6  A    between atoms: S_7  and  C_8
REMARK    7  A    between atoms: C_8  and  C_9
REMARK    8  A    between atoms: C_9  and  C_10
REMARK    9  A    between atoms: C_12  and  C_15
REMARK   10  A    between atoms: C_15  and  O_16
REMARK                            x       y       z     vdW  Elec       q    Type
REMARK                         _______ _______ _______ _____ _____    ______ ____
ROOT
ATOM      1  C   UNK     1       6.023  -3.223  23.507  0.00  0.00    +0.113 C 
ATOM      2  S   UNK     1       6.711  -4.347  24.748  0.00  0.00    -0.140 S 
ATOM      3  C   UNK     1       7.811  -5.193  23.591  0.00  0.00    +0.100 C 
ATOM      4  C   UNK     1       7.456  -4.650  22.215  0.00  0.00    +0.174 C 
ATOM      5  N   UNK     1       6.921  -3.256  22.329  0.00  0.00    -0.292 NA
ATOM      6  H   UNK     1       7.717  -2.654  22.559  0.00  0.00    +0.124 HD
ENDROOT
BRANCH   4   7
ATOM      7  C   UNK     1       6.464  -5.536  21.453  0.00  0.00    +0.323 C 
ATOM      8  O   UNK     1       5.842  -5.213  20.453  0.00  0.00    -0.249 OA
BRANCH   7   9
ATOM      9  O   UNK     1       6.285  -6.731  22.083  0.00  0.00    -0.480 OA
ATOM     10  H   UNK     1       6.600  -7.435  21.467  0.00  0.00    +0.295 HD
ENDBRANCH   7   9
ENDBRANCH   4   7
BRANCH   1  11
ATOM     11  C   UNK     1       5.896  -1.783  24.027  0.00  0.00    +0.040 C 
BRANCH  11  12
ATOM     12  C   UNK     1       6.632  -1.524  25.346  0.00  0.00    +0.072 C 
BRANCH  12  13
ATOM     13  S   UNK     1       8.026  -0.407  25.003  0.00  0.00    -0.149 S 
BRANCH  13  14
ATOM     14  C   UNK     1       9.354  -1.636  24.746  0.00  0.00    +0.189 C 
BRANCH  14  15
ATOM     15  C   UNK     1       9.690  -1.652  23.272  0.00  0.00    +0.317 C 
ATOM     16  O   UNK     1      10.610  -2.295  22.777  0.00  0.00    -0.250 OA
BRANCH  15  17
ATOM     17  O   UNK     1       8.902  -0.760  22.606  0.00  0.00    -0.464 OA
BRANCH  17  19
ATOM     18  C   UNK     1       9.777   1.337  21.868  0.00  0.00    +0.048 C 
ATOM     19  C   UNK     1       9.519  -0.109  21.485  0.00  0.00    +0.229 C 
ENDBRANCH  17  19
ENDBRANCH  15  17
ENDBRANCH  14  15
ENDBRANCH  13  14
ENDBRANCH  12  13
ENDBRANCH  11  12
ENDBRANCH   1  11
TORSDOF 9
ENDMDL
MODEL 2
REMARK VINA RESULT:      -4.6      1.850      4.948
REMARK  Name = 
REMARK  10 active torsions:
REMARK  status: ('A' for Active; 'I' for Inactive)
REMARK    1  A    between atoms: C_1  and  C_2
REMARK    2  A    between atoms: C_2  and  O_3
REMARK    3  A    between atoms: O_3  and  C_4
REMARK    4  A    between atoms: C_4  and  C_6
REMARK    5  A    between atoms: C_6  and  S_7
REMARK    6  A    between atoms: S_7  and  C_8
REMARK    7  A    between atoms: C_8  and  C_9
REMARK    8  A    between atoms: C_9  and  C_10
REMARK    9  A    between atoms: C_12  and  C_15
REMARK   10  A    between atoms: C_15  and  O_16
REMARK                            x       y       z     vdW  Elec       q    Type
REMARK                         _______ _______ _______ _____ _____    ______ ____
ROOT
ATOM      1  C   UNK     1       8.822  -1.052  24.933  0.00  0.00    +0.113 C 
ATOM      2  S   UNK     1       7.827   0.458  24.840  0.00  0.00    -0.140 S 
ATOM      3  C   UNK     1       7.425   0.265  23.090  0.00  0.00    +0.100 C 
ATOM      4  C   UNK     1       8.249  -0.918  22.607  0.00  0.00    +0.174 C 
ATOM      5  N   UNK     1       8.508  -1.866  23.737  0.00  0.00    -0.292 NA
ATOM      6  H   UNK     1       7.620  -2.336  23.935  0.00  0.00    +0.124 HD
ENDROOT
BRANCH   4   7
ATOM      7  C   UNK     1       9.571  -0.506  21.949  0.00  0.00    +0.323 C 
ATOM      8  O   UNK     1       9.924   0.639  21.712  0.00  0.00    -0.249 OA
BRANCH   7   9
ATOM      9  O   UNK     1      10.295  -1.597  21.572  0.00  0.00    -0.480 OA
ATOM     10  H   UNK     1      11.237  -1.417  21.807  0.00  0.00    +0.295 HD
ENDBRANCH   7   9
ENDBRANCH   4   7
BRANCH   1  11
ATOM     11  C   UNK     1       8.540  -1.863  26.207  0.00  0.00    +0.040 C 
BRANCH  11  12
ATOM     12  C   UNK     1       7.203  -2.614  26.189  0.00  0.00    +0.072 C 
BRANCH  12  13
ATOM     13  S   UNK     1       7.512  -4.325  26.724  0.00  0.00    -0.149 S 
BRANCH  13  14
ATOM     14  C   UNK     1       7.079  -5.214  25.187  0.00  0.00    +0.189 C 
BRANCH  14  15
ATOM     15  C   UNK     1       8.197  -4.990  24.193  0.00  0.00    +0.317 C 
ATOM     16  O   UNK     1       9.390  -4.995  24.479  0.00  0.00    -0.250 OA
BRANCH  15  17
ATOM     17  O   UNK     1       7.678  -4.667  22.974  0.00  0.00    -0.464 OA
BRANCH  17  19
ATOM     18  C   UNK     1       6.295  -5.965  21.522  0.00  0.00    +0.048 C 
ATOM     19  C   UNK     1       6.321  -5.079  22.754  0.00  0.00    +0.229 C 
ENDBRANCH  17  19
ENDBRANCH  15  17
ENDBRANCH  14  15
ENDBRANCH  13  14
ENDBRANCH  12  13
ENDBRANCH  11  12
ENDBRANCH   1  11
TORSDOF 9
ENDMDL
MODEL 3
REMARK VINA RESULT:      -4.5      2.742      5.917
REMARK  Name = 
REMARK  10 active torsions:
REMARK  status: ('A' for Active; 'I' for Inactive)
REMARK    1  A    between atoms: C_1  and  C_2
REMARK    2  A    between atoms: C_2  and  O_3
REMARK    3  A    between atoms: O_3  and  C_4
REMARK    4  A    between atoms: C_4  and  C_6
REMARK    5  A    between atoms: C_6  and  S_7
REMARK    6  A    between atoms: S_7  and  C_8
REMARK    7  A    between atoms: C_8  and  C_9
REMARK    8  A    between atoms: C_9  and  C_10
REMARK    9  A    between atoms: C_12  and  C_15
REMARK   10  A    between atoms: C_15  and  O_16
REMARK                            x       y       z     vdW  Elec       q    Type
REMARK                         _______ _______ _______ _____ _____    ______ ____
ROOT
ATOM      1  C   UNK     1       8.592   0.266  24.892  0.00  0.00    +0.113 C 
ATOM      2  S   UNK     1       8.652  -0.855  23.473  0.00  0.00    -0.140 S 
ATOM      3  C   UNK     1      10.261  -0.275  22.891  0.00  0.00    +0.100 C 
ATOM      4  C   UNK     1      10.608   0.919  23.766  0.00  0.00    +0.174 C 
ATOM      5  N   UNK     1       9.963   0.783  25.111  0.00  0.00    -0.292 NA
ATOM      6  H   UNK     1      10.471   0.044  25.606  0.00  0.00    +0.124 HD
ENDROOT
BRANCH   4   7
ATOM      7  C   UNK     1      10.229   2.263  23.133  0.00  0.00    +0.323 C 
ATOM      8  O   UNK     1       9.890   3.267  23.740  0.00  0.00    -0.249 OA
BRANCH   7   9
ATOM      9  O   UNK     1      10.233   2.185  21.773  0.00  0.00    -0.480 OA
ATOM     10  H   UNK     1      11.163   2.332  21.476  0.00  0.00    +0.295 HD
ENDBRANCH   7   9
ENDBRANCH   4   7
BRANCH   1  11
ATOM     11  C   UNK     1       8.085  -0.426  26.166  0.00  0.00    +0.040 C 
BRANCH  11  12
ATOM     12  C   UNK     1       8.644  -1.838  26.378  0.00  0.00    +0.072 C 
BRANCH  12  13
ATOM     13  S   UNK     1       7.241  -2.992  26.462  0.00  0.00    -0.149 S 
BRANCH  13  14
ATOM     14  C   UNK     1       8.147  -4.577  26.548  0.00  0.00    +0.189 C 
BRANCH  14  15
ATOM     15  C   UNK     1       8.493  -4.989  25.134  0.00  0.00    +0.317 C 
ATOM     16  O   UNK     1       9.635  -5.146  24.718  0.00  0.00    -0.250 OA
BRANCH  15  17
ATOM     17  O   UNK     1       7.361  -5.038  24.374  0.00  0.00    -0.464 OA
BRANCH  17  19
ATOM     18  C   UNK     1       7.191  -5.865  22.140  0.00  0.00    +0.048 C 
ATOM     19  C   UNK     1       7.525  -4.659  22.999  0.00  0.00    +0.229 C 
ENDBRANCH  17  19
ENDBRANCH  15  17
ENDBRANCH  14  15
ENDBRANCH  13  14
ENDBRANCH  12  13
ENDBRANCH  11  12
ENDBRANCH   1  11
TORSDOF 9
ENDMDL
MODEL 4
REMARK VINA RESULT:      -4.5      2.196      2.607
REMARK  Name = 
REMARK  10 active torsions:
REMARK  status: ('A' for Active; 'I' for Inactive)
REMARK    1  A    between atoms: C_1  and  C_2
REMARK    2  A    between atoms: C_2  and  O_3
REMARK    3  A    between atoms: O_3  and  C_4
REMARK    4  A    between atoms: C_4  and  C_6
REMARK    5  A    between atoms: C_6  and  S_7
REMARK    6  A    between atoms: S_7  and  C_8
REMARK    7  A    between atoms: C_8  and  C_9
REMARK    8  A    between atoms: C_9  and  C_10
REMARK    9  A    between atoms: C_12  and  C_15
REMARK   10  A    between atoms: C_15  and  O_16
REMARK                            x       y       z     vdW  Elec       q    Type
REMARK                         _______ _______ _______ _____ _____    ______ ____
ROOT
ATOM      1  C   UNK     1       6.517  -5.015  25.238  0.00  0.00    +0.113 C 
ATOM      2  S   UNK     1       5.285  -6.180  25.873  0.00  0.00    -0.140 S 
ATOM      3  C   UNK     1       4.833  -6.823  24.247  0.00  0.00    +0.100 C 
ATOM      4  C   UNK     1       5.571  -5.953  23.241  0.00  0.00    +0.174 C 
ATOM      5  N   UNK     1       6.831  -5.414  23.846  0.00  0.00    -0.292 NA
ATOM      6  H   UNK     1       7.483  -6.201  23.914  0.00  0.00    +0.124 HD
ENDROOT
BRANCH   4   7
ATOM      7  C   UNK     1       4.715  -4.805  22.693  0.00  0.00    +0.323 C 
ATOM      8  O   UNK     1       3.571  -4.543  23.031  0.00  0.00    -0.249 OA
BRANCH   7   9
ATOM      9  O   UNK     1       5.364  -4.141  21.696  0.00  0.00    -0.480 OA
ATOM     10  H   UNK     1       6.297  -4.464  21.689  0.00  0.00    +0.295 HD
ENDBRANCH   7   9
ENDBRANCH   4   7
BRANCH   1  11
ATOM     11  C   UNK     1       7.801  -5.002  26.080  0.00  0.00    +0.040 C 
BRANCH  11  12
ATOM     12  C   UNK     1       9.019  -4.412  25.359  0.00  0.00    +0.072 C 
BRANCH  12  13
ATOM     13  S   UNK     1       8.733  -2.629  25.139  0.00  0.00    -0.149 S 
BRANCH  13  14
ATOM     14  C   UNK     1       9.712  -2.342  23.622  0.00  0.00    +0.189 C 
BRANCH  14  15
ATOM     15  C   UNK     1       8.744  -2.178  22.472  0.00  0.00    +0.317 C 
ATOM     16  O   UNK     1       7.835  -2.958  22.214  0.00  0.00    -0.250 OA
BRANCH  15  17
ATOM     17  O   UNK     1       9.110  -1.109  21.706  0.00  0.00    -0.464 OA
BRANCH  17  19
ATOM     18  C   UNK     1       9.804   1.168  21.898  0.00  0.00    +0.048 C 
ATOM     19  C   UNK     1       8.699   0.173  22.202  0.00  0.00    +0.229 C 
ENDBRANCH  17  19
ENDBRANCH  15  17
ENDBRANCH  14  15
ENDBRANCH  13  14
ENDBRANCH  12  13
ENDBRANCH  11  12
ENDBRANCH   1  11
TORSDOF 9
ENDMDL
MODEL 5
REMARK VINA RESULT:      -4.5      3.087      6.587
REMARK  Name = 
REMARK  10 active torsions:
REMARK  status: ('A' for Active; 'I' for Inactive)
REMARK    1  A    between atoms: C_1  and  C_2
REMARK    2  A    between atoms: C_2  and  O_3
REMARK    3  A    between atoms: O_3  and  C_4
REMARK    4  A    between atoms: C_4  and  C_6
REMARK    5  A    between atoms: C_6  and  S_7
REMARK    6  A    between atoms: S_7  and  C_8
REMARK    7  A    between atoms: C_8  and  C_9
REMARK    8  A    between atoms: C_9  and  C_10
REMARK    9  A    between atoms: C_12  and  C_15
REMARK   10  A    between atoms: C_15  and  O_16
REMARK                            x       y       z     vdW  Elec       q    Type
REMARK                         _______ _______ _______ _____ _____    ______ ____
ROOT
ATOM      1  C   UNK     1       8.973   0.931  22.395  0.00  0.00    +0.113 C 
ATOM      2  S   UNK     1       7.248   0.635  22.858  0.00  0.00    -0.140 S 
ATOM      3  C   UNK     1       6.707   2.323  22.510  0.00  0.00    +0.100 C 
ATOM      4  C   UNK     1       7.974   3.104  22.197  0.00  0.00    +0.174 C 
ATOM      5  N   UNK     1       9.016   2.194  21.623  0.00  0.00    -0.292 NA
ATOM      6  H   UNK     1       8.711   1.961  20.674  0.00  0.00    +0.124 HD
ENDROOT
BRANCH   4   7
ATOM      7  C   UNK     1       8.537   3.854  23.409  0.00  0.00    +0.323 C 
ATOM      8  O   UNK     1       8.438   3.502  24.575  0.00  0.00    -0.249 OA
BRANCH   7   9
ATOM      9  O   UNK     1       9.104   5.036  23.038  0.00  0.00    -0.480 OA
ATOM     10  H   UNK     1       8.631   5.752  23.526  0.00  0.00    +0.295 HD
ENDBRANCH   7   9
ENDBRANCH   4   7
BRANCH   1  11
ATOM     11  C   UNK     1       9.560  -0.214  21.557  0.00  0.00    +0.040 C 
BRANCH  11  12
ATOM     12  C   UNK     1       9.045  -1.605  21.946  0.00  0.00    +0.072 C 
BRANCH  12  13
ATOM     13  S   UNK     1       9.899  -2.115  23.469  0.00  0.00    -0.149 S 
BRANCH  13  14
ATOM     14  C   UNK     1       8.474  -2.730  24.434  0.00  0.00    +0.189 C 
BRANCH  14  15
ATOM     15  C   UNK     1       8.214  -4.160  24.013  0.00  0.00    +0.317 C 
ATOM     16  O   UNK     1       8.977  -5.095  24.226  0.00  0.00    -0.250 OA
BRANCH  15  17
ATOM     17  O   UNK     1       7.074  -4.224  23.266  0.00  0.00    -0.464 OA
BRANCH  17  19
ATOM     18  C   UNK     1       6.356  -6.173  22.088  0.00  0.00    +0.048 C 
ATOM     19  C   UNK     1       7.197  -4.912  22.013  0.00  0.00    +0.229 C 
ENDBRANCH  17  19
ENDBRANCH  15  17
ENDBRANCH  14  15
ENDBRANCH  13  14
ENDBRANCH  12  13
ENDBRANCH  11  12
ENDBRANCH   1  11
TORSDOF 9
ENDMDL
MODEL 6
REMARK VINA RESULT:      -4.4      2.992      3.818
REMARK  Name = 
REMARK  10 active torsions:
REMARK  status: ('A' for Active; 'I' for Inactive)
REMARK    1  A    between atoms: C_1  and  C_2
REMARK    2  A    between atoms: C_2  and  O_3
REMARK    3  A    between atoms: O_3  and  C_4
REMARK    4  A    between atoms: C_4  and  C_6
REMARK    5  A    between atoms: C_6  and  S_7
REMARK    6  A    between atoms: S_7  and  C_8
REMARK    7  A    between atoms: C_8  and  C_9
REMARK    8  A    between atoms: C_9  and  C_10
REMARK    9  A    between atoms: C_12  and  C_15
REMARK   10  A    between atoms: C_15  and  O_16
REMARK                            x       y       z     vdW  Elec       q    Type
REMARK                         _______ _______ _______ _____ _____    ______ ____
ROOT
ATOM      1  C   UNK     1       5.715  -4.153  24.955  0.00  0.00    +0.113 C 
ATOM      2  S   UNK     1       4.389  -4.233  26.185  0.00  0.00    -0.140 S 
ATOM      3  C   UNK     1       5.468  -3.890  27.592  0.00  0.00    +0.100 C 
ATOM      4  C   UNK     1       6.883  -3.894  27.035  0.00  0.00    +0.174 C 
ATOM      5  N   UNK     1       6.875  -3.489  25.593  0.00  0.00    -0.292 NA
ATOM      6  H   UNK     1       6.678  -2.485  25.572  0.00  0.00    +0.124 HD
ENDROOT
BRANCH   4   7
ATOM      7  C   UNK     1       7.595  -5.242  27.201  0.00  0.00    +0.323 C 
ATOM      8  O   UNK     1       7.259  -6.137  27.962  0.00  0.00    -0.249 OA
BRANCH   7   9
ATOM      9  O   UNK     1       8.726  -5.298  26.444  0.00  0.00    -0.480 OA
ATOM     10  H   UNK     1       8.579  -5.989  25.753  0.00  0.00    +0.295 HD
ENDBRANCH   7   9
ENDBRANCH   4   7
BRANCH   1  11
ATOM     11  C   UNK     1       5.300  -3.382  23.694  0.00  0.00    +0.040 C 
BRANCH  11  12
ATOM     12  C   UNK     1       6.284  -2.282  23.278  0.00  0.00    +0.072 C 
BRANCH  12  13
ATOM     13  S   UNK     1       7.534  -3.028  22.187  0.00  0.00    -0.149 S 
BRANCH  13  14
ATOM     14  C   UNK     1       8.990  -2.026  22.651  0.00  0.00    +0.189 C 
BRANCH  14  15
ATOM     15  C   UNK     1       9.479  -2.517  23.995  0.00  0.00    +0.317 C 
ATOM     16  O   UNK     1       9.806  -3.675  24.233  0.00  0.00    -0.250 OA
BRANCH  15  17
ATOM     17  O   UNK     1       9.386  -1.517  24.918  0.00  0.00    -0.464 OA
BRANCH  17  19
ATOM     18  C   UNK     1      10.715   0.464  24.798  0.00  0.00    +0.048 C 
ATOM     19  C   UNK     1       9.406  -0.184  24.386  0.00  0.00    +0.229 C 
ENDBRANCH  17  19
ENDBRANCH  15  17
ENDBRANCH  14  15
ENDBRANCH  13  14
ENDBRANCH  12  13
ENDBRANCH  11  12
ENDBRANCH   1  11
TORSDOF 9
ENDMDL
MODEL 7
REMARK VINA RESULT:      -4.4      2.386      3.397
REMARK  Name = 
REMARK  10 active torsions:
REMARK  status: ('A' for Active; 'I' for Inactive)
REMARK    1  A    between atoms: C_1  and  C_2
REMARK    2  A    between atoms: C_2  and  O_3
REMARK    3  A    between atoms: O_3  and  C_4
REMARK    4  A    between atoms: C_4  and  C_6
REMARK    5  A    between atoms: C_6  and  S_7
REMARK    6  A    between atoms: S_7  and  C_8
REMARK    7  A    between atoms: C_8  and  C_9
REMARK    8  A    between atoms: C_9  and  C_10
REMARK    9  A    between atoms: C_12  and  C_15
REMARK   10  A    between atoms: C_15  and  O_16
REMARK                            x       y       z     vdW  Elec       q    Type
REMARK                         _______ _______ _______ _____ _____    ______ ____
ROOT
ATOM      1  C   UNK     1       7.612  -2.597  26.069  0.00  0.00    +0.113 C 
ATOM      2  S   UNK     1       6.261  -3.648  26.657  0.00  0.00    -0.140 S 
ATOM      3  C   UNK     1       7.328  -5.044  27.076  0.00  0.00    +0.100 C 
ATOM      4  C   UNK     1       8.711  -4.672  26.566  0.00  0.00    +0.174 C 
ATOM      5  N   UNK     1       8.880  -3.183  26.562  0.00  0.00    -0.292 NA
ATOM      6  H   UNK     1       8.967  -2.896  27.541  0.00  0.00    +0.124 HD
ENDROOT
BRANCH   4   7
ATOM      7  C   UNK     1       9.017  -5.241  25.176  0.00  0.00    +0.323 C 
ATOM      8  O   UNK     1       8.190  -5.639  24.370  0.00  0.00    -0.249 OA
BRANCH   7   9
ATOM      9  O   UNK     1      10.360  -5.335  24.967  0.00  0.00    -0.480 OA
ATOM     10  H   UNK     1      10.572  -6.293  24.862  0.00  0.00    +0.295 HD
ENDBRANCH   7   9
ENDBRANCH   4   7
BRANCH   1  11
ATOM     11  C   UNK     1       7.482  -1.147  26.558  0.00  0.00    +0.040 C 
BRANCH  11  12
ATOM     12  C   UNK     1       7.680  -0.094  25.460  0.00  0.00    +0.072 C 
BRANCH  12  13
ATOM     13  S   UNK     1       9.466   0.067  25.151  0.00  0.00    -0.149 S 
BRANCH  13  14
ATOM     14  C   UNK     1       9.494  -0.206  23.344  0.00  0.00    +0.189 C 
BRANCH  14  15
ATOM     15  C   UNK     1       9.476  -1.699  23.103  0.00  0.00    +0.317 C 
ATOM     16  O   UNK     1      10.186  -2.506  23.693  0.00  0.00    -0.250 OA
BRANCH  15  17
ATOM     17  O   UNK     1       8.648  -1.991  22.058  0.00  0.00    -0.464 OA
BRANCH  17  19
ATOM     18  C   UNK     1       6.350  -2.226  22.666  0.00  0.00    +0.048 C 
ATOM     19  C   UNK     1       7.632  -2.968  22.332  0.00  0.00    +0.229 C 
ENDBRANCH  17  19
ENDBRANCH  15  17
ENDBRANCH  14  15
ENDBRANCH  13  14
ENDBRANCH  12  13
ENDBRANCH  11  12
ENDBRANCH   1  11
TORSDOF 9
ENDMDL
MODEL 8
REMARK VINA RESULT:      -4.4      3.442      6.098
REMARK  Name = 
REMARK  10 active torsions:
REMARK  status: ('A' for Active; 'I' for Inactive)
REMARK    1  A    between atoms: C_1  and  C_2
REMARK    2  A    between atoms: C_2  and  O_3
REMARK    3  A    between atoms: O_3  and  C_4
REMARK    4  A    between atoms: C_4  and  C_6
REMARK    5  A    between atoms: C_6  and  S_7
REMARK    6  A    between atoms: S_7  and  C_8
REMARK    7  A    between atoms: C_8  and  C_9
REMARK    8  A    between atoms: C_9  and  C_10
REMARK    9  A    between atoms: C_12  and  C_15
REMARK   10  A    between atoms: C_15  and  O_16
REMARK                            x       y       z     vdW  Elec       q    Type
REMARK                         _______ _______ _______ _____ _____    ______ ____
ROOT
ATOM      1  C   UNK     1       7.042  -4.837  27.133  0.00  0.00    +0.113 C 
ATOM      2  S   UNK     1       6.526  -3.242  26.448  0.00  0.00    -0.140 S 
ATOM      3  C   UNK     1       7.074  -3.615  24.768  0.00  0.00    +0.100 C 
ATOM      4  C   UNK     1       7.807  -4.944  24.860  0.00  0.00    +0.174 C 
ATOM      5  N   UNK     1       7.265  -5.758  25.995  0.00  0.00    -0.292 NA
ATOM      6  H   UNK     1       6.338  -6.084  25.705  0.00  0.00    +0.124 HD
ENDROOT
BRANCH   4   7
ATOM      7  C   UNK     1       9.325  -4.789  25.000  0.00  0.00    +0.323 C 
ATOM      8  O   UNK     1       9.994  -3.874  24.543  0.00  0.00    -0.249 OA
BRANCH   7   9
ATOM      9  O   UNK     1       9.873  -5.861  25.637  0.00  0.00    -0.480 OA
ATOM     10  H   UNK     1       9.652  -5.774  26.596  0.00  0.00    +0.295 HD
ENDBRANCH   7   9
ENDBRANCH   4   7
BRANCH   1  11
ATOM     11  C   UNK     1       5.998  -5.430  28.090  0.00  0.00    +0.040 C 
BRANCH  11  12
ATOM     12  C   UNK     1       5.238  -6.634  27.521  0.00  0.00    +0.072 C 
BRANCH  12  13
ATOM     13  S   UNK     1       3.519  -6.122  27.216  0.00  0.00    -0.149 S 
BRANCH  13  14
ATOM     14  C   UNK     1       3.638  -5.672  25.448  0.00  0.00    +0.189 C 
BRANCH  14  15
ATOM     15  C   UNK     1       3.978  -6.926  24.674  0.00  0.00    +0.317 C 
ATOM     16  O   UNK     1       3.420  -8.007  24.827  0.00  0.00    -0.250 OA
BRANCH  15  17
ATOM     17  O   UNK     1       5.065  -6.703  23.881  0.00  0.00    -0.464 OA
BRANCH  17  19
ATOM     18  C   UNK     1       6.026  -5.978  21.817  0.00  0.00    +0.048 C 
ATOM     19  C   UNK     1       4.839  -5.843  22.753  0.00  0.00    +0.229 C 
ENDBRANCH  17  19
ENDBRANCH  15  17
ENDBRANCH  14  15
ENDBRANCH  13  14
ENDBRANCH  12  13
ENDBRANCH  11  12
ENDBRANCH   1  11
TORSDOF 9
ENDMDL
MODEL 9
REMARK VINA RESULT:      -4.3      2.309      6.008
REMARK  Name = 
REMARK  10 active torsions:
REMARK  status: ('A' for Active; 'I' for Inactive)
REMARK    1  A    between atoms: C_1  and  C_2
REMARK    2  A    between atoms: C_2  and  O_3
REMARK    3  A    between atoms: O_3  and  C_4
REMARK    4  A    between atoms: C_4  and  C_6
REMARK    5  A    between atoms: C_6  and  S_7
REMARK    6  A    between atoms: S_7  and  C_8
REMARK    7  A    between atoms: C_8  and  C_9
REMARK    8  A    between atoms: C_9  and  C_10
REMARK    9  A    between atoms: C_12  and  C_15
REMARK   10  A    between atoms: C_15  and  O_16
REMARK                            x       y       z     vdW  Elec       q    Type
REMARK                         _______ _______ _______ _____ _____    ______ ____
ROOT
ATOM      1  C   UNK     1       9.829  -1.188  23.589  0.00  0.00    +0.113 C 
ATOM      2  S   UNK     1       9.905  -0.110  25.041  0.00  0.00    -0.140 S 
ATOM      3  C   UNK     1       8.696   1.075  24.413  0.00  0.00    +0.100 C 
ATOM      4  C   UNK     1       8.405   0.647  22.983  0.00  0.00    +0.174 C 
ATOM      5  N   UNK     1       8.607  -0.830  22.832  0.00  0.00    -0.292 NA
ATOM      6  H   UNK     1       7.827  -1.283  23.317  0.00  0.00    +0.124 HD
ENDROOT
BRANCH   4   7
ATOM      7  C   UNK     1       9.240   1.403  21.943  0.00  0.00    +0.323 C 
ATOM      8  O   UNK     1      10.241   2.063  22.176  0.00  0.00    -0.249 OA
BRANCH   7   9
ATOM      9  O   UNK     1       8.677   1.321  20.706  0.00  0.00    -0.480 OA
ATOM     10  H   UNK     1       8.701   0.372  20.437  0.00  0.00    +0.295 HD
ENDBRANCH   7   9
ENDBRANCH   4   7
BRANCH   1  11
ATOM     11  C   UNK     1       9.794  -2.677  23.964  0.00  0.00    +0.040 C 
BRANCH  11  12
ATOM     12  C   UNK     1       8.636  -3.063  24.892  0.00  0.00    +0.072 C 
BRANCH  12  13
ATOM     13  S   UNK     1       7.839  -4.549  24.209  0.00  0.00    -0.149 S 
BRANCH  13  14
ATOM     14  C   UNK     1       6.090  -4.024  24.281  0.00  0.00    +0.189 C 
BRANCH  14  15
ATOM     15  C   UNK     1       5.695  -3.543  22.902  0.00  0.00    +0.317 C 
ATOM     16  O   UNK     1       6.244  -2.625  22.305  0.00  0.00    -0.250 OA
BRANCH  15  17
ATOM     17  O   UNK     1       4.573  -4.199  22.485  0.00  0.00    -0.464 OA
BRANCH  17  19
ATOM     18  C   UNK     1       2.921  -5.771  23.194  0.00  0.00    +0.048 C 
ATOM     19  C   UNK     1       4.407  -5.527  23.004  0.00  0.00    +0.229 C 
ENDBRANCH  17  19
ENDBRANCH  15  17
ENDBRANCH  14  15
ENDBRANCH  13  14
ENDBRANCH  12  13
ENDBRANCH  11  12
ENDBRANCH   1  11
TORSDOF 9
ENDMDL
