MODEL 1
REMARK VINA RESULT:      -7.9      0.000      0.000
REMARK  Name = 
REMARK  9 active torsions:
REMARK  status: ('A' for Active; 'I' for Inactive)
REMARK    1  A    between atoms: O_1  and  C_2
REMARK    2  A    between atoms: C_2  and  C_4
REMARK    3  A    between atoms: C_4  and  C_6
REMARK    4  A    between atoms: C_4  and  N_16
REMARK    5  A    between atoms: C_6  and  C_7
REMARK    6  A    between atoms: N_16  and  S_17
REMARK    7  A    between atoms: S_17  and  C_20
REMARK    8  A    between atoms: C_23  and  N_26
REMARK    9  A    between atoms: C_29  and  C_32
REMARK                            x       y       z     vdW  Elec       q    Type
REMARK                         _______ _______ _______ _____ _____    ______ ____
ROOT
ATOM      1  S   UNL     1       4.752  -3.822  26.750  0.00  0.00    +0.059 S 
ATOM      2  O   UNL     1       5.589  -4.619  27.614  0.00  0.00    -0.153 OA
ATOM      3  O   UNL     1       3.497  -3.272  27.211  0.00  0.00    -0.153 OA
ENDROOT
BRANCH   1   4
ATOM      4  C   UNL     1       5.734  -2.477  26.173  0.00  0.00    +0.105 A 
ATOM      5  C   UNL     1       6.926  -2.171  26.826  0.00  0.00    +0.030 A 
ATOM      6  C   UNL     1       7.715  -1.117  26.356  0.00  0.00    +0.025 A 
ATOM      7  C   UNL     1       7.337  -0.350  25.241  0.00  0.00    +0.030 A 
ATOM      8  C   UNL     1       6.084  -0.637  24.671  0.00  0.00    +0.025 A 
ATOM      9  C   UNL     1       5.289  -1.693  25.116  0.00  0.00    +0.030 A 
BRANCH   7  10
ATOM     10  N   UNL     1       8.167   0.610  24.697  0.00  0.00    -0.330 N 
ATOM     11  C   UNL     1       7.715   1.455  23.588  0.00  0.00    +0.105 C 
ATOM     12  C   UNL     1       8.737   1.383  22.452  0.00  0.00    +0.027 C 
ATOM     13  C   UNL     1      10.150   1.790  22.924  0.00  0.00    +0.022 C 
ATOM     14  C   UNL     1      10.518   0.824  24.078  0.00  0.00    +0.027 C 
ATOM     15  C   UNL     1       9.502   0.904  25.220  0.00  0.00    +0.105 C 
BRANCH  13  16
ATOM     16  C   UNL     1      10.316   3.280  23.246  0.00  0.00    -0.044 A 
ATOM     17  C   UNL     1      11.582   3.886  23.304  0.00  0.00    +0.004 A 
ATOM     18  C   UNL     1      11.733   5.242  23.597  0.00  0.00    +0.000 A 
ATOM     19  C   UNL     1      10.621   6.027  23.877  0.00  0.00    +0.000 A 
ATOM     20  C   UNL     1       9.353   5.442  23.869  0.00  0.00    +0.000 A 
ATOM     21  C   UNL     1       9.208   4.080  23.571  0.00  0.00    +0.004 A 
ENDBRANCH  13  16
ENDBRANCH   7  10
ENDBRANCH   1   4
BRANCH   1  22
ATOM     22  N   UNL     1       4.483  -4.714  25.374  0.00  0.00    -0.176 NA
ATOM     23  H   UNL     1       3.560  -4.599  24.936  0.00  0.00    +0.149 HD
BRANCH  22  24
ATOM     24  C   UNL     1       5.195  -5.966  25.023  0.00  0.00    +0.189 C 
BRANCH  24  25
ATOM     25  C   UNL     1       4.245  -7.125  25.393  0.00  0.00    +0.324 C 
ATOM     26  O   UNL     1       3.647  -7.794  24.555  0.00  0.00    -0.249 OA
BRANCH  25  27
ATOM     27  O   UNL     1       3.999  -7.287  26.714  0.00  0.00    -0.479 OA
ATOM     28  H   UNL     1       4.774  -7.337  27.300  0.00  0.00    +0.295 HD
ENDBRANCH  25  27
ENDBRANCH  24  25
BRANCH  24  29
ATOM     29  C   UNL     1       5.638  -6.034  23.551  0.00  0.00    +0.069 C 
BRANCH  29  30
ATOM     30  C   UNL     1       6.324  -4.811  23.014  0.00  0.00    -0.020 A 
ATOM     31  C   UNL     1       7.571  -4.260  23.451  0.00  0.00    +0.003 A 
ATOM     32  C   UNL     1       7.823  -3.126  22.677  0.00  0.00    +0.047 A 
ATOM     33  C   UNL     1       8.967  -2.335  22.838  0.00  0.00    +0.026 A 
ATOM     34  C   UNL     1       9.867  -2.696  23.843  0.00  0.00    +0.002 A 
ATOM     35  C   UNL     1       9.639  -3.813  24.642  0.00  0.00    +0.001 A 
ATOM     36  N   UNL     1       6.769  -2.982  21.810  0.00  0.00    -0.360 N 
ATOM     37  H   UNL     1       6.678  -2.243  21.128  0.00  0.00    +0.165 HD
ATOM     38  C   UNL     1       8.503  -4.608  24.449  0.00  0.00    +0.010 A 
ATOM     39  C   UNL     1       5.839  -3.957  22.040  0.00  0.00    +0.087 A 
ENDBRANCH  29  30
ENDBRANCH  24  29
ENDBRANCH  22  24
ENDBRANCH   1  22
TORSDOF 9
ENDMDL
MODEL 2
REMARK VINA RESULT:      -7.8      1.440      2.172
REMARK  Name = 
REMARK  9 active torsions:
REMARK  status: ('A' for Active; 'I' for Inactive)
REMARK    1  A    between atoms: O_1  and  C_2
REMARK    2  A    between atoms: C_2  and  C_4
REMARK    3  A    between atoms: C_4  and  C_6
REMARK    4  A    between atoms: C_4  and  N_16
REMARK    5  A    between atoms: C_6  and  C_7
REMARK    6  A    between atoms: N_16  and  S_17
REMARK    7  A    between atoms: S_17  and  C_20
REMARK    8  A    between atoms: C_23  and  N_26
REMARK    9  A    between atoms: C_29  and  C_32
REMARK                            x       y       z     vdW  Elec       q    Type
REMARK                         _______ _______ _______ _____ _____    ______ ____
ROOT
ATOM      1  S   UNL     1       5.595  -3.926  27.258  0.00  0.00    +0.059 S 
ATOM      2  O   UNL     1       6.806  -4.614  27.636  0.00  0.00    -0.153 OA
ATOM      3  O   UNL     1       4.555  -3.643  28.221  0.00  0.00    -0.153 OA
ENDROOT
BRANCH   1   4
ATOM      4  C   UNL     1       6.074  -2.391  26.536  0.00  0.00    +0.105 A 
ATOM      5  C   UNL     1       7.340  -1.875  26.803  0.00  0.00    +0.030 A 
ATOM      6  C   UNL     1       7.728  -0.668  26.214  0.00  0.00    +0.025 A 
ATOM      7  C   UNL     1       6.871   0.047  25.360  0.00  0.00    +0.030 A 
ATOM      8  C   UNL     1       5.572  -0.466  25.193  0.00  0.00    +0.025 A 
ATOM      9  C   UNL     1       5.171  -1.675  25.760  0.00  0.00    +0.030 A 
BRANCH   7  10
ATOM     10  N   UNL     1       7.289   1.173  24.679  0.00  0.00    -0.330 N 
ATOM     11  C   UNL     1       6.500   1.717  23.569  0.00  0.00    +0.105 C 
ATOM     12  C   UNL     1       7.403   1.883  22.345  0.00  0.00    +0.027 C 
ATOM     13  C   UNL     1       8.626   2.774  22.651  0.00  0.00    +0.022 C 
ATOM     14  C   UNL     1       9.380   2.093  23.821  0.00  0.00    +0.027 C 
ATOM     15  C   UNL     1       8.480   1.937  25.050  0.00  0.00    +0.105 C 
BRANCH  13  16
ATOM     16  C   UNL     1       8.304   4.258  22.862  0.00  0.00    -0.044 A 
ATOM     17  C   UNL     1       7.228   4.880  22.209  0.00  0.00    +0.004 A 
ATOM     18  C   UNL     1       6.935   6.231  22.402  0.00  0.00    +0.000 A 
ATOM     19  C   UNL     1       7.734   7.011  23.228  0.00  0.00    +0.000 A 
ATOM     20  C   UNL     1       8.837   6.430  23.859  0.00  0.00    +0.000 A 
ATOM     21  C   UNL     1       9.124   5.071  23.663  0.00  0.00    +0.004 A 
ENDBRANCH  13  16
ENDBRANCH   7  10
ENDBRANCH   1   4
BRANCH   1  22
ATOM     22  N   UNL     1       4.940  -4.760  25.978  0.00  0.00    -0.176 NA
ATOM     23  H   UNL     1       3.916  -4.736  25.902  0.00  0.00    +0.149 HD
BRANCH  22  24
ATOM     24  C   UNL     1       5.598  -5.889  25.279  0.00  0.00    +0.189 C 
BRANCH  24  25
ATOM     25  C   UNL     1       4.490  -6.924  24.986  0.00  0.00    +0.324 C 
ATOM     26  O   UNL     1       3.691  -7.308  25.834  0.00  0.00    -0.249 OA
BRANCH  25  27
ATOM     27  O   UNL     1       4.526  -7.496  23.759  0.00  0.00    -0.479 OA
ATOM     28  H   UNL     1       3.711  -7.932  23.456  0.00  0.00    +0.295 HD
ENDBRANCH  25  27
ENDBRANCH  24  25
BRANCH  24  29
ATOM     29  C   UNL     1       6.346  -5.473  24.000  0.00  0.00    +0.069 C 
BRANCH  29  30
ATOM     30  C   UNL     1       7.658  -4.771  24.205  0.00  0.00    -0.020 A 
ATOM     31  C   UNL     1       8.086  -3.548  23.596  0.00  0.00    +0.003 A 
ATOM     32  C   UNL     1       9.368  -3.269  24.071  0.00  0.00    +0.047 A 
ATOM     33  C   UNL     1      10.095  -2.139  23.678  0.00  0.00    +0.026 A 
ATOM     34  C   UNL     1       9.505  -1.282  22.747  0.00  0.00    +0.002 A 
ATOM     35  C   UNL     1       8.233  -1.538  22.243  0.00  0.00    +0.001 A 
ATOM     36  N   UNL     1       9.716  -4.285  24.926  0.00  0.00    -0.360 N 
ATOM     37  H   UNL     1      10.595  -4.351  25.419  0.00  0.00    +0.165 HD
ATOM     38  C   UNL     1       7.510  -2.659  22.667  0.00  0.00    +0.010 A 
ATOM     39  C   UNL     1       8.718  -5.218  24.972  0.00  0.00    +0.087 A 
ENDBRANCH  29  30
ENDBRANCH  24  29
ENDBRANCH  22  24
ENDBRANCH   1  22
TORSDOF 9
ENDMDL
MODEL 3
REMARK VINA RESULT:      -7.8      1.918      3.496
REMARK  Name = 
REMARK  9 active torsions:
REMARK  status: ('A' for Active; 'I' for Inactive)
REMARK    1  A    between atoms: O_1  and  C_2
REMARK    2  A    between atoms: C_2  and  C_4
REMARK    3  A    between atoms: C_4  and  C_6
REMARK    4  A    between atoms: C_4  and  N_16
REMARK    5  A    between atoms: C_6  and  C_7
REMARK    6  A    between atoms: N_16  and  S_17
REMARK    7  A    between atoms: S_17  and  C_20
REMARK    8  A    between atoms: C_23  and  N_26
REMARK    9  A    between atoms: C_29  and  C_32
REMARK                            x       y       z     vdW  Elec       q    Type
REMARK                         _______ _______ _______ _____ _____    ______ ____
ROOT
ATOM      1  S   UNL     1       6.041  -4.923  22.278  0.00  0.00    +0.059 S 
ATOM      2  O   UNL     1       4.624  -4.675  22.167  0.00  0.00    -0.153 OA
ATOM      3  O   UNL     1       6.791  -5.518  21.195  0.00  0.00    -0.153 OA
ENDROOT
BRANCH   1   4
ATOM      4  C   UNL     1       6.808  -3.383  22.663  0.00  0.00    +0.105 A 
ATOM      5  C   UNL     1       8.195  -3.315  22.763  0.00  0.00    +0.030 A 
ATOM      6  C   UNL     1       8.804  -2.089  23.048  0.00  0.00    +0.025 A 
ATOM      7  C   UNL     1       8.053  -0.918  23.244  0.00  0.00    +0.030 A 
ATOM      8  C   UNL     1       6.653  -1.054  23.225  0.00  0.00    +0.025 A 
ATOM      9  C   UNL     1       6.027  -2.264  22.928  0.00  0.00    +0.030 A 
BRANCH   7  10
ATOM     10  N   UNL     1       8.650   0.317  23.404  0.00  0.00    -0.330 N 
ATOM     11  C   UNL     1       8.543   1.345  22.364  0.00  0.00    +0.105 C 
ATOM     12  C   UNL     1       9.943   1.846  22.007  0.00  0.00    +0.027 C 
ATOM     13  C   UNL     1      10.695   2.380  23.246  0.00  0.00    +0.022 C 
ATOM     14  C   UNL     1      10.754   1.208  24.258  0.00  0.00    +0.027 C 
ATOM     15  C   UNL     1       9.353   0.714  24.624  0.00  0.00    +0.105 C 
BRANCH  13  16
ATOM     16  C   UNL     1      10.150   3.698  23.810  0.00  0.00    -0.044 A 
ATOM     17  C   UNL     1       8.938   3.754  24.517  0.00  0.00    +0.004 A 
ATOM     18  C   UNL     1       8.443   4.953  25.030  0.00  0.00    +0.000 A 
ATOM     19  C   UNL     1       9.130   6.143  24.820  0.00  0.00    +0.000 A 
ATOM     20  C   UNL     1      10.317   6.125  24.084  0.00  0.00    +0.000 A 
ATOM     21  C   UNL     1      10.810   4.916  23.573  0.00  0.00    +0.004 A 
ENDBRANCH  13  16
ENDBRANCH   7  10
ENDBRANCH   1   4
BRANCH   1  22
ATOM     22  N   UNL     1       6.274  -5.819  23.658  0.00  0.00    -0.176 NA
ATOM     23  H   UNL     1       6.675  -6.755  23.524  0.00  0.00    +0.149 HD
BRANCH  22  24
ATOM     24  C   UNL     1       5.533  -5.625  24.928  0.00  0.00    +0.189 C 
BRANCH  24  25
ATOM     25  C   UNL     1       4.582  -6.833  25.065  0.00  0.00    +0.324 C 
ATOM     26  O   UNL     1       4.186  -7.254  26.148  0.00  0.00    -0.249 OA
BRANCH  25  27
ATOM     27  O   UNL     1       4.305  -7.499  23.920  0.00  0.00    -0.479 OA
ATOM     28  H   UNL     1       4.578  -7.072  23.089  0.00  0.00    +0.295 HD
ENDBRANCH  25  27
ENDBRANCH  24  25
BRANCH  24  29
ATOM     29  C   UNL     1       6.445  -5.470  26.158  0.00  0.00    +0.069 C 
BRANCH  29  30
ATOM     30  C   UNL     1       7.037  -4.106  26.369  0.00  0.00    -0.020 A 
ATOM     31  C   UNL     1       6.328  -2.873  26.532  0.00  0.00    +0.003 A 
ATOM     32  C   UNL     1       7.275  -1.863  26.698  0.00  0.00    +0.047 A 
ATOM     33  C   UNL     1       6.929  -0.519  26.883  0.00  0.00    +0.026 A 
ATOM     34  C   UNL     1       5.571  -0.193  26.868  0.00  0.00    +0.002 A 
ATOM     35  C   UNL     1       4.600  -1.175  26.692  0.00  0.00    +0.001 A 
ATOM     36  N   UNL     1       8.514  -2.449  26.628  0.00  0.00    -0.360 N 
ATOM     37  H   UNL     1       9.393  -1.959  26.711  0.00  0.00    +0.165 HD
ATOM     38  C   UNL     1       4.965  -2.517  26.534  0.00  0.00    +0.010 A 
ATOM     39  C   UNL     1       8.382  -3.787  26.377  0.00  0.00    +0.087 A 
ENDBRANCH  29  30
ENDBRANCH  24  29
ENDBRANCH  22  24
ENDBRANCH   1  22
TORSDOF 9
ENDMDL
MODEL 4
REMARK VINA RESULT:      -7.7      2.036      3.534
REMARK  Name = 
REMARK  9 active torsions:
REMARK  status: ('A' for Active; 'I' for Inactive)
REMARK    1  A    between atoms: O_1  and  C_2
REMARK    2  A    between atoms: C_2  and  C_4
REMARK    3  A    between atoms: C_4  and  C_6
REMARK    4  A    between atoms: C_4  and  N_16
REMARK    5  A    between atoms: C_6  and  C_7
REMARK    6  A    between atoms: N_16  and  S_17
REMARK    7  A    between atoms: S_17  and  C_20
REMARK    8  A    between atoms: C_23  and  N_26
REMARK    9  A    between atoms: C_29  and  C_32
REMARK                            x       y       z     vdW  Elec       q    Type
REMARK                         _______ _______ _______ _____ _____    ______ ____
ROOT
ATOM      1  S   UNL     1       8.525  -4.895  25.605  0.00  0.00    +0.059 S 
ATOM      2  O   UNL     1       9.447  -5.704  24.844  0.00  0.00    -0.153 OA
ATOM      3  O   UNL     1       8.410  -5.030  27.040  0.00  0.00    -0.153 OA
ENDROOT
BRANCH   1   4
ATOM      4  C   UNL     1       8.912  -3.209  25.265  0.00  0.00    +0.105 A 
ATOM      5  C   UNL     1       9.580  -2.885  24.087  0.00  0.00    +0.030 A 
ATOM      6  C   UNL     1       9.869  -1.545  23.807  0.00  0.00    +0.025 A 
ATOM      7  C   UNL     1       9.509  -0.512  24.688  0.00  0.00    +0.030 A 
ATOM      8  C   UNL     1       8.919  -0.895  25.906  0.00  0.00    +0.025 A 
ATOM      9  C   UNL     1       8.610  -2.224  26.197  0.00  0.00    +0.030 A 
BRANCH   7  10
ATOM     10  N   UNL     1       9.679   0.819  24.364  0.00  0.00    -0.330 N 
ATOM     11  C   UNL     1       8.999   1.873  25.124  0.00  0.00    +0.105 C 
ATOM     12  C   UNL     1       8.243   2.783  24.155  0.00  0.00    +0.027 C 
ATOM     13  C   UNL     1       9.179   3.383  23.084  0.00  0.00    +0.022 C 
ATOM     14  C   UNL     1       9.823   2.183  22.346  0.00  0.00    +0.027 C 
ATOM     15  C   UNL     1      10.589   1.277  23.314  0.00  0.00    +0.105 C 
BRANCH  13  16
ATOM     16  C   UNL     1      10.169   4.430  23.608  0.00  0.00    -0.044 A 
ATOM     17  C   UNL     1       9.748   5.519  24.389  0.00  0.00    +0.004 A 
ATOM     18  C   UNL     1      10.649   6.471  24.867  0.00  0.00    +0.000 A 
ATOM     19  C   UNL     1      11.998   6.383  24.547  0.00  0.00    +0.000 A 
ATOM     20  C   UNL     1      12.441   5.334  23.736  0.00  0.00    +0.000 A 
ATOM     21  C   UNL     1      11.530   4.379  23.263  0.00  0.00    +0.004 A 
ENDBRANCH  13  16
ENDBRANCH   7  10
ENDBRANCH   1   4
BRANCH   1  22
ATOM     22  N   UNL     1       7.025  -5.087  24.917  0.00  0.00    -0.176 NA
ATOM     23  H   UNL     1       6.422  -5.800  25.345  0.00  0.00    +0.149 HD
BRANCH  22  24
ATOM     24  C   UNL     1       6.681  -4.723  23.522  0.00  0.00    +0.189 C 
BRANCH  24  25
ATOM     25  C   UNL     1       6.466  -6.053  22.766  0.00  0.00    +0.324 C 
ATOM     26  O   UNL     1       7.207  -6.440  21.868  0.00  0.00    -0.249 OA
BRANCH  25  27
ATOM     27  O   UNL     1       5.325  -6.720  23.060  0.00  0.00    -0.479 OA
ATOM     28  H   UNL     1       5.045  -7.404  22.428  0.00  0.00    +0.295 HD
ENDBRANCH  25  27
ENDBRANCH  24  25
BRANCH  24  29
ATOM     29  C   UNL     1       5.460  -3.794  23.408  0.00  0.00    +0.069 C 
BRANCH  29  30
ATOM     30  C   UNL     1       5.706  -2.344  23.708  0.00  0.00    -0.020 A 
ATOM     31  C   UNL     1       5.334  -1.634  24.894  0.00  0.00    +0.003 A 
ATOM     32  C   UNL     1       5.758  -0.313  24.743  0.00  0.00    +0.047 A 
ATOM     33  C   UNL     1       5.555   0.667  25.722  0.00  0.00    +0.026 A 
ATOM     34  C   UNL     1       4.870   0.293  26.880  0.00  0.00    +0.002 A 
ATOM     35  C   UNL     1       4.422  -1.013  27.057  0.00  0.00    +0.001 A 
ATOM     36  N   UNL     1       6.354  -0.215  23.510  0.00  0.00    -0.360 N 
ATOM     37  H   UNL     1       6.754   0.629  23.126  0.00  0.00    +0.165 HD
ATOM     38  C   UNL     1       4.657  -1.986  26.079  0.00  0.00    +0.010 A 
ATOM     39  C   UNL     1       6.280  -1.415  22.860  0.00  0.00    +0.087 A 
ENDBRANCH  29  30
ENDBRANCH  24  29
ENDBRANCH  22  24
ENDBRANCH   1  22
TORSDOF 9
ENDMDL
MODEL 5
REMARK VINA RESULT:      -7.5      4.208      8.623
REMARK  Name = 
REMARK  9 active torsions:
REMARK  status: ('A' for Active; 'I' for Inactive)
REMARK    1  A    between atoms: O_1  and  C_2
REMARK    2  A    between atoms: C_2  and  C_4
REMARK    3  A    between atoms: C_4  and  C_6
REMARK    4  A    between atoms: C_4  and  N_16
REMARK    5  A    between atoms: C_6  and  C_7
REMARK    6  A    between atoms: N_16  and  S_17
REMARK    7  A    between atoms: S_17  and  C_20
REMARK    8  A    between atoms: C_23  and  N_26
REMARK    9  A    between atoms: C_29  and  C_32
REMARK                            x       y       z     vdW  Elec       q    Type
REMARK                         _______ _______ _______ _____ _____    ______ ____
ROOT
ATOM      1  S   UNL     1       6.983   3.977  24.651  0.00  0.00    +0.059 S 
ATOM      2  O   UNL     1       6.600   4.227  23.282  0.00  0.00    -0.153 OA
ATOM      3  O   UNL     1       6.255   4.558  25.756  0.00  0.00    -0.153 OA
ENDROOT
BRANCH   1   4
ATOM      4  C   UNL     1       6.978   2.229  24.879  0.00  0.00    +0.105 A 
ATOM      5  C   UNL     1       7.639   1.681  25.976  0.00  0.00    +0.030 A 
ATOM      6  C   UNL     1       7.618   0.296  26.169  0.00  0.00    +0.025 A 
ATOM      7  C   UNL     1       6.951  -0.564  25.281  0.00  0.00    +0.030 A 
ATOM      8  C   UNL     1       6.377   0.026  24.140  0.00  0.00    +0.025 A 
ATOM      9  C   UNL     1       6.375   1.406  23.937  0.00  0.00    +0.030 A 
BRANCH   7  10
ATOM     10  N   UNL     1       6.821  -1.916  25.529  0.00  0.00    -0.330 N 
ATOM     11  C   UNL     1       7.571  -2.558  26.612  0.00  0.00    +0.105 C 
ATOM     12  C   UNL     1       8.326  -3.766  26.055  0.00  0.00    +0.027 C 
ATOM     13  C   UNL     1       7.374  -4.767  25.364  0.00  0.00    +0.022 C 
ATOM     14  C   UNL     1       6.656  -3.980  24.239  0.00  0.00    +0.027 C 
ATOM     15  C   UNL     1       5.892  -2.778  24.798  0.00  0.00    +0.105 C 
BRANCH  13  16
ATOM     16  C   UNL     1       6.447  -5.534  26.314  0.00  0.00    -0.044 A 
ATOM     17  C   UNL     1       5.251  -6.119  25.867  0.00  0.00    +0.004 A 
ATOM     18  C   UNL     1       4.407  -6.817  26.732  0.00  0.00    +0.000 A 
ATOM     19  C   UNL     1       4.718  -6.921  28.082  0.00  0.00    +0.000 A 
ATOM     20  C   UNL     1       5.879  -6.313  28.565  0.00  0.00    +0.000 A 
ATOM     21  C   UNL     1       6.724  -5.616  27.689  0.00  0.00    +0.004 A 
ENDBRANCH  13  16
ENDBRANCH   7  10
ENDBRANCH   1   4
BRANCH   1  22
ATOM     22  N   UNL     1       8.590   4.374  24.788  0.00  0.00    -0.176 NA
ATOM     23  H   UNL     1       8.835   4.997  25.568  0.00  0.00    +0.149 HD
BRANCH  22  24
ATOM     24  C   UNL     1       9.567   4.345  23.673  0.00  0.00    +0.189 C 
BRANCH  24  25
ATOM     25  C   UNL     1      10.469   5.585  23.853  0.00  0.00    +0.324 C 
ATOM     26  O   UNL     1      10.240   6.466  24.676  0.00  0.00    -0.249 OA
BRANCH  25  27
ATOM     27  O   UNL     1      11.471   5.721  22.953  0.00  0.00    -0.479 OA
ATOM     28  H   UNL     1      12.265   6.199  23.251  0.00  0.00    +0.295 HD
ENDBRANCH  25  27
ENDBRANCH  24  25
BRANCH  24  29
ATOM     29  C   UNL     1      10.387   3.045  23.603  0.00  0.00    +0.069 C 
BRANCH  29  30
ATOM     30  C   UNL     1       9.820   1.955  22.741  0.00  0.00    -0.020 A 
ATOM     31  C   UNL     1       9.851   0.547  22.997  0.00  0.00    +0.003 A 
ATOM     32  C   UNL     1       9.209  -0.088  21.933  0.00  0.00    +0.047 A 
ATOM     33  C   UNL     1       9.058  -1.478  21.857  0.00  0.00    +0.026 A 
ATOM     34  C   UNL     1       9.607  -2.246  22.887  0.00  0.00    +0.002 A 
ATOM     35  C   UNL     1      10.265  -1.645  23.956  0.00  0.00    +0.001 A 
ATOM     36  N   UNL     1       8.811   0.889  21.055  0.00  0.00    -0.360 N 
ATOM     37  H   UNL     1       8.323   0.723  20.187  0.00  0.00    +0.165 HD
ATOM     38  C   UNL     1      10.384  -0.252  24.028  0.00  0.00    +0.010 A 
ATOM     39  C   UNL     1       9.220   2.114  21.505  0.00  0.00    +0.087 A 
ENDBRANCH  29  30
ENDBRANCH  24  29
ENDBRANCH  22  24
ENDBRANCH   1  22
TORSDOF 9
ENDMDL
MODEL 6
REMARK VINA RESULT:      -7.4      1.973      3.212
REMARK  Name = 
REMARK  9 active torsions:
REMARK  status: ('A' for Active; 'I' for Inactive)
REMARK    1  A    between atoms: O_1  and  C_2
REMARK    2  A    between atoms: C_2  and  C_4
REMARK    3  A    between atoms: C_4  and  C_6
REMARK    4  A    between atoms: C_4  and  N_16
REMARK    5  A    between atoms: C_6  and  C_7
REMARK    6  A    between atoms: N_16  and  S_17
REMARK    7  A    between atoms: S_17  and  C_20
REMARK    8  A    between atoms: C_23  and  N_26
REMARK    9  A    between atoms: C_29  and  C_32
REMARK                            x       y       z     vdW  Elec       q    Type
REMARK                         _______ _______ _______ _____ _____    ______ ____
ROOT
ATOM      1  S   UNL     1       8.834  -4.654  25.986  0.00  0.00    +0.059 S 
ATOM      2  O   UNL     1       8.474  -5.384  24.794  0.00  0.00    -0.153 OA
ATOM      3  O   UNL     1      10.028  -4.975  26.735  0.00  0.00    -0.153 OA
ENDROOT
BRANCH   1   4
ATOM      4  C   UNL     1       8.934  -2.952  25.541  0.00  0.00    +0.105 A 
ATOM      5  C   UNL     1       8.580  -1.979  26.473  0.00  0.00    +0.030 A 
ATOM      6  C   UNL     1       8.680  -0.627  26.126  0.00  0.00    +0.025 A 
ATOM      7  C   UNL     1       9.123  -0.220  24.857  0.00  0.00    +0.030 A 
ATOM      8  C   UNL     1       9.381  -1.237  23.921  0.00  0.00    +0.025 A 
ATOM      9  C   UNL     1       9.302  -2.590  24.251  0.00  0.00    +0.030 A 
BRANCH   7  10
ATOM     10  N   UNL     1       9.340   1.108  24.549  0.00  0.00    -0.330 N 
ATOM     11  C   UNL     1       8.426   2.151  25.024  0.00  0.00    +0.105 C 
ATOM     12  C   UNL     1       7.972   3.002  23.837  0.00  0.00    +0.027 C 
ATOM     13  C   UNL     1       9.170   3.612  23.078  0.00  0.00    +0.022 C 
ATOM     14  C   UNL     1      10.048   2.421  22.618  0.00  0.00    +0.027 C 
ATOM     15  C   UNL     1      10.511   1.575  23.807  0.00  0.00    +0.105 C 
BRANCH  13  16
ATOM     16  C   UNL     1       9.918   4.715  23.837  0.00  0.00    -0.044 A 
ATOM     17  C   UNL     1       9.277   5.517  24.795  0.00  0.00    +0.004 A 
ATOM     18  C   UNL     1       9.958   6.520  25.486  0.00  0.00    +0.000 A 
ATOM     19  C   UNL     1      11.297   6.775  25.212  0.00  0.00    +0.000 A 
ATOM     20  C   UNL     1      11.950   6.022  24.234  0.00  0.00    +0.000 A 
ATOM     21  C   UNL     1      11.260   5.013  23.546  0.00  0.00    +0.004 A 
ENDBRANCH  13  16
ENDBRANCH   7  10
ENDBRANCH   1   4
BRANCH   1  22
ATOM     22  N   UNL     1       7.522  -4.704  27.004  0.00  0.00    -0.176 NA
ATOM     23  H   UNL     1       7.682  -4.365  27.960  0.00  0.00    +0.149 HD
BRANCH  22  24
ATOM     24  C   UNL     1       6.358  -5.608  26.841  0.00  0.00    +0.189 C 
BRANCH  24  25
ATOM     25  C   UNL     1       6.106  -6.247  28.224  0.00  0.00    +0.324 C 
ATOM     26  O   UNL     1       6.433  -5.711  29.279  0.00  0.00    -0.249 OA
BRANCH  25  27
ATOM     27  O   UNL     1       5.616  -7.508  28.210  0.00  0.00    -0.479 OA
ATOM     28  H   UNL     1       4.809  -7.658  27.686  0.00  0.00    +0.295 HD
ENDBRANCH  25  27
ENDBRANCH  24  25
BRANCH  24  29
ATOM     29  C   UNL     1       5.101  -4.906  26.296  0.00  0.00    +0.069 C 
BRANCH  29  30
ATOM     30  C   UNL     1       5.294  -4.082  25.056  0.00  0.00    -0.020 A 
ATOM     31  C   UNL     1       5.553  -4.562  23.733  0.00  0.00    +0.003 A 
ATOM     32  C   UNL     1       5.664  -3.451  22.896  0.00  0.00    +0.047 A 
ATOM     33  C   UNL     1       5.918  -3.554  21.523  0.00  0.00    +0.026 A 
ATOM     34  C   UNL     1       6.094  -4.834  20.994  0.00  0.00    +0.002 A 
ATOM     35  C   UNL     1       6.003  -5.964  21.802  0.00  0.00    +0.001 A 
ATOM     36  N   UNL     1       5.493  -2.334  23.677  0.00  0.00    -0.360 N 
ATOM     37  H   UNL     1       5.525  -1.383  23.341  0.00  0.00    +0.165 HD
ATOM     38  C   UNL     1       5.722  -5.842  23.168  0.00  0.00    +0.010 A 
ATOM     39  C   UNL     1       5.324  -2.701  24.983  0.00  0.00    +0.087 A 
ENDBRANCH  29  30
ENDBRANCH  24  29
ENDBRANCH  22  24
ENDBRANCH   1  22
TORSDOF 9
ENDMDL
MODEL 7
REMARK VINA RESULT:      -7.3      2.314      4.391
REMARK  Name = 
REMARK  9 active torsions:
REMARK  status: ('A' for Active; 'I' for Inactive)
REMARK    1  A    between atoms: O_1  and  C_2
REMARK    2  A    between atoms: C_2  and  C_4
REMARK    3  A    between atoms: C_4  and  C_6
REMARK    4  A    between atoms: C_4  and  N_16
REMARK    5  A    between atoms: C_6  and  C_7
REMARK    6  A    between atoms: N_16  and  S_17
REMARK    7  A    between atoms: S_17  and  C_20
REMARK    8  A    between atoms: C_23  and  N_26
REMARK    9  A    between atoms: C_29  and  C_32
REMARK                            x       y       z     vdW  Elec       q    Type
REMARK                         _______ _______ _______ _____ _____    ______ ____
ROOT
ATOM      1  S   UNL     1       8.733  -4.892  25.391  0.00  0.00    +0.059 S 
ATOM      2  O   UNL     1       9.988  -5.532  25.077  0.00  0.00    -0.153 OA
ATOM      3  O   UNL     1       8.092  -5.072  26.674  0.00  0.00    -0.153 OA
ENDROOT
BRANCH   1   4
ATOM      4  C   UNL     1       8.963  -3.159  25.158  0.00  0.00    +0.105 A 
ATOM      5  C   UNL     1       9.721  -2.709  24.079  0.00  0.00    +0.030 A 
ATOM      6  C   UNL     1       9.886  -1.334  23.883  0.00  0.00    +0.025 A 
ATOM      7  C   UNL     1       9.312  -0.389  24.749  0.00  0.00    +0.030 A 
ATOM      8  C   UNL     1       8.633  -0.892  25.874  0.00  0.00    +0.025 A 
ATOM      9  C   UNL     1       8.445  -2.259  26.080  0.00  0.00    +0.030 A 
BRANCH   7  10
ATOM     10  N   UNL     1       9.366   0.967  24.494  0.00  0.00    -0.330 N 
ATOM     11  C   UNL     1       8.236   1.841  24.822  0.00  0.00    +0.105 C 
ATOM     12  C   UNL     1       7.854   2.654  23.584  0.00  0.00    +0.027 C 
ATOM     13  C   UNL     1       9.049   3.466  23.040  0.00  0.00    +0.022 C 
ATOM     14  C   UNL     1      10.165   2.439  22.720  0.00  0.00    +0.027 C 
ATOM     15  C   UNL     1      10.555   1.633  23.961  0.00  0.00    +0.105 C 
BRANCH  13  16
ATOM     16  C   UNL     1       9.483   4.642  23.924  0.00  0.00    -0.044 A 
ATOM     17  C   UNL     1      10.715   5.291  23.738  0.00  0.00    +0.004 A 
ATOM     18  C   UNL     1      11.109   6.361  24.542  0.00  0.00    +0.000 A 
ATOM     19  C   UNL     1      10.296   6.793  25.582  0.00  0.00    +0.000 A 
ATOM     20  C   UNL     1       9.084   6.140  25.819  0.00  0.00    +0.000 A 
ATOM     21  C   UNL     1       8.693   5.067  25.005  0.00  0.00    +0.004 A 
ENDBRANCH  13  16
ENDBRANCH   7  10
ENDBRANCH   1   4
BRANCH   1  22
ATOM     22  N   UNL     1       7.663  -5.298  24.186  0.00  0.00    -0.176 NA
ATOM     23  H   UNL     1       7.957  -6.061  23.563  0.00  0.00    +0.149 HD
BRANCH  22  24
ATOM     24  C   UNL     1       6.628  -4.394  23.632  0.00  0.00    +0.189 C 
BRANCH  24  25
ATOM     25  C   UNL     1       6.297  -4.924  22.220  0.00  0.00    +0.324 C 
ATOM     26  O   UNL     1       5.694  -4.263  21.381  0.00  0.00    -0.249 OA
BRANCH  25  27
ATOM     27  O   UNL     1       6.597  -6.224  21.993  0.00  0.00    -0.479 OA
ATOM     28  H   UNL     1       5.851  -6.814  21.785  0.00  0.00    +0.295 HD
ENDBRANCH  25  27
ENDBRANCH  24  25
BRANCH  24  29
ATOM     29  C   UNL     1       5.371  -4.280  24.511  0.00  0.00    +0.069 C 
BRANCH  29  30
ATOM     30  C   UNL     1       4.710  -5.576  24.883  0.00  0.00    -0.020 A 
ATOM     31  C   UNL     1       3.614  -6.209  24.212  0.00  0.00    +0.003 A 
ATOM     32  C   UNL     1       3.326  -7.389  24.900  0.00  0.00    +0.047 A 
ATOM     33  C   UNL     1       2.302  -8.262  24.515  0.00  0.00    +0.026 A 
ATOM     34  C   UNL     1       1.527  -7.903  23.410  0.00  0.00    +0.002 A 
ATOM     35  C   UNL     1       1.779  -6.726  22.710  0.00  0.00    +0.001 A 
ATOM     36  N   UNL     1       4.201  -7.470  25.954  0.00  0.00    -0.360 N 
ATOM     37  H   UNL     1       4.225  -8.220  26.630  0.00  0.00    +0.165 HD
ATOM     38  C   UNL     1       2.824  -5.879  23.093  0.00  0.00    +0.010 A 
ATOM     39  C   UNL     1       4.999  -6.361  25.984  0.00  0.00    +0.087 A 
ENDBRANCH  29  30
ENDBRANCH  24  29
ENDBRANCH  22  24
ENDBRANCH   1  22
TORSDOF 9
ENDMDL
MODEL 8
REMARK VINA RESULT:      -7.1      3.802      8.708
REMARK  Name = 
REMARK  9 active torsions:
REMARK  status: ('A' for Active; 'I' for Inactive)
REMARK    1  A    between atoms: O_1  and  C_2
REMARK    2  A    between atoms: C_2  and  C_4
REMARK    3  A    between atoms: C_4  and  C_6
REMARK    4  A    between atoms: C_4  and  N_16
REMARK    5  A    between atoms: C_6  and  C_7
REMARK    6  A    between atoms: N_16  and  S_17
REMARK    7  A    between atoms: S_17  and  C_20
REMARK    8  A    between atoms: C_23  and  N_26
REMARK    9  A    between atoms: C_29  and  C_32
REMARK                            x       y       z     vdW  Elec       q    Type
REMARK                         _______ _______ _______ _____ _____    ______ ____
ROOT
ATOM      1  S   UNL     1       6.834   2.591  23.805  0.00  0.00    +0.059 S 
ATOM      2  O   UNL     1       6.987   2.886  22.400  0.00  0.00    -0.153 OA
ATOM      3  O   UNL     1       5.905   3.323  24.634  0.00  0.00    -0.153 OA
ENDROOT
BRANCH   1   4
ATOM      4  C   UNL     1       6.418   0.882  23.933  0.00  0.00    +0.105 A 
ATOM      5  C   UNL     1       5.798   0.414  25.088  0.00  0.00    +0.030 A 
ATOM      6  C   UNL     1       5.449  -0.937  25.181  0.00  0.00    +0.025 A 
ATOM      7  C   UNL     1       5.713  -1.842  24.139  0.00  0.00    +0.030 A 
ATOM      8  C   UNL     1       6.423  -1.343  23.032  0.00  0.00    +0.025 A 
ATOM      9  C   UNL     1       6.767   0.004  22.915  0.00  0.00    +0.030 A 
BRANCH   7  10
ATOM     10  N   UNL     1       5.264  -3.147  24.172  0.00  0.00    -0.330 N 
ATOM     11  C   UNL     1       4.570  -3.676  25.350  0.00  0.00    +0.105 C 
ATOM     12  C   UNL     1       5.252  -4.971  25.796  0.00  0.00    +0.027 C 
ATOM     13  C   UNL     1       5.299  -6.015  24.660  0.00  0.00    +0.022 C 
ATOM     14  C   UNL     1       6.062  -5.349  23.487  0.00  0.00    +0.027 C 
ATOM     15  C   UNL     1       5.374  -4.060  23.033  0.00  0.00    +0.105 C 
BRANCH  13  16
ATOM     16  C   UNL     1       3.942  -6.624  24.289  0.00  0.00    -0.044 A 
ATOM     17  C   UNL     1       3.220  -6.190  23.165  0.00  0.00    +0.004 A 
ATOM     18  C   UNL     1       1.985  -6.744  22.827  0.00  0.00    +0.000 A 
ATOM     19  C   UNL     1       1.416  -7.728  23.627  0.00  0.00    +0.000 A 
ATOM     20  C   UNL     1       2.090  -8.150  24.775  0.00  0.00    +0.000 A 
ATOM     21  C   UNL     1       3.332  -7.591  25.107  0.00  0.00    +0.004 A 
ENDBRANCH  13  16
ENDBRANCH   7  10
ENDBRANCH   1   4
BRANCH   1  22
ATOM     22  N   UNL     1       8.348   2.665  24.486  0.00  0.00    -0.176 NA
ATOM     23  H   UNL     1       8.436   3.254  25.323  0.00  0.00    +0.149 HD
BRANCH  22  24
ATOM     24  C   UNL     1       9.615   2.403  23.763  0.00  0.00    +0.189 C 
BRANCH  24  25
ATOM     25  C   UNL     1      10.332   3.764  23.633  0.00  0.00    +0.324 C 
ATOM     26  O   UNL     1      11.511   3.871  23.309  0.00  0.00    -0.249 OA
BRANCH  25  27
ATOM     27  O   UNL     1       9.620   4.845  24.027  0.00  0.00    -0.479 OA
ATOM     28  H   UNL     1       8.798   4.672  24.518  0.00  0.00    +0.295 HD
ENDBRANCH  25  27
ENDBRANCH  24  25
BRANCH  24  29
ATOM     29  C   UNL     1      10.507   1.347  24.442  0.00  0.00    +0.069 C 
BRANCH  29  30
ATOM     30  C   UNL     1      10.255  -0.079  24.045  0.00  0.00    -0.020 A 
ATOM     31  C   UNL     1       9.615  -1.092  24.827  0.00  0.00    +0.003 A 
ATOM     32  C   UNL     1       9.599  -2.262  24.068  0.00  0.00    +0.047 A 
ATOM     33  C   UNL     1       9.044  -3.461  24.531  0.00  0.00    +0.026 A 
ATOM     34  C   UNL     1       8.515  -3.473  25.823  0.00  0.00    +0.002 A 
ATOM     35  C   UNL     1       8.526  -2.326  26.612  0.00  0.00    +0.001 A 
ATOM     36  N   UNL     1      10.215  -1.982  22.874  0.00  0.00    -0.360 N 
ATOM     37  H   UNL     1      10.352  -2.644  22.124  0.00  0.00    +0.165 HD
ATOM     38  C   UNL     1       9.062  -1.130  26.123  0.00  0.00    +0.010 A 
ATOM     39  C   UNL     1      10.660  -0.689  22.872  0.00  0.00    +0.087 A 
ENDBRANCH  29  30
ENDBRANCH  24  29
ENDBRANCH  22  24
ENDBRANCH   1  22
TORSDOF 9
ENDMDL
MODEL 9
REMARK VINA RESULT:      -7.1      2.223      3.962
REMARK  Name = 
REMARK  9 active torsions:
REMARK  status: ('A' for Active; 'I' for Inactive)
REMARK    1  A    between atoms: O_1  and  C_2
REMARK    2  A    between atoms: C_2  and  C_4
REMARK    3  A    between atoms: C_4  and  C_6
REMARK    4  A    between atoms: C_4  and  N_16
REMARK    5  A    between atoms: C_6  and  C_7
REMARK    6  A    between atoms: N_16  and  S_17
REMARK    7  A    between atoms: S_17  and  C_20
REMARK    8  A    between atoms: C_23  and  N_26
REMARK    9  A    between atoms: C_29  and  C_32
REMARK                            x       y       z     vdW  Elec       q    Type
REMARK                         _______ _______ _______ _____ _____    ______ ____
ROOT
ATOM      1  S   UNL     1       8.714  -4.845  25.590  0.00  0.00    +0.059 S 
ATOM      2  O   UNL     1       9.929  -5.528  25.214  0.00  0.00    -0.153 OA
ATOM      3  O   UNL     1       8.148  -4.984  26.913  0.00  0.00    -0.153 OA
ENDROOT
BRANCH   1   4
ATOM      4  C   UNL     1       8.980  -3.124  25.312  0.00  0.00    +0.105 A 
ATOM      5  C   UNL     1       9.587  -2.709  24.129  0.00  0.00    +0.030 A 
ATOM      6  C   UNL     1       9.780  -1.343  23.899  0.00  0.00    +0.025 A 
ATOM      7  C   UNL     1       9.382  -0.372  24.834  0.00  0.00    +0.030 A 
ATOM      8  C   UNL     1       8.859  -0.843  26.051  0.00  0.00    +0.025 A 
ATOM      9  C   UNL     1       8.645  -2.201  26.294  0.00  0.00    +0.030 A 
BRANCH   7  10
ATOM     10  N   UNL     1       9.456   0.979  24.563  0.00  0.00    -0.330 N 
ATOM     11  C   UNL     1       8.475   1.914  25.122  0.00  0.00    +0.105 C 
ATOM     12  C   UNL     1       7.879   2.754  23.991  0.00  0.00    +0.027 C 
ATOM     13  C   UNL     1       8.971   3.500  23.194  0.00  0.00    +0.022 C 
ATOM     14  C   UNL     1       9.930   2.413  22.646  0.00  0.00    +0.027 C 
ATOM     15  C   UNL     1      10.536   1.580  23.779  0.00  0.00    +0.105 C 
BRANCH  13  16
ATOM     16  C   UNL     1       9.651   4.645  23.952  0.00  0.00    -0.044 A 
ATOM     17  C   UNL     1       8.968   5.398  24.922  0.00  0.00    +0.004 A 
ATOM     18  C   UNL     1       9.588   6.440  25.612  0.00  0.00    +0.000 A 
ATOM     19  C   UNL     1      10.904   6.785  25.328  0.00  0.00    +0.000 A 
ATOM     20  C   UNL     1      11.596   6.082  24.339  0.00  0.00    +0.000 A 
ATOM     21  C   UNL     1      10.967   5.034  23.651  0.00  0.00    +0.004 A 
ENDBRANCH  13  16
ENDBRANCH   7  10
ENDBRANCH   1   4
BRANCH   1  22
ATOM     22  N   UNL     1       7.562  -5.239  24.460  0.00  0.00    -0.176 NA
ATOM     23  H   UNL     1       7.773  -6.052  23.868  0.00  0.00    +0.149 HD
BRANCH  22  24
ATOM     24  C   UNL     1       6.566  -4.294  23.902  0.00  0.00    +0.189 C 
BRANCH  24  25
ATOM     25  C   UNL     1       6.467  -4.605  22.393  0.00  0.00    +0.324 C 
ATOM     26  O   UNL     1       5.636  -4.086  21.655  0.00  0.00    -0.249 OA
BRANCH  25  27
ATOM     27  O   UNL     1       7.273  -5.595  21.941  0.00  0.00    -0.479 OA
ATOM     28  H   UNL     1       8.121  -5.323  21.549  0.00  0.00    +0.295 HD
ENDBRANCH  25  27
ENDBRANCH  24  25
BRANCH  24  29
ATOM     29  C   UNL     1       5.192  -4.364  24.593  0.00  0.00    +0.069 C 
BRANCH  29  30
ATOM     30  C   UNL     1       5.034  -3.525  25.827  0.00  0.00    -0.020 A 
ATOM     31  C   UNL     1       5.123  -2.099  25.919  0.00  0.00    +0.003 A 
ATOM     32  C   UNL     1       4.913  -1.750  27.253  0.00  0.00    +0.047 A 
ATOM     33  C   UNL     1       4.932  -0.424  27.704  0.00  0.00    +0.026 A 
ATOM     34  C   UNL     1       5.205   0.574  26.767  0.00  0.00    +0.002 A 
ATOM     35  C   UNL     1       5.433   0.259  25.430  0.00  0.00    +0.001 A 
ATOM     36  N   UNL     1       4.714  -2.914  27.953  0.00  0.00    -0.360 N 
ATOM     37  H   UNL     1       4.541  -2.970  28.946  0.00  0.00    +0.165 HD
ATOM     38  C   UNL     1       5.384  -1.070  24.992  0.00  0.00    +0.010 A 
ATOM     39  C   UNL     1       4.838  -3.988  27.116  0.00  0.00    +0.087 A 
ENDBRANCH  29  30
ENDBRANCH  24  29
ENDBRANCH  22  24
ENDBRANCH   1  22
TORSDOF 9
ENDMDL
