MODEL 1
REMARK VINA RESULT:      -5.0      0.000      0.000
REMARK  Name = 
REMARK  5 active torsions:
REMARK  status: ('A' for Active; 'I' for Inactive)
REMARK    1  A    between atoms: CA_2  and  N_3
REMARK    2  A    between atoms: CA_2  and  C_4
REMARK    3  A    between atoms: CA_2  and  C_12
REMARK    4  A    between atoms: C_4  and  C_5
REMARK    5  A    between atoms: C_12  and  O_13
REMARK                            x       y       z     vdW  Elec       q    Type
REMARK                         _______ _______ _______ _____ _____    ______ ____
ROOT
ATOM      1  CA  UNL     1       9.569   1.274  23.495  0.00  0.00    +0.165 C 
ENDROOT
BRANCH   1   2
ATOM      2  N   UNL     1       9.903   2.659  23.959  0.00  0.00    -0.318 NA
ATOM      3  H1  UNL     1       9.930   2.642  24.985  0.00  0.00    +0.119 HD
ATOM      4  H2  UNL     1      10.880   2.841  23.694  0.00  0.00    +0.119 HD
ENDBRANCH   1   2
BRANCH   1   5
ATOM      5  C   UNL     1       9.724   1.234  21.974  0.00  0.00    +0.322 C 
ATOM      6  OXT UNL     1       9.405   0.301  21.256  0.00  0.00    -0.249 OA
BRANCH   5   7
ATOM      7  O   UNL     1      10.304   2.375  21.507  0.00  0.00    -0.480 OA
ATOM      8  H   UNL     1       9.696   2.716  20.802  0.00  0.00    +0.295 HD
ENDBRANCH   5   7
ENDBRANCH   1   5
BRANCH   1   9
ATOM      9  C   UNL     1      10.504   0.210  24.096  0.00  0.00    +0.065 C 
BRANCH   9  10
ATOM     10  C   UNL     1       9.764  -0.998  24.624  0.00  0.00    -0.045 A 
ATOM     11  C   UNL     1       9.859  -2.230  23.963  0.00  0.00    +0.005 A 
ATOM     12  C   UNL     1       9.237  -3.365  24.488  0.00  0.00    +0.014 A 
ATOM     13  C   UNL     1       8.513  -3.272  25.675  0.00  0.00    +0.013 A 
ATOM     14  I   UNL     1       7.634  -4.970  26.487  0.00  0.00    -0.044 I 
ATOM     15  C   UNL     1       8.387  -2.046  26.328  0.00  0.00    +0.014 A 
ATOM     16  C   UNL     1       9.006  -0.912  25.800  0.00  0.00    +0.005 A 
ENDBRANCH   9  10
ENDBRANCH   1   9
TORSDOF 5
ENDMDL
MODEL 2
REMARK VINA RESULT:      -4.9      5.017      6.337
REMARK  Name = 
REMARK  5 active torsions:
REMARK  status: ('A' for Active; 'I' for Inactive)
REMARK    1  A    between atoms: CA_2  and  N_3
REMARK    2  A    between atoms: CA_2  and  C_4
REMARK    3  A    between atoms: CA_2  and  C_12
REMARK    4  A    between atoms: C_4  and  C_5
REMARK    5  A    between atoms: C_12  and  O_13
REMARK                            x       y       z     vdW  Elec       q    Type
REMARK                         _______ _______ _______ _____ _____    ______ ____
ROOT
ATOM      1  CA  UNL     1       7.230  -4.844  25.674  0.00  0.00    +0.165 C 
ENDROOT
BRANCH   1   2
ATOM      2  N   UNL     1       6.033  -5.710  25.423  0.00  0.00    -0.318 NA
ATOM      3  H1  UNL     1       5.653  -5.450  24.506  0.00  0.00    +0.119 HD
ATOM      4  H2  UNL     1       6.377  -6.668  25.279  0.00  0.00    +0.119 HD
ENDBRANCH   1   2
BRANCH   1   5
ATOM      5  C   UNL     1       7.873  -5.295  26.987  0.00  0.00    +0.322 C 
ATOM      6  OXT UNL     1       7.309  -5.914  27.874  0.00  0.00    -0.249 OA
BRANCH   5   7
ATOM      7  O   UNL     1       9.170  -4.887  27.065  0.00  0.00    -0.480 OA
ATOM      8  H   UNL     1       9.546  -5.012  26.157  0.00  0.00    +0.295 HD
ENDBRANCH   5   7
ENDBRANCH   1   5
BRANCH   1   9
ATOM      9  C   UNL     1       8.287  -4.963  24.563  0.00  0.00    +0.065 C 
BRANCH   9  10
ATOM     10  C   UNL     1       8.566  -3.649  23.868  0.00  0.00    -0.045 A 
ATOM     11  C   UNL     1       7.637  -3.117  22.962  0.00  0.00    +0.005 A 
ATOM     12  C   UNL     1       7.857  -1.869  22.374  0.00  0.00    +0.014 A 
ATOM     13  C   UNL     1       9.009  -1.150  22.685  0.00  0.00    +0.013 A 
ATOM     14  I   UNL     1       9.311   0.730  21.855  0.00  0.00    -0.044 I 
ATOM     15  C   UNL     1       9.955  -1.680  23.562  0.00  0.00    +0.014 A 
ATOM     16  C   UNL     1       9.736  -2.929  24.146  0.00  0.00    +0.005 A 
ENDBRANCH   9  10
ENDBRANCH   1   9
TORSDOF 5
ENDMDL
MODEL 3
REMARK VINA RESULT:      -4.9      1.992      2.430
REMARK  Name = 
REMARK  5 active torsions:
REMARK  status: ('A' for Active; 'I' for Inactive)
REMARK    1  A    between atoms: CA_2  and  N_3
REMARK    2  A    between atoms: CA_2  and  C_4
REMARK    3  A    between atoms: CA_2  and  C_12
REMARK    4  A    between atoms: C_4  and  C_5
REMARK    5  A    between atoms: C_12  and  O_13
REMARK                            x       y       z     vdW  Elec       q    Type
REMARK                         _______ _______ _______ _____ _____    ______ ____
ROOT
ATOM      1  CA  UNL     1       9.246   1.430  22.218  0.00  0.00    +0.165 C 
ENDROOT
BRANCH   1   2
ATOM      2  N   UNL     1      10.298   2.374  21.721  0.00  0.00    -0.318 NA
ATOM      3  H1  UNL     1       9.959   2.777  20.841  0.00  0.00    +0.119 HD
ATOM      4  H2  UNL     1      10.314   3.175  22.364  0.00  0.00    +0.119 HD
ENDBRANCH   1   2
BRANCH   1   5
ATOM      5  C   UNL     1       7.891   2.130  22.105  0.00  0.00    +0.322 C 
ATOM      6  OXT UNL     1       6.805   1.574  22.111  0.00  0.00    -0.249 OA
BRANCH   5   7
ATOM      7  O   UNL     1       8.042   3.476  21.962  0.00  0.00    -0.480 OA
ATOM      8  H   UNL     1       7.636   3.880  22.770  0.00  0.00    +0.295 HD
ENDBRANCH   5   7
ENDBRANCH   1   5
BRANCH   1   9
ATOM      9  C   UNL     1       9.180   0.134  21.392  0.00  0.00    +0.065 C 
BRANCH   9  10
ATOM     10  C   UNL     1       9.082  -1.109  22.247  0.00  0.00    -0.045 A 
ATOM     11  C   UNL     1      10.163  -1.504  23.047  0.00  0.00    +0.005 A 
ATOM     12  C   UNL     1      10.051  -2.611  23.893  0.00  0.00    +0.014 A 
ATOM     13  C   UNL     1       8.858  -3.328  23.940  0.00  0.00    +0.013 A 
ATOM     14  I   UNL     1       8.669  -4.939  25.238  0.00  0.00    -0.044 I 
ATOM     15  C   UNL     1       7.784  -2.964  23.129  0.00  0.00    +0.014 A 
ATOM     16  C   UNL     1       7.899  -1.861  22.280  0.00  0.00    +0.005 A 
ENDBRANCH   9  10
ENDBRANCH   1   9
TORSDOF 5
ENDMDL
MODEL 4
REMARK VINA RESULT:      -4.9      4.632      5.804
REMARK  Name = 
REMARK  5 active torsions:
REMARK  status: ('A' for Active; 'I' for Inactive)
REMARK    1  A    between atoms: CA_2  and  N_3
REMARK    2  A    between atoms: CA_2  and  C_4
REMARK    3  A    between atoms: CA_2  and  C_12
REMARK    4  A    between atoms: C_4  and  C_5
REMARK    5  A    between atoms: C_12  and  O_13
REMARK                            x       y       z     vdW  Elec       q    Type
REMARK                         _______ _______ _______ _____ _____    ______ ____
ROOT
ATOM      1  CA  UNL     1       8.543  -4.585  26.392  0.00  0.00    +0.165 C 
ENDROOT
BRANCH   1   2
ATOM      2  N   UNL     1       7.995  -5.696  27.236  0.00  0.00    -0.318 NA
ATOM      3  H1  UNL     1       7.190  -6.092  26.737  0.00  0.00    +0.119 HD
ATOM      4  H2  UNL     1       8.686  -6.456  27.222  0.00  0.00    +0.119 HD
ENDBRANCH   1   2
BRANCH   1   5
ATOM      5  C   UNL     1       9.244  -5.209  25.185  0.00  0.00    +0.322 C 
ATOM      6  OXT UNL     1       8.727  -5.427  24.102  0.00  0.00    -0.249 OA
BRANCH   5   7
ATOM      7  O   UNL     1      10.535  -5.531  25.477  0.00  0.00    -0.480 OA
ATOM      8  H   UNL     1      10.627  -5.408  26.456  0.00  0.00    +0.295 HD
ENDBRANCH   5   7
ENDBRANCH   1   5
BRANCH   1   9
ATOM      9  C   UNL     1       7.443  -3.645  25.868  0.00  0.00    +0.065 C 
BRANCH   9  10
ATOM     10  C   UNL     1       7.979  -2.316  25.388  0.00  0.00    -0.045 A 
ATOM     11  C   UNL     1       8.681  -1.477  26.265  0.00  0.00    +0.005 A 
ATOM     12  C   UNL     1       9.240  -0.282  25.806  0.00  0.00    +0.014 A 
ATOM     13  C   UNL     1       9.097   0.081  24.469  0.00  0.00    +0.013 A 
ATOM     14  I   UNL     1       9.975   1.830  23.772  0.00  0.00    -0.044 I 
ATOM     15  C   UNL     1       8.377  -0.730  23.592  0.00  0.00    +0.014 A 
ATOM     16  C   UNL     1       7.815  -1.921  24.052  0.00  0.00    +0.005 A 
ENDBRANCH   9  10
ENDBRANCH   1   9
TORSDOF 5
ENDMDL
MODEL 5
REMARK VINA RESULT:      -4.9      4.919      6.195
REMARK  Name = 
REMARK  5 active torsions:
REMARK  status: ('A' for Active; 'I' for Inactive)
REMARK    1  A    between atoms: CA_2  and  N_3
REMARK    2  A    between atoms: CA_2  and  C_4
REMARK    3  A    between atoms: CA_2  and  C_12
REMARK    4  A    between atoms: C_4  and  C_5
REMARK    5  A    between atoms: C_12  and  O_13
REMARK                            x       y       z     vdW  Elec       q    Type
REMARK                         _______ _______ _______ _____ _____    ______ ____
ROOT
ATOM      1  CA  UNL     1       8.586  -4.766  25.586  0.00  0.00    +0.165 C 
ENDROOT
BRANCH   1   2
ATOM      2  N   UNL     1       9.812  -5.623  25.677  0.00  0.00    -0.318 NA
ATOM      3  H1  UNL     1      10.566  -5.134  25.182  0.00  0.00    +0.119 HD
ATOM      4  H2  UNL     1      10.118  -5.611  26.658  0.00  0.00    +0.119 HD
ENDBRANCH   1   2
BRANCH   1   5
ATOM      5  C   UNL     1       7.443  -5.499  26.291  0.00  0.00    +0.322 C 
ATOM      6  OXT UNL     1       6.333  -5.693  25.823  0.00  0.00    -0.249 OA
BRANCH   5   7
ATOM      7  O   UNL     1       7.807  -5.890  27.544  0.00  0.00    -0.480 OA
ATOM      8  H   UNL     1       7.278  -6.706  27.734  0.00  0.00    +0.295 HD
ENDBRANCH   5   7
ENDBRANCH   1   5
BRANCH   1   9
ATOM      9  C   UNL     1       8.769  -3.401  26.272  0.00  0.00    +0.065 C 
BRANCH   9  10
ATOM     10  C   UNL     1       8.926  -2.262  25.291  0.00  0.00    -0.045 A 
ATOM     11  C   UNL     1       8.639  -0.946  25.684  0.00  0.00    +0.005 A 
ATOM     12  C   UNL     1       8.852   0.117  24.803  0.00  0.00    +0.014 A 
ATOM     13  C   UNL     1       9.348  -0.130  23.525  0.00  0.00    +0.013 A 
ATOM     14  I   UNL     1       9.719   1.455  22.235  0.00  0.00    -0.044 I 
ATOM     15  C   UNL     1       9.611  -1.436  23.112  0.00  0.00    +0.014 A 
ATOM     16  C   UNL     1       9.394  -2.498  23.991  0.00  0.00    +0.005 A 
ENDBRANCH   9  10
ENDBRANCH   1   9
TORSDOF 5
ENDMDL
MODEL 6
REMARK VINA RESULT:      -4.8      1.809      2.396
REMARK  Name = 
REMARK  5 active torsions:
REMARK  status: ('A' for Active; 'I' for Inactive)
REMARK    1  A    between atoms: CA_2  and  N_3
REMARK    2  A    between atoms: CA_2  and  C_4
REMARK    3  A    between atoms: CA_2  and  C_12
REMARK    4  A    between atoms: C_4  and  C_5
REMARK    5  A    between atoms: C_12  and  O_13
REMARK                            x       y       z     vdW  Elec       q    Type
REMARK                         _______ _______ _______ _____ _____    ______ ____
ROOT
ATOM      1  CA  UNL     1       9.560   1.063  23.632  0.00  0.00    +0.165 C 
ENDROOT
BRANCH   1   2
ATOM      2  N   UNL     1       9.445   1.469  25.070  0.00  0.00    -0.318 NA
ATOM      3  H1  UNL     1       8.602   1.023  25.449  0.00  0.00    +0.119 HD
ATOM      4  H2  UNL     1      10.212   1.010  25.577  0.00  0.00    +0.119 HD
ENDBRANCH   1   2
BRANCH   1   5
ATOM      5  C   UNL     1      10.281   2.182  22.880  0.00  0.00    +0.322 C 
ATOM      6  OXT UNL     1      10.962   3.055  23.394  0.00  0.00    -0.249 OA
BRANCH   5   7
ATOM      7  O   UNL     1      10.044   2.108  21.541  0.00  0.00    -0.480 OA
ATOM      8  H   UNL     1      10.881   1.763  21.139  0.00  0.00    +0.295 HD
ENDBRANCH   5   7
ENDBRANCH   1   5
BRANCH   1   9
ATOM      9  C   UNL     1      10.371  -0.232  23.449  0.00  0.00    +0.065 C 
BRANCH   9  10
ATOM     10  C   UNL     1       9.501  -1.458  23.292  0.00  0.00    -0.045 A 
ATOM     11  C   UNL     1       9.651  -2.548  24.162  0.00  0.00    +0.005 A 
ATOM     12  C   UNL     1       8.802  -3.653  24.066  0.00  0.00    +0.014 A 
ATOM     13  C   UNL     1       7.800  -3.674  23.097  0.00  0.00    +0.013 A 
ATOM     14  I   UNL     1       6.500  -5.290  22.989  0.00  0.00    -0.044 I 
ATOM     15  C   UNL     1       7.658  -2.610  22.207  0.00  0.00    +0.014 A 
ATOM     16  C   UNL     1       8.510  -1.509  22.301  0.00  0.00    +0.005 A 
ENDBRANCH   9  10
ENDBRANCH   1   9
TORSDOF 5
ENDMDL
MODEL 7
REMARK VINA RESULT:      -4.7      1.191      1.874
REMARK  Name = 
REMARK  5 active torsions:
REMARK  status: ('A' for Active; 'I' for Inactive)
REMARK    1  A    between atoms: CA_2  and  N_3
REMARK    2  A    between atoms: CA_2  and  C_4
REMARK    3  A    between atoms: CA_2  and  C_12
REMARK    4  A    between atoms: C_4  and  C_5
REMARK    5  A    between atoms: C_12  and  O_13
REMARK                            x       y       z     vdW  Elec       q    Type
REMARK                         _______ _______ _______ _____ _____    ______ ____
ROOT
ATOM      1  CA  UNL     1       9.192   2.365  23.751  0.00  0.00    +0.165 C 
ENDROOT
BRANCH   1   2
ATOM      2  N   UNL     1       9.446   3.813  24.040  0.00  0.00    -0.318 NA
ATOM      3  H1  UNL     1      10.323   3.871  24.570  0.00  0.00    +0.119 HD
ATOM      4  H2  UNL     1       9.674   4.265  23.145  0.00  0.00    +0.119 HD
ENDBRANCH   1   2
BRANCH   1   5
ATOM      5  C   UNL     1       8.999   2.210  22.242  0.00  0.00    +0.322 C 
ATOM      6  OXT UNL     1       7.928   2.053  21.679  0.00  0.00    -0.249 OA
BRANCH   5   7
ATOM      7  O   UNL     1      10.193   2.236  21.587  0.00  0.00    -0.480 OA
ATOM      8  H   UNL     1      10.029   1.801  20.712  0.00  0.00    +0.295 HD
ENDBRANCH   5   7
ENDBRANCH   1   5
BRANCH   1   9
ATOM      9  C   UNL     1      10.366   1.465  24.175  0.00  0.00    +0.065 C 
BRANCH   9  10
ATOM     10  C   UNL     1       9.963   0.021  24.375  0.00  0.00    -0.045 A 
ATOM     11  C   UNL     1       9.190  -0.349  25.485  0.00  0.00    +0.005 A 
ATOM     12  C   UNL     1       8.755  -1.668  25.635  0.00  0.00    +0.014 A 
ATOM     13  C   UNL     1       9.094  -2.623  24.679  0.00  0.00    +0.013 A 
ATOM     14  I   UNL     1       8.401  -4.572  24.872  0.00  0.00    -0.044 I 
ATOM     15  C   UNL     1       9.886  -2.274  23.586  0.00  0.00    +0.014 A 
ATOM     16  C   UNL     1      10.324  -0.957  23.439  0.00  0.00    +0.005 A 
ENDBRANCH   9  10
ENDBRANCH   1   9
TORSDOF 5
ENDMDL
MODEL 8
REMARK VINA RESULT:      -4.6      4.709      6.020
REMARK  Name = 
REMARK  5 active torsions:
REMARK  status: ('A' for Active; 'I' for Inactive)
REMARK    1  A    between atoms: CA_2  and  N_3
REMARK    2  A    between atoms: CA_2  and  C_4
REMARK    3  A    between atoms: CA_2  and  C_12
REMARK    4  A    between atoms: C_4  and  C_5
REMARK    5  A    between atoms: C_12  and  O_13
REMARK                            x       y       z     vdW  Elec       q    Type
REMARK                         _______ _______ _______ _____ _____    ______ ____
ROOT
ATOM      1  CA  UNL     1       7.724  -4.307  25.070  0.00  0.00    +0.165 C 
ENDROOT
BRANCH   1   2
ATOM      2  N   UNL     1       6.419  -5.013  25.280  0.00  0.00    -0.318 NA
ATOM      3  H1  UNL     1       5.796  -4.743  24.511  0.00  0.00    +0.119 HD
ATOM      4  H2  UNL     1       6.586  -6.014  25.117  0.00  0.00    +0.119 HD
ENDBRANCH   1   2
BRANCH   1   5
ATOM      5  C   UNL     1       8.838  -5.196  25.625  0.00  0.00    +0.322 C 
ATOM      6  OXT UNL     1       9.953  -5.314  25.144  0.00  0.00    -0.249 OA
BRANCH   5   7
ATOM      7  O   UNL     1       8.420  -5.880  26.726  0.00  0.00    -0.480 OA
ATOM      8  H   UNL     1       7.763  -6.544  26.396  0.00  0.00    +0.295 HD
ENDBRANCH   5   7
ENDBRANCH   1   5
BRANCH   1   9
ATOM      9  C   UNL     1       8.020  -4.048  23.582  0.00  0.00    +0.065 C 
BRANCH   9  10
ATOM     10  C   UNL     1       8.464  -2.629  23.305  0.00  0.00    -0.045 A 
ATOM     11  C   UNL     1       7.530  -1.660  22.910  0.00  0.00    +0.005 A 
ATOM     12  C   UNL     1       7.924  -0.333  22.723  0.00  0.00    +0.014 A 
ATOM     13  C   UNL     1       9.253   0.030  22.928  0.00  0.00    +0.013 A 
ATOM     14  I   UNL     1       9.829   2.014  22.706  0.00  0.00    -0.044 I 
ATOM     15  C   UNL     1      10.198  -0.928  23.293  0.00  0.00    +0.014 A 
ATOM     16  C   UNL     1       9.804  -2.255  23.475  0.00  0.00    +0.005 A 
ENDBRANCH   9  10
ENDBRANCH   1   9
TORSDOF 5
ENDMDL
MODEL 9
REMARK VINA RESULT:      -4.6      4.094      5.452
REMARK  Name = 
REMARK  5 active torsions:
REMARK  status: ('A' for Active; 'I' for Inactive)
REMARK    1  A    between atoms: CA_2  and  N_3
REMARK    2  A    between atoms: CA_2  and  C_4
REMARK    3  A    between atoms: CA_2  and  C_12
REMARK    4  A    between atoms: C_4  and  C_5
REMARK    5  A    between atoms: C_12  and  O_13
REMARK                            x       y       z     vdW  Elec       q    Type
REMARK                         _______ _______ _______ _____ _____    ______ ____
ROOT
ATOM      1  CA  UNL     1       9.557  -0.919  22.868  0.00  0.00    +0.165 C 
ENDROOT
BRANCH   1   2
ATOM      2  N   UNL     1      10.147  -1.493  21.617  0.00  0.00    -0.318 NA
ATOM      3  H1  UNL     1       9.878  -0.879  20.840  0.00  0.00    +0.119 HD
ATOM      4  H2  UNL     1      11.166  -1.373  21.679  0.00  0.00    +0.119 HD
ENDBRANCH   1   2
BRANCH   1   5
ATOM      5  C   UNL     1       9.229  -2.077  23.812  0.00  0.00    +0.322 C 
ATOM      6  OXT UNL     1       8.223  -2.168  24.496  0.00  0.00    -0.249 OA
BRANCH   5   7
ATOM      7  O   UNL     1      10.229  -3.002  23.823  0.00  0.00    -0.480 OA
ATOM      8  H   UNL     1      10.309  -3.298  24.765  0.00  0.00    +0.295 HD
ENDBRANCH   5   7
ENDBRANCH   1   5
BRANCH   1   9
ATOM      9  C   UNL     1      10.528   0.027  23.597  0.00  0.00    +0.065 C 
BRANCH   9  10
ATOM     10  C   UNL     1       9.916   1.372  23.918  0.00  0.00    -0.045 A 
ATOM     11  C   UNL     1       8.816   1.461  24.783  0.00  0.00    +0.005 A 
ATOM     12  C   UNL     1       8.294   2.707  25.138  0.00  0.00    +0.014 A 
ATOM     13  C   UNL     1       8.868   3.869  24.627  0.00  0.00    +0.013 A 
ATOM     14  I   UNL     1       8.129   5.725  25.199  0.00  0.00    -0.044 I 
ATOM     15  C   UNL     1       9.944   3.794  23.744  0.00  0.00    +0.014 A 
ATOM     16  C   UNL     1      10.462   2.549  23.386  0.00  0.00    +0.005 A 
ENDBRANCH   9  10
ENDBRANCH   1   9
TORSDOF 5
ENDMDL
