MODEL 1
REMARK VINA RESULT:      -6.4      0.000      0.000
REMARK  Name = 
REMARK  3 active torsions:
REMARK  status: ('A' for Active; 'I' for Inactive)
REMARK    1  A    between atoms: O_1  and  C_2
REMARK    2  A    between atoms: C_2  and  C_3
REMARK    3  A    between atoms: C_3  and  N_4
REMARK                            x       y       z     vdW  Elec       q    Type
REMARK                         _______ _______ _______ _____ _____    ______ ____
ROOT
ATOM      1  N   UNL     1      11.223   3.739  22.723  0.00  0.00    -0.325 N 
ATOM      2  H   UNL     1      11.832   2.996  22.379  0.00  0.00    +0.148 HD
ATOM      3  C   UNL     1      10.115   3.186  23.372  0.00  0.00    +0.150 A 
ATOM      4  C   UNL     1       9.669   1.870  23.121  0.00  0.00    +0.148 A 
ATOM      5  N   UNL     1      10.111   0.882  22.256  0.00  0.00    -0.223 NA
ATOM      6  C   UNL     1       9.301  -0.138  22.466  0.00  0.00    +0.140 A 
ATOM      7  N   UNL     1       8.369   0.135  23.465  0.00  0.00    -0.284 N 
ATOM      8  C   UNL     1       7.412  -0.779  23.903  0.00  0.00    +0.095 A 
ATOM      9  C   UNL     1       7.359  -1.995  23.337  0.00  0.00    +0.018 A 
ATOM     10  C   UNL     1       8.302  -2.316  22.276  0.00  0.00    +0.005 A 
ATOM     11  C   UNL     1       9.230  -1.430  21.862  0.00  0.00    +0.047 A 
ATOM     12  C   UNL     1       8.597   1.424  23.881  0.00  0.00    +0.170 A 
ATOM     13  N   UNL     1       7.925   2.103  24.828  0.00  0.00    -0.216 NA
ATOM     14  C   UNL     1       8.415   3.345  24.968  0.00  0.00    +0.225 A 
ATOM     15  N   UNL     1       9.446   3.910  24.312  0.00  0.00    -0.219 NA
ENDROOT
BRANCH   1  16
ATOM     16  C   UNL     1      11.939   4.772  23.475  0.00  0.00    +0.130 C 
BRANCH  16  17
ATOM     17  C   UNL     1      13.042   5.436  22.641  0.00  0.00    +0.174 C 
BRANCH  17  18
ATOM     18  O   UNL     1      14.328   5.066  23.140  0.00  0.00    -0.393 OA
ATOM     19  H   UNL     1      14.811   4.667  22.396  0.00  0.00    +0.209 HD
ENDBRANCH  17  18
ENDBRANCH  16  17
ENDBRANCH   1  16
TORSDOF 3
ENDMDL
MODEL 2
REMARK VINA RESULT:      -6.3      4.321      7.123
REMARK  Name = 
REMARK  3 active torsions:
REMARK  status: ('A' for Active; 'I' for Inactive)
REMARK    1  A    between atoms: O_1  and  C_2
REMARK    2  A    between atoms: C_2  and  C_3
REMARK    3  A    between atoms: C_3  and  N_4
REMARK                            x       y       z     vdW  Elec       q    Type
REMARK                         _______ _______ _______ _____ _____    ______ ____
ROOT
ATOM      1  N   UNL     1       8.301  -3.383  26.315  0.00  0.00    -0.325 N 
ATOM      2  H   UNL     1       9.042  -2.882  26.806  0.00  0.00    +0.148 HD
ATOM      3  C   UNL     1       8.251  -2.969  24.980  0.00  0.00    +0.150 A 
ATOM      4  C   UNL     1       8.765  -1.727  24.552  0.00  0.00    +0.148 A 
ATOM      5  N   UNL     1       9.360  -0.677  25.232  0.00  0.00    -0.223 NA
ATOM      6  C   UNL     1       9.635   0.217  24.301  0.00  0.00    +0.140 A 
ATOM      7  N   UNL     1       9.274  -0.228  23.031  0.00  0.00    -0.284 N 
ATOM      8  C   UNL     1       9.477   0.509  21.865  0.00  0.00    +0.095 A 
ATOM      9  C   UNL     1      10.041   1.724  21.947  0.00  0.00    +0.018 A 
ATOM     10  C   UNL     1      10.415   2.237  23.257  0.00  0.00    +0.005 A 
ATOM     11  C   UNL     1      10.222   1.516  24.380  0.00  0.00    +0.047 A 
ATOM     12  C   UNL     1       8.710  -1.470  23.190  0.00  0.00    +0.170 A 
ATOM     13  N   UNL     1       8.215  -2.267  22.225  0.00  0.00    -0.216 NA
ATOM     14  C   UNL     1       7.733  -3.407  22.743  0.00  0.00    +0.225 A 
ATOM     15  N   UNL     1       7.724  -3.795  24.033  0.00  0.00    -0.219 NA
ENDROOT
BRANCH   1  16
ATOM     16  C   UNL     1       8.346  -4.832  26.522  0.00  0.00    +0.130 C 
BRANCH  16  17
ATOM     17  C   UNL     1       7.072  -5.361  27.195  0.00  0.00    +0.174 C 
BRANCH  17  18
ATOM     18  O   UNL     1       7.406  -6.327  28.192  0.00  0.00    -0.393 OA
ATOM     19  H   UNL     1       7.620  -5.829  29.000  0.00  0.00    +0.209 HD
ENDBRANCH  17  18
ENDBRANCH  16  17
ENDBRANCH   1  16
TORSDOF 3
ENDMDL
MODEL 3
REMARK VINA RESULT:      -6.0      4.102      7.006
REMARK  Name = 
REMARK  3 active torsions:
REMARK  status: ('A' for Active; 'I' for Inactive)
REMARK    1  A    between atoms: O_1  and  C_2
REMARK    2  A    between atoms: C_2  and  C_3
REMARK    3  A    between atoms: C_3  and  N_4
REMARK                            x       y       z     vdW  Elec       q    Type
REMARK                         _______ _______ _______ _____ _____    ______ ____
ROOT
ATOM      1  N   UNL     1       7.535  -4.324  22.628  0.00  0.00    -0.325 N 
ATOM      2  H   UNL     1       7.263  -3.795  21.799  0.00  0.00    +0.148 HD
ATOM      3  C   UNL     1       8.018  -3.455  23.611  0.00  0.00    +0.150 A 
ATOM      4  C   UNL     1       8.525  -2.173  23.306  0.00  0.00    +0.148 A 
ATOM      5  N   UNL     1       8.702  -1.498  22.110  0.00  0.00    -0.223 NA
ATOM      6  C   UNL     1       9.216  -0.331  22.452  0.00  0.00    +0.140 A 
ATOM      7  N   UNL     1       9.345  -0.207  23.833  0.00  0.00    -0.284 N 
ATOM      8  C   UNL     1       9.836   0.935  24.466  0.00  0.00    +0.095 A 
ATOM      9  C   UNL     1      10.224   1.982  23.720  0.00  0.00    +0.018 A 
ATOM     10  C   UNL     1      10.125   1.887  22.271  0.00  0.00    +0.005 A 
ATOM     11  C   UNL     1       9.641   0.782  21.667  0.00  0.00    +0.047 A 
ATOM     12  C   UNL     1       8.910  -1.388  24.383  0.00  0.00    +0.170 A 
ATOM     13  N   UNL     1       8.865  -1.708  25.689  0.00  0.00    -0.216 NA
ATOM     14  C   UNL     1       8.391  -2.952  25.863  0.00  0.00    +0.225 A 
ATOM     15  N   UNL     1       7.975  -3.821  24.922  0.00  0.00    -0.219 NA
ENDROOT
BRANCH   1  16
ATOM     16  C   UNL     1       6.509  -5.268  23.075  0.00  0.00    +0.130 C 
BRANCH  16  17
ATOM     17  C   UNL     1       5.803  -5.957  21.898  0.00  0.00    +0.174 C 
BRANCH  17  18
ATOM     18  O   UNL     1       5.952  -5.176  20.711  0.00  0.00    -0.393 OA
ATOM     19  H   UNL     1       6.687  -5.570  20.209  0.00  0.00    +0.209 HD
ENDBRANCH  17  18
ENDBRANCH  16  17
ENDBRANCH   1  16
TORSDOF 3
ENDMDL
MODEL 4
REMARK VINA RESULT:      -5.9      2.965      4.509
REMARK  Name = 
REMARK  3 active torsions:
REMARK  status: ('A' for Active; 'I' for Inactive)
REMARK    1  A    between atoms: O_1  and  C_2
REMARK    2  A    between atoms: C_2  and  C_3
REMARK    3  A    between atoms: C_3  and  N_4
REMARK                            x       y       z     vdW  Elec       q    Type
REMARK                         _______ _______ _______ _____ _____    ______ ____
ROOT
ATOM      1  N   UNL     1       9.808   1.227  24.858  0.00  0.00    -0.325 N 
ATOM      2  H   UNL     1       8.951   1.335  25.403  0.00  0.00    +0.148 HD
ATOM      3  C   UNL     1       9.853  -0.050  24.290  0.00  0.00    +0.150 A 
ATOM      4  C   UNL     1       9.122  -1.138  24.813  0.00  0.00    +0.148 A 
ATOM      5  N   UNL     1       8.285  -1.261  25.910  0.00  0.00    -0.223 NA
ATOM      6  C   UNL     1       7.890  -2.521  25.894  0.00  0.00    +0.140 A 
ATOM      7  N   UNL     1       8.410  -3.214  24.805  0.00  0.00    -0.284 N 
ATOM      8  C   UNL     1       8.132  -4.553  24.534  0.00  0.00    +0.095 A 
ATOM      9  C   UNL     1       7.328  -5.237  25.364  0.00  0.00    +0.018 A 
ATOM     10  C   UNL     1       6.778  -4.556  26.527  0.00  0.00    +0.005 A 
ATOM     11  C   UNL     1       7.045  -3.258  26.778  0.00  0.00    +0.047 A 
ATOM     12  C   UNL     1       9.206  -2.334  24.114  0.00  0.00    +0.170 A 
ATOM     13  N   UNL     1       9.911  -2.581  22.995  0.00  0.00    -0.216 NA
ATOM     14  C   UNL     1      10.584  -1.489  22.600  0.00  0.00    +0.225 A 
ATOM     15  N   UNL     1      10.594  -0.268  23.168  0.00  0.00    -0.219 NA
ENDROOT
BRANCH   1  16
ATOM     16  C   UNL     1      10.048   2.335  23.931  0.00  0.00    +0.130 C 
BRANCH  16  17
ATOM     17  C   UNL     1       8.913   2.493  22.910  0.00  0.00    +0.174 C 
BRANCH  17  18
ATOM     18  O   UNL     1       9.392   2.213  21.593  0.00  0.00    -0.393 OA
ATOM     19  H   UNL     1       8.645   2.360  20.988  0.00  0.00    +0.209 HD
ENDBRANCH  17  18
ENDBRANCH  16  17
ENDBRANCH   1  16
TORSDOF 3
ENDMDL
MODEL 5
REMARK VINA RESULT:      -5.8      2.686      4.107
REMARK  Name = 
REMARK  3 active torsions:
REMARK  status: ('A' for Active; 'I' for Inactive)
REMARK    1  A    between atoms: O_1  and  C_2
REMARK    2  A    between atoms: C_2  and  C_3
REMARK    3  A    between atoms: C_3  and  N_4
REMARK                            x       y       z     vdW  Elec       q    Type
REMARK                         _______ _______ _______ _____ _____    ______ ____
ROOT
ATOM      1  N   UNL     1      10.581   1.200  24.371  0.00  0.00    -0.325 N 
ATOM      2  H   UNL     1      10.132   1.188  25.288  0.00  0.00    +0.148 HD
ATOM      3  C   UNL     1      10.093   0.150  23.588  0.00  0.00    +0.150 A 
ATOM      4  C   UNL     1       9.502  -1.003  24.148  0.00  0.00    +0.148 A 
ATOM      5  N   UNL     1       9.287  -1.401  25.457  0.00  0.00    -0.223 NA
ATOM      6  C   UNL     1       8.691  -2.574  25.361  0.00  0.00    +0.140 A 
ATOM      7  N   UNL     1       8.475  -2.939  24.034  0.00  0.00    -0.284 N 
ATOM      8  C   UNL     1       7.840  -4.119  23.648  0.00  0.00    +0.095 A 
ATOM      9  C   UNL     1       7.414  -4.973  24.592  0.00  0.00    +0.018 A 
ATOM     10  C   UNL     1       7.638  -4.641  25.992  0.00  0.00    +0.005 A 
ATOM     11  C   UNL     1       8.246  -3.494  26.357  0.00  0.00    +0.047 A 
ATOM     12  C   UNL     1       9.000  -1.938  23.254  0.00  0.00    +0.170 A 
ATOM     13  N   UNL     1       9.017  -1.879  21.910  0.00  0.00    -0.216 NA
ATOM     14  C   UNL     1       9.620  -0.758  21.486  0.00  0.00    +0.225 A 
ATOM     15  N   UNL     1      10.144   0.236  22.229  0.00  0.00    -0.219 NA
ENDROOT
BRANCH   1  16
ATOM     16  C   UNL     1      10.563   2.519  23.735  0.00  0.00    +0.130 C 
BRANCH  16  17
ATOM     17  C   UNL     1       9.141   3.082  23.607  0.00  0.00    +0.174 C 
BRANCH  17  18
ATOM     18  O   UNL     1       8.731   3.078  22.239  0.00  0.00    -0.393 OA
ATOM     19  H   UNL     1       9.505   2.804  21.718  0.00  0.00    +0.209 HD
ENDBRANCH  17  18
ENDBRANCH  16  17
ENDBRANCH   1  16
TORSDOF 3
ENDMDL
MODEL 6
REMARK VINA RESULT:      -5.7      2.991      4.783
REMARK  Name = 
REMARK  3 active torsions:
REMARK  status: ('A' for Active; 'I' for Inactive)
REMARK    1  A    between atoms: O_1  and  C_2
REMARK    2  A    between atoms: C_2  and  C_3
REMARK    3  A    between atoms: C_3  and  N_4
REMARK                            x       y       z     vdW  Elec       q    Type
REMARK                         _______ _______ _______ _____ _____    ______ ____
ROOT
ATOM      1  N   UNL     1       7.521   0.793  23.816  0.00  0.00    -0.325 N 
ATOM      2  H   UNL     1       6.608   0.763  23.359  0.00  0.00    +0.148 HD
ATOM      3  C   UNL     1       8.166  -0.439  23.673  0.00  0.00    +0.150 A 
ATOM      4  C   UNL     1       7.465  -1.637  23.418  0.00  0.00    +0.148 A 
ATOM      5  N   UNL     1       6.115  -1.920  23.283  0.00  0.00    -0.223 NA
ATOM      6  C   UNL     1       6.063  -3.218  23.050  0.00  0.00    +0.140 A 
ATOM      7  N   UNL     1       7.333  -3.786  22.990  0.00  0.00    -0.284 N 
ATOM      8  C   UNL     1       7.567  -5.136  22.731  0.00  0.00    +0.095 A 
ATOM      9  C   UNL     1       6.523  -5.956  22.536  0.00  0.00    +0.018 A 
ATOM     10  C   UNL     1       5.177  -5.408  22.609  0.00  0.00    +0.005 A 
ATOM     11  C   UNL     1       4.958  -4.099  22.852  0.00  0.00    +0.047 A 
ATOM     12  C   UNL     1       8.233  -2.777  23.233  0.00  0.00    +0.170 A 
ATOM     13  N   UNL     1       9.575  -2.878  23.277  0.00  0.00    -0.216 NA
ATOM     14  C   UNL     1      10.137  -1.690  23.549  0.00  0.00    +0.225 A 
ATOM     15  N   UNL     1       9.525  -0.506  23.743  0.00  0.00    -0.219 NA
ENDROOT
BRANCH   1  16
ATOM     16  C   UNL     1       8.316   1.965  23.444  0.00  0.00    +0.130 C 
BRANCH  16  17
ATOM     17  C   UNL     1       8.419   2.136  21.922  0.00  0.00    +0.174 C 
BRANCH  17  18
ATOM     18  O   UNL     1       9.752   1.867  21.485  0.00  0.00    -0.393 OA
ATOM     19  H   UNL     1      10.225   2.717  21.497  0.00  0.00    +0.209 HD
ENDBRANCH  17  18
ENDBRANCH  16  17
ENDBRANCH   1  16
TORSDOF 3
ENDMDL
MODEL 7
REMARK VINA RESULT:      -5.7      5.088      7.346
REMARK  Name = 
REMARK  3 active torsions:
REMARK  status: ('A' for Active; 'I' for Inactive)
REMARK    1  A    between atoms: O_1  and  C_2
REMARK    2  A    between atoms: C_2  and  C_3
REMARK    3  A    between atoms: C_3  and  N_4
REMARK                            x       y       z     vdW  Elec       q    Type
REMARK                         _______ _______ _______ _____ _____    ______ ____
ROOT
ATOM      1  N   UNL     1       8.449  -2.692  23.794  0.00  0.00    -0.325 N 
ATOM      2  H   UNL     1       8.042  -2.872  22.875  0.00  0.00    +0.148 HD
ATOM      3  C   UNL     1       8.008  -3.653  24.708  0.00  0.00    +0.150 A 
ATOM      4  C   UNL     1       6.820  -4.392  24.517  0.00  0.00    +0.148 A 
ATOM      5  N   UNL     1       5.855  -4.369  23.523  0.00  0.00    -0.223 NA
ATOM      6  C   UNL     1       4.978  -5.288  23.882  0.00  0.00    +0.140 A 
ATOM      7  N   UNL     1       5.357  -5.937  25.055  0.00  0.00    -0.284 N 
ATOM      8  C   UNL     1       4.625  -6.969  25.641  0.00  0.00    +0.095 A 
ATOM      9  C   UNL     1       3.480  -7.369  25.066  0.00  0.00    +0.018 A 
ATOM     10  C   UNL     1       3.036  -6.704  23.850  0.00  0.00    +0.005 A 
ATOM     11  C   UNL     1       3.754  -5.712  23.284  0.00  0.00    +0.047 A 
ATOM     12  C   UNL     1       6.533  -5.360  25.468  0.00  0.00    +0.170 A 
ATOM     13  N   UNL     1       7.253  -5.675  26.561  0.00  0.00    -0.216 NA
ATOM     14  C   UNL     1       8.343  -4.898  26.657  0.00  0.00    +0.225 A 
ATOM     15  N   UNL     1       8.752  -3.931  25.814  0.00  0.00    -0.219 NA
ENDROOT
BRANCH   1  16
ATOM     16  C   UNL     1       9.898  -2.484  23.753  0.00  0.00    +0.130 C 
BRANCH  16  17
ATOM     17  C   UNL     1      10.286  -1.279  22.885  0.00  0.00    +0.174 C 
BRANCH  17  18
ATOM     18  O   UNL     1      10.181  -1.616  21.500  0.00  0.00    -0.393 OA
ATOM     19  H   UNL     1      11.087  -1.770  21.182  0.00  0.00    +0.209 HD
ENDBRANCH  17  18
ENDBRANCH  16  17
ENDBRANCH   1  16
TORSDOF 3
ENDMDL
MODEL 8
REMARK VINA RESULT:      -5.5      3.957      6.370
REMARK  Name = 
REMARK  3 active torsions:
REMARK  status: ('A' for Active; 'I' for Inactive)
REMARK    1  A    between atoms: O_1  and  C_2
REMARK    2  A    between atoms: C_2  and  C_3
REMARK    3  A    between atoms: C_3  and  N_4
REMARK                            x       y       z     vdW  Elec       q    Type
REMARK                         _______ _______ _______ _____ _____    ______ ____
ROOT
ATOM      1  N   UNL     1       8.732  -3.156  26.372  0.00  0.00    -0.325 N 
ATOM      2  H   UNL     1       9.641  -3.184  25.909  0.00  0.00    +0.148 HD
ATOM      3  C   UNL     1       7.857  -2.334  25.656  0.00  0.00    +0.150 A 
ATOM      4  C   UNL     1       8.311  -1.329  24.776  0.00  0.00    +0.148 A 
ATOM      5  N   UNL     1       9.580  -0.893  24.429  0.00  0.00    -0.223 NA
ATOM      6  C   UNL     1       9.378   0.078  23.558  0.00  0.00    +0.140 A 
ATOM      7  N   UNL     1       8.023   0.265  23.294  0.00  0.00    -0.284 N 
ATOM      8  C   UNL     1       7.532   1.207  22.391  0.00  0.00    +0.095 A 
ATOM      9  C   UNL     1       8.396   1.998  21.735  0.00  0.00    +0.018 A 
ATOM     10  C   UNL     1       9.820   1.850  21.995  0.00  0.00    +0.005 A 
ATOM     11  C   UNL     1      10.288   0.931  22.864  0.00  0.00    +0.047 A 
ATOM     12  C   UNL     1       7.336  -0.630  24.079  0.00  0.00    +0.170 A 
ATOM     13  N   UNL     1       6.003  -0.792  24.148  0.00  0.00    -0.216 NA
ATOM     14  C   UNL     1       5.681  -1.753  25.029  0.00  0.00    +0.225 A 
ATOM     15  N   UNL     1       6.511  -2.515  25.767  0.00  0.00    -0.219 NA
ENDROOT
BRANCH   1  16
ATOM     16  C   UNL     1       8.212  -4.483  26.709  0.00  0.00    +0.130 C 
BRANCH  16  17
ATOM     17  C   UNL     1       8.622  -5.544  25.678  0.00  0.00    +0.174 C 
BRANCH  17  18
ATOM     18  O   UNL     1      10.040  -5.717  25.686  0.00  0.00    -0.393 OA
ATOM     19  H   UNL     1      10.289  -6.012  24.793  0.00  0.00    +0.209 HD
ENDBRANCH  17  18
ENDBRANCH  16  17
ENDBRANCH   1  16
TORSDOF 3
ENDMDL
MODEL 9
REMARK VINA RESULT:      -5.5      5.508      8.569
REMARK  Name = 
REMARK  3 active torsions:
REMARK  status: ('A' for Active; 'I' for Inactive)
REMARK    1  A    between atoms: O_1  and  C_2
REMARK    2  A    between atoms: C_2  and  C_3
REMARK    3  A    between atoms: C_3  and  N_4
REMARK                            x       y       z     vdW  Elec       q    Type
REMARK                         _______ _______ _______ _____ _____    ______ ____
ROOT
ATOM      1  N   UNL     1       5.794  -4.965  26.165  0.00  0.00    -0.325 N 
ATOM      2  H   UNL     1       6.386  -4.615  26.920  0.00  0.00    +0.148 HD
ATOM      3  C   UNL     1       6.362  -4.647  24.928  0.00  0.00    +0.150 A 
ATOM      4  C   UNL     1       7.283  -3.590  24.766  0.00  0.00    +0.148 A 
ATOM      5  N   UNL     1       7.803  -2.660  25.651  0.00  0.00    -0.223 NA
ATOM      6  C   UNL     1       8.621  -1.921  24.924  0.00  0.00    +0.140 A 
ATOM      7  N   UNL     1       8.681  -2.361  23.603  0.00  0.00    -0.284 N 
ATOM      8  C   UNL     1       9.487  -1.775  22.628  0.00  0.00    +0.095 A 
ATOM      9  C   UNL     1      10.249  -0.720  22.954  0.00  0.00    +0.018 A 
ATOM     10  C   UNL     1      10.202  -0.215  24.318  0.00  0.00    +0.005 A 
ATOM     11  C   UNL     1       9.425  -0.791  25.259  0.00  0.00    +0.047 A 
ATOM     12  C   UNL     1       7.819  -3.425  23.497  0.00  0.00    +0.170 A 
ATOM     13  N   UNL     1       7.558  -4.152  22.396  0.00  0.00    -0.216 NA
ATOM     14  C   UNL     1       6.655  -5.111  22.656  0.00  0.00    +0.225 A 
ATOM     15  N   UNL     1       6.059  -5.394  23.830  0.00  0.00    -0.219 NA
ENDROOT
BRANCH   1  16
ATOM     16  C   UNL     1       5.407  -6.367  26.337  0.00  0.00    +0.130 C 
BRANCH  16  17
ATOM     17  C   UNL     1       4.768  -6.628  27.708  0.00  0.00    +0.174 C 
BRANCH  17  18
ATOM     18  O   UNL     1       5.518  -7.614  28.420  0.00  0.00    -0.393 OA
ATOM     19  H   UNL     1       6.453  -7.468  28.196  0.00  0.00    +0.209 HD
ENDBRANCH  17  18
ENDBRANCH  16  17
ENDBRANCH   1  16
TORSDOF 3
ENDMDL
