MODEL 1
REMARK VINA RESULT:      -7.1      0.000      0.000
REMARK  Name = 
REMARK  13 active torsions:
REMARK  status: ('A' for Active; 'I' for Inactive)
REMARK    1  A    between atoms: C_2  and  C_3
REMARK    2  A    between atoms: C_2  and  N_8
REMARK    3  A    between atoms: C_2  and  C_32
REMARK    4  A    between atoms: C_3  and  C_4
REMARK    5  A    between atoms: C_4  and  C_5
REMARK    6  A    between atoms: C_5  and  O_6
REMARK    7  A    between atoms: N_8  and  S_9
REMARK    8  A    between atoms: S_9  and  C_12
REMARK    9  A    between atoms: C_19  and  O_20
REMARK   10  A    between atoms: O_20  and  C_21
REMARK   11  A    between atoms: C_21  and  C_22
REMARK   12  A    between atoms: C_25  and  C_28
REMARK   13  A    between atoms: C_32  and  O_33
REMARK                            x       y       z     vdW  Elec       q    Type
REMARK                         _______ _______ _______ _____ _____    ______ ____
ROOT
ATOM      1  C   UNL     1       3.846  -5.426  24.475  0.00  0.00    +0.106 A 
ATOM      2  C   UNL     1       4.624  -6.287  23.699  0.00  0.00    +0.029 A 
ATOM      3  C   UNL     1       5.702  -5.786  22.980  0.00  0.00    +0.010 A 
ATOM      4  C   UNL     1       6.048  -4.437  23.082  0.00  0.00    -0.014 A 
ATOM      5  C   UNL     1       7.189  -3.962  22.435  0.00  0.00    +0.054 A 
ATOM      6  C   UNL     1       7.567  -2.626  22.553  0.00  0.00    +0.122 A 
ATOM      7  C   UNL     1       6.827  -1.764  23.359  0.00  0.00    +0.046 A 
ATOM      8  C   UNL     1       5.674  -2.221  24.002  0.00  0.00    +0.012 A 
ATOM      9  C   UNL     1       5.270  -3.558  23.869  0.00  0.00    -0.016 A 
ATOM     10  C   UNL     1       4.146  -4.060  24.540  0.00  0.00    +0.037 A 
ENDROOT
BRANCH   1  11
ATOM     11  S   UNL     1       2.611  -6.084  25.557  0.00  0.00    +0.059 S 
ATOM     12  O   UNL     1       2.026  -4.988  26.291  0.00  0.00    -0.153 OA
ATOM     13  O   UNL     1       1.798  -7.021  24.822  0.00  0.00    -0.153 OA
BRANCH  11  14
ATOM     14  N   UNL     1       3.432  -7.051  26.657  0.00  0.00    -0.176 NA
ATOM     15  H   UNL     1       3.054  -7.993  26.745  0.00  0.00    +0.149 HD
BRANCH  14  16
ATOM     16  C   UNL     1       4.178  -6.402  27.752  0.00  0.00    +0.185 C 
BRANCH  16  17
ATOM     17  C   UNL     1       3.965  -7.017  29.133  0.00  0.00    +0.324 C 
ATOM     18  O   UNL     1       4.747  -6.870  30.062  0.00  0.00    -0.249 OA
BRANCH  17  19
ATOM     19  O   UNL     1       2.875  -7.813  29.229  0.00  0.00    -0.479 OA
ATOM     20  H   UNL     1       2.843  -8.302  30.072  0.00  0.00    +0.295 HD
ENDBRANCH  17  19
ENDBRANCH  16  17
BRANCH  16  21
ATOM     21  C   UNL     1       5.665  -6.264  27.411  0.00  0.00    +0.043 C 
BRANCH  21  22
ATOM     22  C   UNL     1       6.267  -4.861  27.518  0.00  0.00    +0.122 C 
BRANCH  22  23
ATOM     23  C   UNL     1       7.587  -4.794  26.775  0.00  0.00    +0.305 C 
ATOM     24  O   UNL     1       7.983  -3.829  26.142  0.00  0.00    -0.251 OA
BRANCH  23  25
ATOM     25  O   UNL     1       8.293  -5.942  26.853  0.00  0.00    -0.481 OA
ATOM     26  H   UNL     1       8.352  -6.449  26.023  0.00  0.00    +0.295 HD
ENDBRANCH  23  25
ENDBRANCH  22  23
ENDBRANCH  21  22
ENDBRANCH  16  21
ENDBRANCH  14  16
ENDBRANCH  11  14
ENDBRANCH   1  11
BRANCH   6  27
ATOM     27  O   UNL     1       8.651  -2.081  21.922  0.00  0.00    -0.487 OA
BRANCH  27  28
ATOM     28  C   UNL     1       9.798  -1.912  22.758  0.00  0.00    +0.264 C 
BRANCH  28  29
ATOM     29  C   UNL     1      10.025  -0.438  22.956  0.00  0.00    -0.010 A 
ATOM     30  C   UNL     1      10.510   0.038  24.179  0.00  0.00    +0.008 A 
ATOM     31  C   UNL     1      10.773   1.396  24.344  0.00  0.00    +0.019 A 
ATOM     32  C   UNL     1      10.557   2.288  23.289  0.00  0.00    +0.052 A 
ATOM     33  C   UNL     1      10.050   1.818  22.069  0.00  0.00    +0.019 A 
ATOM     34  C   UNL     1       9.783   0.459  21.905  0.00  0.00    +0.008 A 
BRANCH  32  35
ATOM     35  C   UNL     1      10.873   3.675  23.446  0.00  0.00    +0.099 C 
ATOM     36  N   UNL     1      11.127   4.800  23.576  0.00  0.00    -0.191 NA
ENDBRANCH  32  35
ENDBRANCH  28  29
ENDBRANCH  27  28
ENDBRANCH   6  27
TORSDOF 13
ENDMDL
MODEL 2
REMARK VINA RESULT:      -7.1      1.541      2.045
REMARK  Name = 
REMARK  13 active torsions:
REMARK  status: ('A' for Active; 'I' for Inactive)
REMARK    1  A    between atoms: C_2  and  C_3
REMARK    2  A    between atoms: C_2  and  N_8
REMARK    3  A    between atoms: C_2  and  C_32
REMARK    4  A    between atoms: C_3  and  C_4
REMARK    5  A    between atoms: C_4  and  C_5
REMARK    6  A    between atoms: C_5  and  O_6
REMARK    7  A    between atoms: N_8  and  S_9
REMARK    8  A    between atoms: S_9  and  C_12
REMARK    9  A    between atoms: C_19  and  O_20
REMARK   10  A    between atoms: O_20  and  C_21
REMARK   11  A    between atoms: C_21  and  C_22
REMARK   12  A    between atoms: C_25  and  C_28
REMARK   13  A    between atoms: C_32  and  O_33
REMARK                            x       y       z     vdW  Elec       q    Type
REMARK                         _______ _______ _______ _____ _____    ______ ____
ROOT
ATOM      1  C   UNL     1       3.916  -5.032  23.284  0.00  0.00    +0.106 A 
ATOM      2  C   UNL     1       4.846  -5.891  22.697  0.00  0.00    +0.029 A 
ATOM      3  C   UNL     1       6.187  -5.528  22.645  0.00  0.00    +0.010 A 
ATOM      4  C   UNL     1       6.615  -4.337  23.236  0.00  0.00    -0.014 A 
ATOM      5  C   UNL     1       7.974  -4.026  23.267  0.00  0.00    +0.054 A 
ATOM      6  C   UNL     1       8.421  -2.858  23.881  0.00  0.00    +0.122 A 
ATOM      7  C   UNL     1       7.510  -2.013  24.511  0.00  0.00    +0.046 A 
ATOM      8  C   UNL     1       6.143  -2.303  24.477  0.00  0.00    +0.012 A 
ATOM      9  C   UNL     1       5.680  -3.464  23.839  0.00  0.00    -0.016 A 
ATOM     10  C   UNL     1       4.322  -3.809  23.829  0.00  0.00    +0.037 A 
ENDROOT
BRANCH   1  11
ATOM     11  S   UNL     1       2.253  -5.577  23.547  0.00  0.00    +0.059 S 
ATOM     12  O   UNL     1       1.509  -4.487  24.131  0.00  0.00    -0.153 OA
ATOM     13  O   UNL     1       1.793  -6.258  22.361  0.00  0.00    -0.153 OA
BRANCH  11  14
ATOM     14  N   UNL     1       2.346  -6.801  24.693  0.00  0.00    -0.176 NA
ATOM     15  H   UNL     1       1.673  -7.553  24.554  0.00  0.00    +0.149 HD
BRANCH  14  16
ATOM     16  C   UNL     1       2.900  -6.484  26.024  0.00  0.00    +0.185 C 
BRANCH  16  17
ATOM     17  C   UNL     1       2.008  -6.862  27.202  0.00  0.00    +0.324 C 
ATOM     18  O   UNL     1       0.874  -6.429  27.352  0.00  0.00    -0.249 OA
BRANCH  17  19
ATOM     19  O   UNL     1       2.602  -7.657  28.122  0.00  0.00    -0.479 OA
ATOM     20  H   UNL     1       3.159  -7.155  28.746  0.00  0.00    +0.295 HD
ENDBRANCH  17  19
ENDBRANCH  16  17
BRANCH  16  21
ATOM     21  C   UNL     1       4.321  -7.035  26.183  0.00  0.00    +0.043 C 
BRANCH  21  22
ATOM     22  C   UNL     1       5.402  -6.036  26.605  0.00  0.00    +0.122 C 
BRANCH  22  23
ATOM     23  C   UNL     1       5.810  -6.276  28.045  0.00  0.00    +0.305 C 
ATOM     24  O   UNL     1       6.355  -5.453  28.763  0.00  0.00    -0.251 OA
BRANCH  23  25
ATOM     25  O   UNL     1       5.537  -7.529  28.468  0.00  0.00    -0.481 OA
ATOM     26  H   UNL     1       6.257  -8.174  28.345  0.00  0.00    +0.295 HD
ENDBRANCH  23  25
ENDBRANCH  22  23
ENDBRANCH  21  22
ENDBRANCH  16  21
ENDBRANCH  14  16
ENDBRANCH  11  14
ENDBRANCH   1  11
BRANCH   6  27
ATOM     27  O   UNL     1       9.731  -2.469  23.921  0.00  0.00    -0.487 OA
BRANCH  27  28
ATOM     28  C   UNL     1      10.201  -1.850  22.721  0.00  0.00    +0.264 C 
BRANCH  28  29
ATOM     29  C   UNL     1      10.227  -0.361  22.938  0.00  0.00    -0.010 A 
ATOM     30  C   UNL     1       9.876   0.505  21.897  0.00  0.00    +0.008 A 
ATOM     31  C   UNL     1       9.846   1.881  22.114  0.00  0.00    +0.019 A 
ATOM     32  C   UNL     1      10.164   2.402  23.372  0.00  0.00    +0.052 A 
ATOM     33  C   UNL     1      10.538   1.538  24.412  0.00  0.00    +0.019 A 
ATOM     34  C   UNL     1      10.571   0.162  24.194  0.00  0.00    +0.008 A 
BRANCH  32  35
ATOM     35  C   UNL     1      10.086   3.812  23.606  0.00  0.00    +0.099 C 
ATOM     36  N   UNL     1      10.019   4.955  23.792  0.00  0.00    -0.191 NA
ENDBRANCH  32  35
ENDBRANCH  28  29
ENDBRANCH  27  28
ENDBRANCH   6  27
TORSDOF 13
ENDMDL
MODEL 3
REMARK VINA RESULT:      -7.0      1.791      3.287
REMARK  Name = 
REMARK  13 active torsions:
REMARK  status: ('A' for Active; 'I' for Inactive)
REMARK    1  A    between atoms: C_2  and  C_3
REMARK    2  A    between atoms: C_2  and  N_8
REMARK    3  A    between atoms: C_2  and  C_32
REMARK    4  A    between atoms: C_3  and  C_4
REMARK    5  A    between atoms: C_4  and  C_5
REMARK    6  A    between atoms: C_5  and  O_6
REMARK    7  A    between atoms: N_8  and  S_9
REMARK    8  A    between atoms: S_9  and  C_12
REMARK    9  A    between atoms: C_19  and  O_20
REMARK   10  A    between atoms: O_20  and  C_21
REMARK   11  A    between atoms: C_21  and  C_22
REMARK   12  A    between atoms: C_25  and  C_28
REMARK   13  A    between atoms: C_32  and  O_33
REMARK                            x       y       z     vdW  Elec       q    Type
REMARK                         _______ _______ _______ _____ _____    ______ ____
ROOT
ATOM      1  C   UNL     1       6.576  -5.412  26.867  0.00  0.00    +0.106 A 
ATOM      2  C   UNL     1       7.967  -5.375  26.968  0.00  0.00    +0.029 A 
ATOM      3  C   UNL     1       8.716  -4.753  25.975  0.00  0.00    +0.010 A 
ATOM      4  C   UNL     1       8.078  -4.110  24.913  0.00  0.00    -0.014 A 
ATOM      5  C   UNL     1       8.831  -3.405  23.975  0.00  0.00    +0.054 A 
ATOM      6  C   UNL     1       8.207  -2.730  22.927  0.00  0.00    +0.122 A 
ATOM      7  C   UNL     1       6.817  -2.719  22.838  0.00  0.00    +0.046 A 
ATOM      8  C   UNL     1       6.049  -3.433  23.762  0.00  0.00    +0.012 A 
ATOM      9  C   UNL     1       6.668  -4.137  24.806  0.00  0.00    -0.016 A 
ATOM     10  C   UNL     1       5.926  -4.821  25.777  0.00  0.00    +0.037 A 
ENDROOT
BRANCH   1  11
ATOM     11  S   UNL     1       5.607  -6.007  28.223  0.00  0.00    +0.059 S 
ATOM     12  O   UNL     1       5.686  -7.448  28.234  0.00  0.00    -0.153 OA
ATOM     13  O   UNL     1       5.914  -5.223  29.394  0.00  0.00    -0.153 OA
BRANCH  11  14
ATOM     14  N   UNL     1       4.019  -5.588  27.872  0.00  0.00    -0.176 NA
ATOM     15  H   UNL     1       3.725  -4.700  28.277  0.00  0.00    +0.149 HD
BRANCH  14  16
ATOM     16  C   UNL     1       3.057  -6.660  27.555  0.00  0.00    +0.185 C 
BRANCH  16  17
ATOM     17  C   UNL     1       2.299  -7.224  28.754  0.00  0.00    +0.324 C 
ATOM     18  O   UNL     1       1.137  -6.941  29.007  0.00  0.00    -0.249 OA
BRANCH  17  19
ATOM     19  O   UNL     1       3.043  -8.006  29.569  0.00  0.00    -0.479 OA
ATOM     20  H   UNL     1       3.525  -7.491  30.243  0.00  0.00    +0.295 HD
ENDBRANCH  17  19
ENDBRANCH  16  17
BRANCH  16  21
ATOM     21  C   UNL     1       2.110  -6.245  26.424  0.00  0.00    +0.043 C 
BRANCH  21  22
ATOM     22  C   UNL     1       2.705  -6.196  25.014  0.00  0.00    +0.122 C 
BRANCH  22  23
ATOM     23  C   UNL     1       3.218  -7.564  24.609  0.00  0.00    +0.305 C 
ATOM     24  O   UNL     1       2.607  -8.610  24.753  0.00  0.00    -0.251 OA
BRANCH  23  25
ATOM     25  O   UNL     1       4.463  -7.525  24.086  0.00  0.00    -0.481 OA
ATOM     26  H   UNL     1       4.503  -7.410  23.120  0.00  0.00    +0.295 HD
ENDBRANCH  23  25
ENDBRANCH  22  23
ENDBRANCH  21  22
ENDBRANCH  16  21
ENDBRANCH  14  16
ENDBRANCH  11  14
ENDBRANCH   1  11
BRANCH   6  27
ATOM     27  O   UNL     1       8.880  -2.047  21.951  0.00  0.00    -0.487 OA
BRANCH  27  28
ATOM     28  C   UNL     1      10.193  -1.624  22.323  0.00  0.00    +0.264 C 
BRANCH  28  29
ATOM     29  C   UNL     1      10.132  -0.167  22.694  0.00  0.00    -0.010 A 
ATOM     30  C   UNL     1       9.701   0.777  21.755  0.00  0.00    +0.008 A 
ATOM     31  C   UNL     1       9.591   2.118  22.115  0.00  0.00    +0.019 A 
ATOM     32  C   UNL     1       9.909   2.526  23.414  0.00  0.00    +0.052 A 
ATOM     33  C   UNL     1      10.363   1.587  24.350  0.00  0.00    +0.019 A 
ATOM     34  C   UNL     1      10.476   0.245  23.989  0.00  0.00    +0.008 A 
BRANCH  32  35
ATOM     35  C   UNL     1       9.750   3.897  23.794  0.00  0.00    +0.099 C 
ATOM     36  N   UNL     1       9.624   5.008  24.105  0.00  0.00    -0.191 NA
ENDBRANCH  32  35
ENDBRANCH  28  29
ENDBRANCH  27  28
ENDBRANCH   6  27
TORSDOF 13
ENDMDL
MODEL 4
REMARK VINA RESULT:      -7.0      3.538      5.789
REMARK  Name = 
REMARK  13 active torsions:
REMARK  status: ('A' for Active; 'I' for Inactive)
REMARK    1  A    between atoms: C_2  and  C_3
REMARK    2  A    between atoms: C_2  and  N_8
REMARK    3  A    between atoms: C_2  and  C_32
REMARK    4  A    between atoms: C_3  and  C_4
REMARK    5  A    between atoms: C_4  and  C_5
REMARK    6  A    between atoms: C_5  and  O_6
REMARK    7  A    between atoms: N_8  and  S_9
REMARK    8  A    between atoms: S_9  and  C_12
REMARK    9  A    between atoms: C_19  and  O_20
REMARK   10  A    between atoms: O_20  and  C_21
REMARK   11  A    between atoms: C_21  and  C_22
REMARK   12  A    between atoms: C_25  and  C_28
REMARK   13  A    between atoms: C_32  and  O_33
REMARK                            x       y       z     vdW  Elec       q    Type
REMARK                         _______ _______ _______ _____ _____    ______ ____
ROOT
ATOM      1  C   UNL     1       8.753  -3.553  25.186  0.00  0.00    +0.106 A 
ATOM      2  C   UNL     1       8.376  -2.816  26.309  0.00  0.00    +0.029 A 
ATOM      3  C   UNL     1       8.662  -1.458  26.374  0.00  0.00    +0.010 A 
ATOM      4  C   UNL     1       9.267  -0.816  25.292  0.00  0.00    -0.014 A 
ATOM      5  C   UNL     1       9.462   0.564  25.323  0.00  0.00    +0.054 A 
ATOM      6  C   UNL     1      10.036   1.225  24.238  0.00  0.00    +0.122 A 
ATOM      7  C   UNL     1      10.377   0.511  23.092  0.00  0.00    +0.046 A 
ATOM      8  C   UNL     1      10.201  -0.874  23.050  0.00  0.00    +0.012 A 
ATOM      9  C   UNL     1       9.648  -1.553  24.147  0.00  0.00    -0.016 A 
ATOM     10  C   UNL     1       9.414  -2.934  24.118  0.00  0.00    +0.037 A 
ENDROOT
BRANCH   1  11
ATOM     11  S   UNL     1       8.206  -5.226  25.001  0.00  0.00    +0.059 S 
ATOM     12  O   UNL     1       9.091  -5.889  24.074  0.00  0.00    -0.153 OA
ATOM     13  O   UNL     1       7.930  -5.772  26.307  0.00  0.00    -0.153 OA
BRANCH  11  14
ATOM     14  N   UNL     1       6.691  -5.136  24.282  0.00  0.00    -0.176 NA
ATOM     15  H   UNL     1       6.031  -5.837  24.616  0.00  0.00    +0.149 HD
BRANCH  14  16
ATOM     16  C   UNL     1       6.578  -4.532  22.941  0.00  0.00    +0.185 C 
BRANCH  16  17
ATOM     17  C   UNL     1       6.256  -5.511  21.815  0.00  0.00    +0.324 C 
ATOM     18  O   UNL     1       5.996  -5.161  20.673  0.00  0.00    -0.249 OA
BRANCH  17  19
ATOM     19  O   UNL     1       6.200  -6.808  22.201  0.00  0.00    -0.479 OA
ATOM     20  H   UNL     1       5.392  -7.256  21.887  0.00  0.00    +0.295 HD
ENDBRANCH  17  19
ENDBRANCH  16  17
BRANCH  16  21
ATOM     21  C   UNL     1       5.624  -3.334  22.946  0.00  0.00    +0.043 C 
BRANCH  21  22
ATOM     22  C   UNL     1       5.410  -2.633  24.290  0.00  0.00    +0.122 C 
BRANCH  22  23
ATOM     23  C   UNL     1       5.758  -1.161  24.180  0.00  0.00    +0.305 C 
ATOM     24  O   UNL     1       5.430  -0.304  24.983  0.00  0.00    -0.251 OA
BRANCH  23  25
ATOM     25  O   UNL     1       6.460  -0.869  23.064  0.00  0.00    -0.481 OA
ATOM     26  H   UNL     1       7.324  -0.446  23.217  0.00  0.00    +0.295 HD
ENDBRANCH  23  25
ENDBRANCH  22  23
ENDBRANCH  21  22
ENDBRANCH  16  21
ENDBRANCH  14  16
ENDBRANCH  11  14
ENDBRANCH   1  11
BRANCH   6  27
ATOM     27  O   UNL     1      10.289   2.569  24.210  0.00  0.00    -0.487 OA
BRANCH  27  28
ATOM     28  C   UNL     1       9.633   3.272  23.152  0.00  0.00    +0.264 C 
BRANCH  28  29
ATOM     29  C   UNL     1       8.148   3.149  23.355  0.00  0.00    -0.010 A 
ATOM     30  C   UNL     1       7.563   3.599  24.544  0.00  0.00    +0.008 A 
ATOM     31  C   UNL     1       6.181   3.537  24.710  0.00  0.00    +0.019 A 
ATOM     32  C   UNL     1       5.373   3.028  23.688  0.00  0.00    +0.052 A 
ATOM     33  C   UNL     1       5.957   2.556  22.504  0.00  0.00    +0.019 A 
ATOM     34  C   UNL     1       7.340   2.615  22.340  0.00  0.00    +0.008 A 
BRANCH  32  35
ATOM     35  C   UNL     1       3.950   3.010  23.841  0.00  0.00    +0.099 C 
ATOM     36  N   UNL     1       2.796   2.991  23.965  0.00  0.00    -0.191 NA
ENDBRANCH  32  35
ENDBRANCH  28  29
ENDBRANCH  27  28
ENDBRANCH   6  27
TORSDOF 13
ENDMDL
MODEL 5
REMARK VINA RESULT:      -7.0      4.363      9.588
REMARK  Name = 
REMARK  13 active torsions:
REMARK  status: ('A' for Active; 'I' for Inactive)
REMARK    1  A    between atoms: C_2  and  C_3
REMARK    2  A    between atoms: C_2  and  N_8
REMARK    3  A    between atoms: C_2  and  C_32
REMARK    4  A    between atoms: C_3  and  C_4
REMARK    5  A    between atoms: C_4  and  C_5
REMARK    6  A    between atoms: C_5  and  O_6
REMARK    7  A    between atoms: N_8  and  S_9
REMARK    8  A    between atoms: S_9  and  C_12
REMARK    9  A    between atoms: C_19  and  O_20
REMARK   10  A    between atoms: O_20  and  C_21
REMARK   11  A    between atoms: C_21  and  C_22
REMARK   12  A    between atoms: C_25  and  C_28
REMARK   13  A    between atoms: C_32  and  O_33
REMARK                            x       y       z     vdW  Elec       q    Type
REMARK                         _______ _______ _______ _____ _____    ______ ____
ROOT
ATOM      1  C   UNL     1       9.793   2.371  23.659  0.00  0.00    +0.106 A 
ATOM      2  C   UNL     1      10.133   1.843  22.413  0.00  0.00    +0.029 A 
ATOM      3  C   UNL     1      10.194   0.466  22.238  0.00  0.00    +0.010 A 
ATOM      4  C   UNL     1       9.852  -0.390  23.287  0.00  0.00    -0.014 A 
ATOM      5  C   UNL     1       9.820  -1.768  23.077  0.00  0.00    +0.054 A 
ATOM      6  C   UNL     1       9.450  -2.635  24.103  0.00  0.00    +0.122 A 
ATOM      7  C   UNL     1       9.064  -2.121  25.339  0.00  0.00    +0.046 A 
ATOM      8  C   UNL     1       9.104  -0.744  25.571  0.00  0.00    +0.012 A 
ATOM      9  C   UNL     1       9.500   0.135  24.552  0.00  0.00    -0.016 A 
ATOM     10  C   UNL     1       9.505   1.524  24.736  0.00  0.00    +0.037 A 
ENDROOT
BRANCH   1  11
ATOM     11  S   UNL     1       9.505   4.108  23.834  0.00  0.00    +0.059 S 
ATOM     12  O   UNL     1       8.844   4.330  25.098  0.00  0.00    -0.153 OA
ATOM     13  O   UNL     1      10.707   4.819  23.474  0.00  0.00    -0.153 OA
BRANCH  11  14
ATOM     14  N   UNL     1       8.423   4.519  22.617  0.00  0.00    -0.176 NA
ATOM     15  H   UNL     1       8.722   5.308  22.045  0.00  0.00    +0.149 HD
BRANCH  14  16
ATOM     16  C   UNL     1       7.000   4.171  22.787  0.00  0.00    +0.185 C 
BRANCH  16  17
ATOM     17  C   UNL     1       6.023   5.326  22.587  0.00  0.00    +0.324 C 
ATOM     18  O   UNL     1       4.866   5.305  22.982  0.00  0.00    -0.249 OA
BRANCH  17  19
ATOM     19  O   UNL     1       6.516   6.356  21.859  0.00  0.00    -0.479 OA
ATOM     20  H   UNL     1       7.370   6.680  22.200  0.00  0.00    +0.295 HD
ENDBRANCH  17  19
ENDBRANCH  16  17
BRANCH  16  21
ATOM     21  C   UNL     1       6.619   2.949  21.945  0.00  0.00    +0.043 C 
BRANCH  21  22
ATOM     22  C   UNL     1       6.439   1.627  22.696  0.00  0.00    +0.122 C 
BRANCH  22  23
ATOM     23  C   UNL     1       5.649   1.847  23.970  0.00  0.00    +0.305 C 
ATOM     24  O   UNL     1       6.080   1.674  25.098  0.00  0.00    -0.251 OA
BRANCH  23  25
ATOM     25  O   UNL     1       4.376   2.233  23.740  0.00  0.00    -0.481 OA
ATOM     26  H   UNL     1       3.989   2.812  24.421  0.00  0.00    +0.295 HD
ENDBRANCH  23  25
ENDBRANCH  22  23
ENDBRANCH  21  22
ENDBRANCH  16  21
ENDBRANCH  14  16
ENDBRANCH  11  14
ENDBRANCH   1  11
BRANCH   6  27
ATOM     27  O   UNL     1       9.428  -3.997  23.982  0.00  0.00    -0.487 OA
BRANCH  27  28
ATOM     28  C   UNL     1       8.688  -4.669  25.004  0.00  0.00    +0.264 C 
BRANCH  28  29
ATOM     29  C   UNL     1       7.312  -4.966  24.472  0.00  0.00    -0.010 A 
ATOM     30  C   UNL     1       7.127  -5.217  23.108  0.00  0.00    +0.008 A 
ATOM     31  C   UNL     1       5.863  -5.547  22.624  0.00  0.00    +0.019 A 
ATOM     32  C   UNL     1       4.775  -5.630  23.499  0.00  0.00    +0.052 A 
ATOM     33  C   UNL     1       4.952  -5.357  24.863  0.00  0.00    +0.019 A 
ATOM     34  C   UNL     1       6.216  -5.024  25.346  0.00  0.00    +0.008 A 
BRANCH  32  35
ATOM     35  C   UNL     1       3.487  -6.016  23.007  0.00  0.00    +0.099 C 
ATOM     36  N   UNL     1       2.444  -6.333  22.610  0.00  0.00    -0.191 NA
ENDBRANCH  32  35
ENDBRANCH  28  29
ENDBRANCH  27  28
ENDBRANCH   6  27
TORSDOF 13
ENDMDL
MODEL 6
REMARK VINA RESULT:      -6.8      2.581      4.479
REMARK  Name = 
REMARK  13 active torsions:
REMARK  status: ('A' for Active; 'I' for Inactive)
REMARK    1  A    between atoms: C_2  and  C_3
REMARK    2  A    between atoms: C_2  and  N_8
REMARK    3  A    between atoms: C_2  and  C_32
REMARK    4  A    between atoms: C_3  and  C_4
REMARK    5  A    between atoms: C_4  and  C_5
REMARK    6  A    between atoms: C_5  and  O_6
REMARK    7  A    between atoms: N_8  and  S_9
REMARK    8  A    between atoms: S_9  and  C_12
REMARK    9  A    between atoms: C_19  and  O_20
REMARK   10  A    between atoms: O_20  and  C_21
REMARK   11  A    between atoms: C_21  and  C_22
REMARK   12  A    between atoms: C_25  and  C_28
REMARK   13  A    between atoms: C_32  and  O_33
REMARK                            x       y       z     vdW  Elec       q    Type
REMARK                         _______ _______ _______ _____ _____    ______ ____
ROOT
ATOM      1  C   UNL     1       7.324  -3.665  22.861  0.00  0.00    +0.106 A 
ATOM      2  C   UNL     1       8.264  -3.810  23.882  0.00  0.00    +0.029 A 
ATOM      3  C   UNL     1       8.688  -2.696  24.596  0.00  0.00    +0.010 A 
ATOM      4  C   UNL     1       8.128  -1.443  24.338  0.00  0.00    -0.014 A 
ATOM      5  C   UNL     1       8.486  -0.347  25.123  0.00  0.00    +0.054 A 
ATOM      6  C   UNL     1       7.913   0.903  24.901  0.00  0.00    +0.122 A 
ATOM      7  C   UNL     1       6.940   1.055  23.916  0.00  0.00    +0.046 A 
ATOM      8  C   UNL     1       6.581  -0.030  23.111  0.00  0.00    +0.012 A 
ATOM      9  C   UNL     1       7.171  -1.287  23.310  0.00  0.00    -0.016 A 
ATOM     10  C   UNL     1       6.798  -2.405  22.553  0.00  0.00    +0.037 A 
ENDROOT
BRANCH   1  11
ATOM     11  S   UNL     1       6.622  -5.098  22.096  0.00  0.00    +0.059 S 
ATOM     12  O   UNL     1       5.667  -4.658  21.107  0.00  0.00    -0.153 OA
ATOM     13  O   UNL     1       7.683  -6.017  21.766  0.00  0.00    -0.153 OA
BRANCH  11  14
ATOM     14  N   UNL     1       5.770  -5.893  23.305  0.00  0.00    -0.176 NA
ATOM     15  H   UNL     1       5.998  -6.883  23.391  0.00  0.00    +0.149 HD
BRANCH  14  16
ATOM     16  C   UNL     1       4.464  -5.352  23.725  0.00  0.00    +0.185 C 
BRANCH  16  17
ATOM     17  C   UNL     1       3.253  -6.169  23.282  0.00  0.00    +0.324 C 
ATOM     18  O   UNL     1       2.264  -5.675  22.759  0.00  0.00    -0.249 OA
BRANCH  17  19
ATOM     19  O   UNL     1       3.324  -7.485  23.588  0.00  0.00    -0.479 OA
ATOM     20  H   UNL     1       3.924  -7.663  24.336  0.00  0.00    +0.295 HD
ENDBRANCH  17  19
ENDBRANCH  16  17
BRANCH  16  21
ATOM     21  C   UNL     1       4.437  -5.060  25.229  0.00  0.00    +0.043 C 
BRANCH  21  22
ATOM     22  C   UNL     1       5.574  -5.656  26.064  0.00  0.00    +0.122 C 
BRANCH  22  23
ATOM     23  C   UNL     1       5.052  -6.770  26.949  0.00  0.00    +0.305 C 
ATOM     24  O   UNL     1       5.589  -7.157  27.974  0.00  0.00    -0.251 OA
BRANCH  23  25
ATOM     25  O   UNL     1       3.922  -7.335  26.473  0.00  0.00    -0.481 OA
ATOM     26  H   UNL     1       3.961  -7.618  25.542  0.00  0.00    +0.295 HD
ENDBRANCH  23  25
ENDBRANCH  22  23
ENDBRANCH  21  22
ENDBRANCH  16  21
ENDBRANCH  14  16
ENDBRANCH  11  14
ENDBRANCH   1  11
BRANCH   6  27
ATOM     27  O   UNL     1       8.238   2.029  25.606  0.00  0.00    -0.487 OA
BRANCH  27  28
ATOM     28  C   UNL     1       7.929   3.254  24.938  0.00  0.00    +0.264 C 
BRANCH  28  29
ATOM     29  C   UNL     1       9.193   3.784  24.316  0.00  0.00    -0.010 A 
ATOM     30  C   UNL     1       9.453   5.159  24.319  0.00  0.00    +0.008 A 
ATOM     31  C   UNL     1      10.648   5.644  23.793  0.00  0.00    +0.019 A 
ATOM     32  C   UNL     1      11.593   4.760  23.262  0.00  0.00    +0.052 A 
ATOM     33  C   UNL     1      11.327   3.384  23.238  0.00  0.00    +0.019 A 
ATOM     34  C   UNL     1      10.129   2.899  23.761  0.00  0.00    +0.008 A 
BRANCH  32  35
ATOM     35  C   UNL     1      12.841   5.258  22.766  0.00  0.00    +0.099 C 
ATOM     36  N   UNL     1      13.854   5.660  22.369  0.00  0.00    -0.191 NA
ENDBRANCH  32  35
ENDBRANCH  28  29
ENDBRANCH  27  28
ENDBRANCH   6  27
TORSDOF 13
ENDMDL
MODEL 7
REMARK VINA RESULT:      -6.7      2.702      4.713
REMARK  Name = 
REMARK  13 active torsions:
REMARK  status: ('A' for Active; 'I' for Inactive)
REMARK    1  A    between atoms: C_2  and  C_3
REMARK    2  A    between atoms: C_2  and  N_8
REMARK    3  A    between atoms: C_2  and  C_32
REMARK    4  A    between atoms: C_3  and  C_4
REMARK    5  A    between atoms: C_4  and  C_5
REMARK    6  A    between atoms: C_5  and  O_6
REMARK    7  A    between atoms: N_8  and  S_9
REMARK    8  A    between atoms: S_9  and  C_12
REMARK    9  A    between atoms: C_19  and  O_20
REMARK   10  A    between atoms: O_20  and  C_21
REMARK   11  A    between atoms: C_21  and  C_22
REMARK   12  A    between atoms: C_25  and  C_28
REMARK   13  A    between atoms: C_32  and  O_33
REMARK                            x       y       z     vdW  Elec       q    Type
REMARK                         _______ _______ _______ _____ _____    ______ ____
ROOT
ATOM      1  C   UNL     1       7.475  -3.418  26.296  0.00  0.00    +0.106 A 
ATOM      2  C   UNL     1       6.878  -2.199  26.621  0.00  0.00    +0.029 A 
ATOM      3  C   UNL     1       7.341  -1.024  26.039  0.00  0.00    +0.010 A 
ATOM      4  C   UNL     1       8.357  -1.069  25.083  0.00  0.00    -0.014 A 
ATOM      5  C   UNL     1       8.750   0.100  24.431  0.00  0.00    +0.054 A 
ATOM      6  C   UNL     1       9.740   0.068  23.451  0.00  0.00    +0.122 A 
ATOM      7  C   UNL     1      10.314  -1.147  23.084  0.00  0.00    +0.046 A 
ATOM      8  C   UNL     1       9.942  -2.324  23.737  0.00  0.00    +0.012 A 
ATOM      9  C   UNL     1       8.964  -2.300  24.743  0.00  0.00    -0.016 A 
ATOM     10  C   UNL     1       8.534  -3.469  25.383  0.00  0.00    +0.037 A 
ENDROOT
BRANCH   1  11
ATOM     11  S   UNL     1       6.757  -4.932  26.863  0.00  0.00    +0.059 S 
ATOM     12  O   UNL     1       7.565  -6.023  26.376  0.00  0.00    -0.153 OA
ATOM     13  O   UNL     1       6.429  -4.798  28.261  0.00  0.00    -0.153 OA
BRANCH  11  14
ATOM     14  N   UNL     1       5.257  -5.038  26.114  0.00  0.00    -0.176 NA
ATOM     15  H   UNL     1       4.509  -5.362  26.726  0.00  0.00    +0.149 HD
BRANCH  14  16
ATOM     16  C   UNL     1       5.207  -5.223  24.651  0.00  0.00    +0.185 C 
BRANCH  16  17
ATOM     17  C   UNL     1       4.497  -6.491  24.184  0.00  0.00    +0.324 C 
ATOM     18  O   UNL     1       4.401  -7.499  24.869  0.00  0.00    -0.249 OA
BRANCH  17  19
ATOM     19  O   UNL     1       4.046  -6.442  22.909  0.00  0.00    -0.479 OA
ATOM     20  H   UNL     1       3.300  -7.051  22.752  0.00  0.00    +0.295 HD
ENDBRANCH  17  19
ENDBRANCH  16  17
BRANCH  16  21
ATOM     21  C   UNL     1       4.668  -3.974  23.947  0.00  0.00    +0.043 C 
BRANCH  21  22
ATOM     22  C   UNL     1       5.652  -3.209  23.058  0.00  0.00    +0.122 C 
BRANCH  22  23
ATOM     23  C   UNL     1       6.253  -4.134  22.018  0.00  0.00    +0.305 C 
ATOM     24  O   UNL     1       5.642  -4.626  21.084  0.00  0.00    -0.251 OA
BRANCH  23  25
ATOM     25  O   UNL     1       7.559  -4.399  22.241  0.00  0.00    -0.481 OA
ATOM     26  H   UNL     1       8.025  -3.745  22.793  0.00  0.00    +0.295 HD
ENDBRANCH  23  25
ENDBRANCH  22  23
ENDBRANCH  21  22
ENDBRANCH  16  21
ENDBRANCH  14  16
ENDBRANCH  11  14
ENDBRANCH   1  11
BRANCH   6  27
ATOM     27  O   UNL     1      10.201   1.176  22.795  0.00  0.00    -0.487 OA
BRANCH  27  28
ATOM     28  C   UNL     1      10.437   2.307  23.637  0.00  0.00    +0.264 C 
BRANCH  28  29
ATOM     29  C   UNL     1       9.371   3.332  23.360  0.00  0.00    -0.010 A 
ATOM     30  C   UNL     1       9.459   4.606  23.932  0.00  0.00    +0.008 A 
ATOM     31  C   UNL     1       8.502   5.574  23.631  0.00  0.00    +0.019 A 
ATOM     32  C   UNL     1       7.453   5.276  22.756  0.00  0.00    +0.052 A 
ATOM     33  C   UNL     1       7.349   3.994  22.199  0.00  0.00    +0.019 A 
ATOM     34  C   UNL     1       8.304   3.025  22.503  0.00  0.00    +0.008 A 
BRANCH  32  35
ATOM     35  C   UNL     1       6.498   6.286  22.412  0.00  0.00    +0.099 C 
ATOM     36  N   UNL     1       5.726   7.108  22.136  0.00  0.00    -0.191 NA
ENDBRANCH  32  35
ENDBRANCH  28  29
ENDBRANCH  27  28
ENDBRANCH   6  27
TORSDOF 13
ENDMDL
MODEL 8
REMARK VINA RESULT:      -6.7      2.157      3.756
REMARK  Name = 
REMARK  13 active torsions:
REMARK  status: ('A' for Active; 'I' for Inactive)
REMARK    1  A    between atoms: C_2  and  C_3
REMARK    2  A    between atoms: C_2  and  N_8
REMARK    3  A    between atoms: C_2  and  C_32
REMARK    4  A    between atoms: C_3  and  C_4
REMARK    5  A    between atoms: C_4  and  C_5
REMARK    6  A    between atoms: C_5  and  O_6
REMARK    7  A    between atoms: N_8  and  S_9
REMARK    8  A    between atoms: S_9  and  C_12
REMARK    9  A    between atoms: C_19  and  O_20
REMARK   10  A    between atoms: O_20  and  C_21
REMARK   11  A    between atoms: C_21  and  C_22
REMARK   12  A    between atoms: C_25  and  C_28
REMARK   13  A    between atoms: C_32  and  O_33
REMARK                            x       y       z     vdW  Elec       q    Type
REMARK                         _______ _______ _______ _____ _____    ______ ____
ROOT
ATOM      1  C   UNL     1       5.663  -4.358  26.140  0.00  0.00    +0.106 A 
ATOM      2  C   UNL     1       5.046  -3.231  25.596  0.00  0.00    +0.029 A 
ATOM      3  C   UNL     1       5.797  -2.309  24.877  0.00  0.00    +0.010 A 
ATOM      4  C   UNL     1       7.154  -2.541  24.642  0.00  0.00    -0.014 A 
ATOM      5  C   UNL     1       7.880  -1.663  23.838  0.00  0.00    +0.054 A 
ATOM      6  C   UNL     1       9.227  -1.896  23.567  0.00  0.00    +0.122 A 
ATOM      7  C   UNL     1       9.846  -3.040  24.065  0.00  0.00    +0.046 A 
ATOM      8  C   UNL     1       9.137  -3.922  24.884  0.00  0.00    +0.012 A 
ATOM      9  C   UNL     1       7.788  -3.683  25.184  0.00  0.00    -0.016 A 
ATOM     10  C   UNL     1       7.035  -4.573  25.962  0.00  0.00    +0.037 A 
ENDROOT
BRANCH   1  11
ATOM     11  S   UNL     1       4.683  -5.639  26.868  0.00  0.00    +0.059 S 
ATOM     12  O   UNL     1       5.499  -6.824  26.977  0.00  0.00    -0.153 OA
ATOM     13  O   UNL     1       3.979  -5.097  28.004  0.00  0.00    -0.153 OA
BRANCH  11  14
ATOM     14  N   UNL     1       3.460  -5.964  25.763  0.00  0.00    -0.176 NA
ATOM     15  H   UNL     1       2.520  -5.862  26.143  0.00  0.00    +0.149 HD
BRANCH  14  16
ATOM     16  C   UNL     1       3.752  -6.859  24.626  0.00  0.00    +0.185 C 
BRANCH  16  17
ATOM     17  C   UNL     1       2.695  -7.926  24.355  0.00  0.00    +0.324 C 
ATOM     18  O   UNL     1       1.844  -7.822  23.484  0.00  0.00    -0.249 OA
BRANCH  17  19
ATOM     19  O   UNL     1       2.722  -8.971  25.215  0.00  0.00    -0.479 OA
ATOM     20  H   UNL     1       2.065  -9.656  24.990  0.00  0.00    +0.295 HD
ENDBRANCH  17  19
ENDBRANCH  16  17
BRANCH  16  21
ATOM     21  C   UNL     1       4.097  -6.062  23.364  0.00  0.00    +0.043 C 
BRANCH  21  22
ATOM     22  C   UNL     1       5.552  -6.124  22.890  0.00  0.00    +0.122 C 
BRANCH  22  23
ATOM     23  C   UNL     1       5.923  -4.850  22.157  0.00  0.00    +0.305 C 
ATOM     24  O   UNL     1       5.135  -3.977  21.831  0.00  0.00    -0.251 OA
BRANCH  23  25
ATOM     25  O   UNL     1       7.239  -4.777  21.861  0.00  0.00    -0.481 OA
ATOM     26  H   UNL     1       7.475  -4.117  21.185  0.00  0.00    +0.295 HD
ENDBRANCH  23  25
ENDBRANCH  22  23
ENDBRANCH  21  22
ENDBRANCH  16  21
ENDBRANCH  14  16
ENDBRANCH  11  14
ENDBRANCH   1  11
BRANCH   6  27
ATOM     27  O   UNL     1      10.010  -1.063  22.817  0.00  0.00    -0.487 OA
BRANCH  27  28
ATOM     28  C   UNL     1      10.583   0.025  23.546  0.00  0.00    +0.264 C 
BRANCH  28  29
ATOM     29  C   UNL     1       9.751   1.252  23.291  0.00  0.00    -0.010 A 
ATOM     30  C   UNL     1       9.105   1.419  22.061  0.00  0.00    +0.008 A 
ATOM     31  C   UNL     1       8.289   2.528  21.845  0.00  0.00    +0.019 A 
ATOM     32  C   UNL     1       8.111   3.477  22.857  0.00  0.00    +0.052 A 
ATOM     33  C   UNL     1       8.775   3.325  24.083  0.00  0.00    +0.019 A 
ATOM     34  C   UNL     1       9.593   2.217  24.297  0.00  0.00    +0.008 A 
BRANCH  32  35
ATOM     35  C   UNL     1       7.235   4.590  22.649  0.00  0.00    +0.099 C 
ATOM     36  N   UNL     1       6.529   5.495  22.481  0.00  0.00    -0.191 NA
ENDBRANCH  32  35
ENDBRANCH  28  29
ENDBRANCH  27  28
ENDBRANCH   6  27
TORSDOF 13
ENDMDL
MODEL 9
REMARK VINA RESULT:      -6.6      3.005      4.730
REMARK  Name = 
REMARK  13 active torsions:
REMARK  status: ('A' for Active; 'I' for Inactive)
REMARK    1  A    between atoms: C_2  and  C_3
REMARK    2  A    between atoms: C_2  and  N_8
REMARK    3  A    between atoms: C_2  and  C_32
REMARK    4  A    between atoms: C_3  and  C_4
REMARK    5  A    between atoms: C_4  and  C_5
REMARK    6  A    between atoms: C_5  and  O_6
REMARK    7  A    between atoms: N_8  and  S_9
REMARK    8  A    between atoms: S_9  and  C_12
REMARK    9  A    between atoms: C_19  and  O_20
REMARK   10  A    between atoms: O_20  and  C_21
REMARK   11  A    between atoms: C_21  and  C_22
REMARK   12  A    between atoms: C_25  and  C_28
REMARK   13  A    between atoms: C_32  and  O_33
REMARK                            x       y       z     vdW  Elec       q    Type
REMARK                         _______ _______ _______ _____ _____    ______ ____
ROOT
ATOM      1  C   UNL     1       7.621  -3.645  23.151  0.00  0.00    +0.106 A 
ATOM      2  C   UNL     1       7.673  -3.375  24.519  0.00  0.00    +0.029 A 
ATOM      3  C   UNL     1       8.357  -2.256  24.979  0.00  0.00    +0.010 A 
ATOM      4  C   UNL     1       8.936  -1.367  24.072  0.00  0.00    -0.014 A 
ATOM      5  C   UNL     1       9.536  -0.196  24.534  0.00  0.00    +0.054 A 
ATOM      6  C   UNL     1      10.091   0.718  23.640  0.00  0.00    +0.122 A 
ATOM      7  C   UNL     1      10.007   0.486  22.269  0.00  0.00    +0.046 A 
ATOM      8  C   UNL     1       9.422  -0.689  21.791  0.00  0.00    +0.012 A 
ATOM      9  C   UNL     1       8.884  -1.628  22.683  0.00  0.00    -0.016 A 
ATOM     10  C   UNL     1       8.248  -2.793  22.234  0.00  0.00    +0.037 A 
ENDROOT
BRANCH   1  11
ATOM     11  S   UNL     1       6.578  -4.939  22.543  0.00  0.00    +0.059 S 
ATOM     12  O   UNL     1       5.409  -4.334  21.952  0.00  0.00    -0.153 OA
ATOM     13  O   UNL     1       7.387  -5.889  21.820  0.00  0.00    -0.153 OA
BRANCH  11  14
ATOM     14  N   UNL     1       6.076  -5.797  23.897  0.00  0.00    -0.176 NA
ATOM     15  H   UNL     1       6.614  -6.644  24.075  0.00  0.00    +0.149 HD
BRANCH  14  16
ATOM     16  C   UNL     1       4.681  -5.645  24.355  0.00  0.00    +0.185 C 
BRANCH  16  17
ATOM     17  C   UNL     1       3.740  -6.775  23.945  0.00  0.00    +0.324 C 
ATOM     18  O   UNL     1       3.567  -7.782  24.617  0.00  0.00    -0.249 OA
BRANCH  17  19
ATOM     19  O   UNL     1       3.166  -6.612  22.730  0.00  0.00    -0.479 OA
ATOM     20  H   UNL     1       3.023  -5.674  22.507  0.00  0.00    +0.295 HD
ENDBRANCH  17  19
ENDBRANCH  16  17
BRANCH  16  21
ATOM     21  C   UNL     1       4.615  -5.363  25.859  0.00  0.00    +0.043 C 
BRANCH  21  22
ATOM     22  C   UNL     1       5.732  -5.960  26.720  0.00  0.00    +0.122 C 
BRANCH  22  23
ATOM     23  C   UNL     1       5.156  -6.916  27.745  0.00  0.00    +0.305 C 
ATOM     24  O   UNL     1       5.795  -7.456  28.633  0.00  0.00    -0.251 OA
BRANCH  23  25
ATOM     25  O   UNL     1       3.838  -7.148  27.566  0.00  0.00    -0.481 OA
ATOM     26  H   UNL     1       3.620  -8.006  27.161  0.00  0.00    +0.295 HD
ENDBRANCH  23  25
ENDBRANCH  22  23
ENDBRANCH  21  22
ENDBRANCH  16  21
ENDBRANCH  14  16
ENDBRANCH  11  14
ENDBRANCH   1  11
BRANCH   6  27
ATOM     27  O   UNL     1      10.725   1.869  24.020  0.00  0.00    -0.487 OA
BRANCH  27  28
ATOM     28  C   UNL     1      10.393   3.014  23.231  0.00  0.00    +0.264 C 
BRANCH  28  29
ATOM     29  C   UNL     1       9.004   3.457  23.602  0.00  0.00    -0.010 A 
ATOM     30  C   UNL     1       8.714   3.824  24.921  0.00  0.00    +0.008 A 
ATOM     31  C   UNL     1       7.443   4.287  25.253  0.00  0.00    +0.019 A 
ATOM     32  C   UNL     1       6.453   4.389  24.270  0.00  0.00    +0.052 A 
ATOM     33  C   UNL     1       6.733   4.002  22.952  0.00  0.00    +0.019 A 
ATOM     34  C   UNL     1       8.005   3.535  22.621  0.00  0.00    +0.008 A 
BRANCH  32  35
ATOM     35  C   UNL     1       5.162   4.911  24.604  0.00  0.00    +0.099 C 
ATOM     36  N   UNL     1       4.116   5.330  24.879  0.00  0.00    -0.191 NA
ENDBRANCH  32  35
ENDBRANCH  28  29
ENDBRANCH  27  28
ENDBRANCH   6  27
TORSDOF 13
ENDMDL
