MODEL 1
REMARK VINA RESULT:      -6.2      0.000      0.000
REMARK  Name = 
REMARK  22 active torsions:
REMARK  status: ('A' for Active; 'I' for Inactive)
REMARK    1  A    between atoms: C_1  and  C_2
REMARK    2  A    between atoms: C_2  and  C_3
REMARK    3  A    between atoms: C_3  and  C_4
REMARK    4  A    between atoms: C_4  and  N_5
REMARK    5  A    between atoms: N_5  and  C_6
REMARK    6  A    between atoms: N_5  and  C_10
REMARK    7  A    between atoms: C_6  and  C_7
REMARK    8  A    between atoms: C_7  and  C_8
REMARK    9  A    between atoms: C_8  and  C_9
REMARK   10  A    between atoms: C_10  and  C_11
REMARK   11  A    between atoms: C_11  and  C_12
REMARK   12  A    between atoms: C_12  and  O_13
REMARK   13  A    between atoms: O_13  and  C_14
REMARK   14  A    between atoms: C_17  and  C_20
REMARK   15  A    between atoms: C_20  and  C_22
REMARK   16  A    between atoms: C_23  and  C_24
REMARK   17  A    between atoms: C_24  and  C_25
REMARK   18  A    between atoms: C_25  and  C_26
REMARK   19  A    between atoms: C_26  and  C_27
REMARK   20  A    between atoms: C_32  and  N_33
REMARK   21  A    between atoms: N_33  and  S_34
REMARK   22  A    between atoms: S_34  and  C_35
REMARK                            x       y       z     vdW  Elec       q    Type
REMARK                         _______ _______ _______ _____ _____    ______ ____
ROOT
ATOM      1  C   UNL     1       6.747  -2.849  26.081  0.00  0.00    +0.197 C 
ATOM      2  O   UNL     1       6.446  -3.429  27.120  0.00  0.00    -0.287 OA
ENDROOT
BRANCH   1   3
ATOM      3  C   UNL     1       7.225  -3.566  24.896  0.00  0.00    +0.071 A 
ATOM      4  C   UNL     1       6.484  -4.428  24.001  0.00  0.00    +0.033 A 
ATOM      5  C   UNL     1       5.149  -4.874  23.877  0.00  0.00    +0.036 A 
ATOM      6  C   UNL     1       4.818  -5.788  22.869  0.00  0.00    +0.048 A 
ATOM      7  C   UNL     1       5.766  -6.199  21.928  0.00  0.00    +0.028 A 
ATOM      8  C   UNL     1       7.079  -5.729  21.994  0.00  0.00    +0.049 A 
ATOM      9  C   UNL     1       7.385  -4.863  23.043  0.00  0.00    +0.136 A 
ATOM     10  O   UNL     1       8.598  -4.302  23.254  0.00  0.00    -0.459 OA
ATOM     11  C   UNL     1       8.498  -3.470  24.333  0.00  0.00    +0.117 A 
BRANCH   6  12
ATOM     12  N   UNL     1       3.482  -6.274  22.807  0.00  0.00    -0.221 N 
ATOM     13  H   UNL     1       2.791  -5.612  22.448  0.00  0.00    +0.173 HD
BRANCH  12  14
ATOM     14  S   UNL     1       2.863  -7.046  24.176  0.00  0.00    +0.040 S 
ATOM     15  O   UNL     1       2.178  -6.013  24.920  0.00  0.00    -0.155 OA
ATOM     16  O   UNL     1       3.889  -7.858  24.789  0.00  0.00    -0.155 OA
ATOM     17  C   UNL     1       1.628  -8.107  23.459  0.00  0.00    +0.218 C 
ENDBRANCH  12  14
ENDBRANCH   6  12
BRANCH  11  18
ATOM     18  C   UNL     1       9.704  -2.614  24.516  0.00  0.00    +0.075 C 
BRANCH  18  19
ATOM     19  C   UNL     1       9.728  -1.263  23.804  0.00  0.00    +0.007 C 
BRANCH  19  20
ATOM     20  C   UNL     1      10.001  -0.174  24.857  0.00  0.00    -0.003 C 
ATOM     21  C   UNL     1      10.955   0.913  24.397  0.00  0.00    +0.004 C 
ENDBRANCH  19  20
ENDBRANCH  18  19
ENDBRANCH  11  18
ENDBRANCH   1   3
BRANCH   1  25
ATOM     22  C   UNL     1       6.203   1.430  26.099  0.00  0.00    +0.121 A 
ATOM     23  C   UNL     1       7.010   0.823  27.063  0.00  0.00    +0.046 A 
ATOM     24  C   UNL     1       7.271  -0.552  27.017  0.00  0.00    +0.015 A 
ATOM     25  C   UNL     1       6.666  -1.353  26.040  0.00  0.00    +0.023 A 
ATOM     26  C   UNL     1       5.920  -0.734  25.029  0.00  0.00    +0.015 A 
ATOM     27  C   UNL     1       5.695   0.651  25.057  0.00  0.00    +0.046 A 
BRANCH  22  28
ATOM     28  O   UNL     1       5.978   2.768  26.291  0.00  0.00    -0.492 OA
BRANCH  28  29
ATOM     29  C   UNL     1       6.902   3.453  27.142  0.00  0.00    +0.230 C 
BRANCH  29  30
ATOM     30  C   UNL     1       7.631   4.525  26.335  0.00  0.00    +0.056 C 
BRANCH  30  31
ATOM     31  C   UNL     1       6.912   4.829  25.012  0.00  0.00    +0.087 C 
BRANCH  31  32
ATOM     32  N   UNL     1       7.794   5.089  23.846  0.00  0.00    -0.302 NA
BRANCH  32  33
ATOM     33  C   UNL     1       9.211   5.091  24.289  0.00  0.00    +0.084 C 
BRANCH  33  34
ATOM     34  C   UNL     1      10.182   6.064  23.600  0.00  0.00    +0.015 C 
BRANCH  34  36
ATOM     35  C   UNL     1      12.512   5.174  23.350  0.00  0.00    +0.004 C 
ATOM     36  C   UNL     1      11.595   6.062  24.183  0.00  0.00    -0.002 C 
ENDBRANCH  34  36
ENDBRANCH  33  34
ENDBRANCH  32  33
BRANCH  32  37
ATOM     37  C   UNL     1       7.577   4.074  22.787  0.00  0.00    +0.084 C 
BRANCH  37  38
ATOM     38  C   UNL     1       7.925   2.613  23.136  0.00  0.00    +0.015 C 
BRANCH  38  39
ATOM     39  C   UNL     1       7.646   1.617  22.009  0.00  0.00    -0.002 C 
ATOM     40  C   UNL     1       8.935   1.240  21.290  0.00  0.00    +0.004 C 
ENDBRANCH  38  39
ENDBRANCH  37  38
ENDBRANCH  32  37
ENDBRANCH  31  32
ENDBRANCH  30  31
ENDBRANCH  29  30
ENDBRANCH  28  29
ENDBRANCH  22  28
ENDBRANCH   1  25
TORSDOF 18
ENDMDL
MODEL 2
REMARK VINA RESULT:      -6.0      3.108      8.701
REMARK  Name = 
REMARK  22 active torsions:
REMARK  status: ('A' for Active; 'I' for Inactive)
REMARK    1  A    between atoms: C_1  and  C_2
REMARK    2  A    between atoms: C_2  and  C_3
REMARK    3  A    between atoms: C_3  and  C_4
REMARK    4  A    between atoms: C_4  and  N_5
REMARK    5  A    between atoms: N_5  and  C_6
REMARK    6  A    between atoms: N_5  and  C_10
REMARK    7  A    between atoms: C_6  and  C_7
REMARK    8  A    between atoms: C_7  and  C_8
REMARK    9  A    between atoms: C_8  and  C_9
REMARK   10  A    between atoms: C_10  and  C_11
REMARK   11  A    between atoms: C_11  and  C_12
REMARK   12  A    between atoms: C_12  and  O_13
REMARK   13  A    between atoms: O_13  and  C_14
REMARK   14  A    between atoms: C_17  and  C_20
REMARK   15  A    between atoms: C_20  and  C_22
REMARK   16  A    between atoms: C_23  and  C_24
REMARK   17  A    between atoms: C_24  and  C_25
REMARK   18  A    between atoms: C_25  and  C_26
REMARK   19  A    between atoms: C_26  and  C_27
REMARK   20  A    between atoms: C_32  and  N_33
REMARK   21  A    between atoms: N_33  and  S_34
REMARK   22  A    between atoms: S_34  and  C_35
REMARK                            x       y       z     vdW  Elec       q    Type
REMARK                         _______ _______ _______ _____ _____    ______ ____
ROOT
ATOM      1  C   UNL     1       7.825  -1.213  26.037  0.00  0.00    +0.197 C 
ATOM      2  O   UNL     1       8.335  -0.824  27.084  0.00  0.00    -0.287 OA
ENDROOT
BRANCH   1   3
ATOM      3  C   UNL     1       8.537  -1.173  24.757  0.00  0.00    +0.071 A 
ATOM      4  C   UNL     1       8.841  -0.028  23.927  0.00  0.00    +0.033 A 
ATOM      5  C   UNL     1       8.637   1.369  23.990  0.00  0.00    +0.036 A 
ATOM      6  C   UNL     1       9.042   2.174  22.918  0.00  0.00    +0.048 A 
ATOM      7  C   UNL     1       9.726   1.631  21.827  0.00  0.00    +0.028 A 
ATOM      8  C   UNL     1       9.991   0.262  21.766  0.00  0.00    +0.049 A 
ATOM      9  C   UNL     1       9.525  -0.517  22.825  0.00  0.00    +0.136 A 
ATOM     10  O   UNL     1       9.701  -1.853  22.939  0.00  0.00    -0.459 OA
ATOM     11  C   UNL     1       9.163  -2.251  24.130  0.00  0.00    +0.117 A 
BRANCH   6  12
ATOM     12  N   UNL     1       8.765   3.567  22.976  0.00  0.00    -0.221 N 
ATOM     13  H   UNL     1       9.046   4.035  23.840  0.00  0.00    +0.173 HD
BRANCH  12  14
ATOM     14  S   UNL     1       7.216   4.079  22.537  0.00  0.00    +0.040 S 
ATOM     15  O   UNL     1       6.621   2.953  21.854  0.00  0.00    -0.155 OA
ATOM     16  O   UNL     1       7.287   5.382  21.916  0.00  0.00    -0.155 OA
ATOM     17  C   UNL     1       6.426   4.230  24.124  0.00  0.00    +0.218 C 
ENDBRANCH  12  14
ENDBRANCH   6  12
BRANCH  11  18
ATOM     18  C   UNL     1       9.508  -3.659  24.478  0.00  0.00    +0.075 C 
BRANCH  18  19
ATOM     19  C   UNL     1       8.369  -4.676  24.528  0.00  0.00    +0.007 C 
BRANCH  19  20
ATOM     20  C   UNL     1       8.494  -5.467  25.842  0.00  0.00    -0.003 C 
ATOM     21  C   UNL     1       7.788  -4.828  27.024  0.00  0.00    +0.004 C 
ENDBRANCH  19  20
ENDBRANCH  18  19
ENDBRANCH  11  18
ENDBRANCH   1   3
BRANCH   1  25
ATOM     22  C   UNL     1       3.872  -2.939  26.127  0.00  0.00    +0.121 A 
ATOM     23  C   UNL     1       4.408  -2.356  27.277  0.00  0.00    +0.046 A 
ATOM     24  C   UNL     1       5.651  -1.710  27.241  0.00  0.00    +0.015 A 
ATOM     25  C   UNL     1       6.409  -1.703  26.064  0.00  0.00    +0.023 A 
ATOM     26  C   UNL     1       5.838  -2.218  24.893  0.00  0.00    +0.015 A 
ATOM     27  C   UNL     1       4.575  -2.828  24.925  0.00  0.00    +0.046 A 
BRANCH  22  28
ATOM     28  O   UNL     1       2.679  -3.589  26.309  0.00  0.00    -0.492 OA
BRANCH  28  29
ATOM     29  C   UNL     1       1.907  -3.840  25.131  0.00  0.00    +0.230 C 
BRANCH  29  30
ATOM     30  C   UNL     1       1.729  -5.347  24.958  0.00  0.00    +0.056 C 
BRANCH  30  31
ATOM     31  C   UNL     1       2.617  -5.901  23.833  0.00  0.00    +0.087 C 
BRANCH  31  32
ATOM     32  N   UNL     1       3.639  -6.893  24.252  0.00  0.00    -0.302 NA
BRANCH  32  33
ATOM     33  C   UNL     1       4.981  -6.438  23.810  0.00  0.00    +0.084 C 
BRANCH  33  34
ATOM     34  C   UNL     1       5.061  -5.492  22.600  0.00  0.00    +0.015 C 
BRANCH  34  36
ATOM     35  C   UNL     1       7.306  -5.795  21.526  0.00  0.00    +0.004 C 
ATOM     36  C   UNL     1       5.812  -6.068  21.399  0.00  0.00    -0.002 C 
ENDBRANCH  34  36
ENDBRANCH  33  34
ENDBRANCH  32  33
BRANCH  32  37
ATOM     37  C   UNL     1       3.609  -7.089  25.721  0.00  0.00    +0.084 C 
BRANCH  37  38
ATOM     38  C   UNL     1       4.829  -6.588  26.519  0.00  0.00    +0.015 C 
BRANCH  38  39
ATOM     39  C   UNL     1       4.769  -6.900  28.016  0.00  0.00    -0.002 C 
ATOM     40  C   UNL     1       4.346  -5.670  28.808  0.00  0.00    +0.004 C 
ENDBRANCH  38  39
ENDBRANCH  37  38
ENDBRANCH  32  37
ENDBRANCH  31  32
ENDBRANCH  30  31
ENDBRANCH  29  30
ENDBRANCH  28  29
ENDBRANCH  22  28
ENDBRANCH   1  25
TORSDOF 18
ENDMDL
MODEL 3
REMARK VINA RESULT:      -6.0      3.151      6.694
REMARK  Name = 
REMARK  22 active torsions:
REMARK  status: ('A' for Active; 'I' for Inactive)
REMARK    1  A    between atoms: C_1  and  C_2
REMARK    2  A    between atoms: C_2  and  C_3
REMARK    3  A    between atoms: C_3  and  C_4
REMARK    4  A    between atoms: C_4  and  N_5
REMARK    5  A    between atoms: N_5  and  C_6
REMARK    6  A    between atoms: N_5  and  C_10
REMARK    7  A    between atoms: C_6  and  C_7
REMARK    8  A    between atoms: C_7  and  C_8
REMARK    9  A    between atoms: C_8  and  C_9
REMARK   10  A    between atoms: C_10  and  C_11
REMARK   11  A    between atoms: C_11  and  C_12
REMARK   12  A    between atoms: C_12  and  O_13
REMARK   13  A    between atoms: O_13  and  C_14
REMARK   14  A    between atoms: C_17  and  C_20
REMARK   15  A    between atoms: C_20  and  C_22
REMARK   16  A    between atoms: C_23  and  C_24
REMARK   17  A    between atoms: C_24  and  C_25
REMARK   18  A    between atoms: C_25  and  C_26
REMARK   19  A    between atoms: C_26  and  C_27
REMARK   20  A    between atoms: C_32  and  N_33
REMARK   21  A    between atoms: N_33  and  S_34
REMARK   22  A    between atoms: S_34  and  C_35
REMARK                            x       y       z     vdW  Elec       q    Type
REMARK                         _______ _______ _______ _____ _____    ______ ____
ROOT
ATOM      1  C   UNL     1       6.348  -4.849  27.730  0.00  0.00    +0.197 C 
ATOM      2  O   UNL     1       6.639  -5.399  28.789  0.00  0.00    -0.287 OA
ENDROOT
BRANCH   1   3
ATOM      3  C   UNL     1       4.961  -4.578  27.346  0.00  0.00    +0.071 A 
ATOM      4  C   UNL     1       4.252  -3.317  27.349  0.00  0.00    +0.033 A 
ATOM      5  C   UNL     1       4.552  -1.971  27.657  0.00  0.00    +0.036 A 
ATOM      6  C   UNL     1       3.541  -1.005  27.589  0.00  0.00    +0.048 A 
ATOM      7  C   UNL     1       2.260  -1.333  27.137  0.00  0.00    +0.028 A 
ATOM      8  C   UNL     1       1.952  -2.646  26.773  0.00  0.00    +0.049 A 
ATOM      9  C   UNL     1       2.968  -3.591  26.905  0.00  0.00    +0.136 A 
ATOM     10  O   UNL     1       2.853  -4.900  26.588  0.00  0.00    -0.459 OA
ATOM     11  C   UNL     1       4.066  -5.494  26.793  0.00  0.00    +0.117 A 
BRANCH   6  12
ATOM     12  N   UNL     1       3.853   0.329  27.968  0.00  0.00    -0.221 N 
ATOM     13  H   UNL     1       3.241   0.739  28.677  0.00  0.00    +0.173 HD
BRANCH  12  14
ATOM     14  S   UNL     1       4.118   1.455  26.737  0.00  0.00    +0.040 S 
ATOM     15  O   UNL     1       2.975   2.338  26.774  0.00  0.00    -0.155 OA
ATOM     16  O   UNL     1       4.500   0.773  25.521  0.00  0.00    -0.155 OA
ATOM     17  C   UNL     1       5.518   2.352  27.367  0.00  0.00    +0.218 C 
ENDBRANCH  12  14
ENDBRANCH   6  12
BRANCH  11  18
ATOM     18  C   UNL     1       4.128  -6.882  26.252  0.00  0.00    +0.075 C 
BRANCH  18  19
ATOM     19  C   UNL     1       4.325  -7.047  24.746  0.00  0.00    +0.007 C 
BRANCH  19  20
ATOM     20  C   UNL     1       2.938  -7.220  24.100  0.00  0.00    -0.003 C 
ATOM     21  C   UNL     1       2.624  -6.203  23.018  0.00  0.00    +0.004 C 
ENDBRANCH  19  20
ENDBRANCH  18  19
ENDBRANCH  11  18
ENDBRANCH   1   3
BRANCH   1  25
ATOM     22  C   UNL     1       9.282  -3.781  24.753  0.00  0.00    +0.121 A 
ATOM     23  C   UNL     1       8.842  -2.830  25.675  0.00  0.00    +0.046 A 
ATOM     24  C   UNL     1       7.960  -3.183  26.704  0.00  0.00    +0.015 A 
ATOM     25  C   UNL     1       7.449  -4.485  26.781  0.00  0.00    +0.023 A 
ATOM     26  C   UNL     1       7.949  -5.457  25.904  0.00  0.00    +0.015 A 
ATOM     27  C   UNL     1       8.864  -5.106  24.900  0.00  0.00    +0.046 A 
BRANCH  22  28
ATOM     28  O   UNL     1      10.094  -3.296  23.762  0.00  0.00    -0.492 OA
BRANCH  28  29
ATOM     29  C   UNL     1      10.237  -1.873  23.696  0.00  0.00    +0.230 C 
BRANCH  29  30
ATOM     30  C   UNL     1      10.058  -1.415  22.251  0.00  0.00    +0.056 C 
BRANCH  30  31
ATOM     31  C   UNL     1       8.677  -0.782  22.021  0.00  0.00    +0.087 C 
BRANCH  31  32
ATOM     32  N   UNL     1       7.746  -0.834  23.176  0.00  0.00    -0.302 NA
BRANCH  32  33
ATOM     33  C   UNL     1       7.382   0.548  23.581  0.00  0.00    +0.084 C 
BRANCH  33  34
ATOM     34  C   UNL     1       8.127   1.171  24.773  0.00  0.00    +0.015 C 
BRANCH  34  36
ATOM     35  C   UNL     1      10.459   1.836  24.138  0.00  0.00    +0.004 C 
ATOM     36  C   UNL     1       9.044   2.336  24.403  0.00  0.00    -0.002 C 
ENDBRANCH  34  36
ENDBRANCH  33  34
ENDBRANCH  32  33
BRANCH  32  37
ATOM     37  C   UNL     1       6.534  -1.617  22.838  0.00  0.00    +0.084 C 
BRANCH  37  38
ATOM     38  C   UNL     1       5.715  -2.184  24.015  0.00  0.00    +0.015 C 
BRANCH  38  39
ATOM     39  C   UNL     1       5.188  -3.602  23.786  0.00  0.00    -0.002 C 
ATOM     40  C   UNL     1       5.980  -4.302  22.689  0.00  0.00    +0.004 C 
ENDBRANCH  38  39
ENDBRANCH  37  38
ENDBRANCH  32  37
ENDBRANCH  31  32
ENDBRANCH  30  31
ENDBRANCH  29  30
ENDBRANCH  28  29
ENDBRANCH  22  28
ENDBRANCH   1  25
TORSDOF 18
ENDMDL
MODEL 4
REMARK VINA RESULT:      -6.0      0.862      2.121
REMARK  Name = 
REMARK  22 active torsions:
REMARK  status: ('A' for Active; 'I' for Inactive)
REMARK    1  A    between atoms: C_1  and  C_2
REMARK    2  A    between atoms: C_2  and  C_3
REMARK    3  A    between atoms: C_3  and  C_4
REMARK    4  A    between atoms: C_4  and  N_5
REMARK    5  A    between atoms: N_5  and  C_6
REMARK    6  A    between atoms: N_5  and  C_10
REMARK    7  A    between atoms: C_6  and  C_7
REMARK    8  A    between atoms: C_7  and  C_8
REMARK    9  A    between atoms: C_8  and  C_9
REMARK   10  A    between atoms: C_10  and  C_11
REMARK   11  A    between atoms: C_11  and  C_12
REMARK   12  A    between atoms: C_12  and  O_13
REMARK   13  A    between atoms: O_13  and  C_14
REMARK   14  A    between atoms: C_17  and  C_20
REMARK   15  A    between atoms: C_20  and  C_22
REMARK   16  A    between atoms: C_23  and  C_24
REMARK   17  A    between atoms: C_24  and  C_25
REMARK   18  A    between atoms: C_25  and  C_26
REMARK   19  A    between atoms: C_26  and  C_27
REMARK   20  A    between atoms: C_32  and  N_33
REMARK   21  A    between atoms: N_33  and  S_34
REMARK   22  A    between atoms: S_34  and  C_35
REMARK                            x       y       z     vdW  Elec       q    Type
REMARK                         _______ _______ _______ _____ _____    ______ ____
ROOT
ATOM      1  C   UNL     1       6.943  -3.126  26.096  0.00  0.00    +0.197 C 
ATOM      2  O   UNL     1       6.800  -3.744  27.147  0.00  0.00    -0.287 OA
ENDROOT
BRANCH   1   3
ATOM      3  C   UNL     1       7.307  -3.791  24.842  0.00  0.00    +0.071 A 
ATOM      4  C   UNL     1       6.467  -4.560  23.950  0.00  0.00    +0.033 A 
ATOM      5  C   UNL     1       5.106  -4.934  23.889  0.00  0.00    +0.036 A 
ATOM      6  C   UNL     1       4.665  -5.767  22.853  0.00  0.00    +0.048 A 
ATOM      7  C   UNL     1       5.529  -6.163  21.829  0.00  0.00    +0.028 A 
ATOM      8  C   UNL     1       6.866  -5.761  21.835  0.00  0.00    +0.049 A 
ATOM      9  C   UNL     1       7.283  -4.977  22.910  0.00  0.00    +0.136 A 
ATOM     10  O   UNL     1       8.533  -4.488  23.072  0.00  0.00    -0.459 OA
ATOM     11  C   UNL     1       8.545  -3.721  24.203  0.00  0.00    +0.117 A 
BRANCH   6  12
ATOM     12  N   UNL     1       3.305  -6.183  22.852  0.00  0.00    -0.221 N 
ATOM     13  H   UNL     1       2.621  -5.448  22.660  0.00  0.00    +0.173 HD
BRANCH  12  14
ATOM     14  S   UNL     1       2.770  -7.123  24.149  0.00  0.00    +0.040 S 
ATOM     15  O   UNL     1       2.067  -6.208  25.019  0.00  0.00    -0.155 OA
ATOM     16  O   UNL     1       3.852  -7.944  24.641  0.00  0.00    -0.155 OA
ATOM     17  C   UNL     1       1.559  -8.162  23.363  0.00  0.00    +0.218 C 
ENDBRANCH  12  14
ENDBRANCH   6  12
BRANCH  11  18
ATOM     18  C   UNL     1       9.803  -2.936  24.355  0.00  0.00    +0.075 C 
BRANCH  18  19
ATOM     19  C   UNL     1       9.746  -1.440  24.050  0.00  0.00    +0.007 C 
BRANCH  19  20
ATOM     20  C   UNL     1       8.772  -1.229  22.878  0.00  0.00    -0.003 C 
ATOM     21  C   UNL     1       9.440  -0.823  21.577  0.00  0.00    +0.004 C 
ENDBRANCH  19  20
ENDBRANCH  18  19
ENDBRANCH  11  18
ENDBRANCH   1   3
BRANCH   1  25
ATOM     22  C   UNL     1       6.211   1.119  26.323  0.00  0.00    +0.121 A 
ATOM     23  C   UNL     1       7.217   0.540  27.098  0.00  0.00    +0.046 A 
ATOM     24  C   UNL     1       7.529  -0.820  26.969  0.00  0.00    +0.015 A 
ATOM     25  C   UNL     1       6.785  -1.636  26.108  0.00  0.00    +0.023 A 
ATOM     26  C   UNL     1       5.829  -1.041  25.275  0.00  0.00    +0.015 A 
ATOM     27  C   UNL     1       5.548   0.330  25.380  0.00  0.00    +0.046 A 
BRANCH  22  28
ATOM     28  O   UNL     1       5.964   2.441  26.587  0.00  0.00    -0.492 OA
BRANCH  28  29
ATOM     29  C   UNL     1       7.065   3.206  27.088  0.00  0.00    +0.230 C 
BRANCH  29  30
ATOM     30  C   UNL     1       7.025   4.605  26.478  0.00  0.00    +0.056 C 
BRANCH  30  31
ATOM     31  C   UNL     1       6.239   4.629  25.159  0.00  0.00    +0.087 C 
BRANCH  31  32
ATOM     32  N   UNL     1       7.049   4.470  23.924  0.00  0.00    -0.302 NA
BRANCH  32  33
ATOM     33  C   UNL     1       6.695   3.190  23.261  0.00  0.00    +0.084 C 
BRANCH  33  34
ATOM     34  C   UNL     1       7.802   2.437  22.505  0.00  0.00    +0.015 C 
BRANCH  34  36
ATOM     35  C   UNL     1       9.370   2.084  24.429  0.00  0.00    +0.004 C 
ATOM     36  C   UNL     1       9.212   2.689  23.039  0.00  0.00    -0.002 C 
ENDBRANCH  34  36
ENDBRANCH  33  34
ENDBRANCH  32  33
BRANCH  32  37
ATOM     37  C   UNL     1       6.836   5.614  23.006  0.00  0.00    +0.084 C 
BRANCH  37  38
ATOM     38  C   UNL     1       8.074   6.451  22.630  0.00  0.00    +0.015 C 
BRANCH  38  39
ATOM     39  C   UNL     1       8.969   6.814  23.816  0.00  0.00    -0.002 C 
ATOM     40  C   UNL     1      10.318   6.114  23.711  0.00  0.00    +0.004 C 
ENDBRANCH  38  39
ENDBRANCH  37  38
ENDBRANCH  32  37
ENDBRANCH  31  32
ENDBRANCH  30  31
ENDBRANCH  29  30
ENDBRANCH  28  29
ENDBRANCH  22  28
ENDBRANCH   1  25
TORSDOF 18
ENDMDL
MODEL 5
REMARK VINA RESULT:      -6.0      1.093      2.538
REMARK  Name = 
REMARK  22 active torsions:
REMARK  status: ('A' for Active; 'I' for Inactive)
REMARK    1  A    between atoms: C_1  and  C_2
REMARK    2  A    between atoms: C_2  and  C_3
REMARK    3  A    between atoms: C_3  and  C_4
REMARK    4  A    between atoms: C_4  and  N_5
REMARK    5  A    between atoms: N_5  and  C_6
REMARK    6  A    between atoms: N_5  and  C_10
REMARK    7  A    between atoms: C_6  and  C_7
REMARK    8  A    between atoms: C_7  and  C_8
REMARK    9  A    between atoms: C_8  and  C_9
REMARK   10  A    between atoms: C_10  and  C_11
REMARK   11  A    between atoms: C_11  and  C_12
REMARK   12  A    between atoms: C_12  and  O_13
REMARK   13  A    between atoms: O_13  and  C_14
REMARK   14  A    between atoms: C_17  and  C_20
REMARK   15  A    between atoms: C_20  and  C_22
REMARK   16  A    between atoms: C_23  and  C_24
REMARK   17  A    between atoms: C_24  and  C_25
REMARK   18  A    between atoms: C_25  and  C_26
REMARK   19  A    between atoms: C_26  and  C_27
REMARK   20  A    between atoms: C_32  and  N_33
REMARK   21  A    between atoms: N_33  and  S_34
REMARK   22  A    between atoms: S_34  and  C_35
REMARK                            x       y       z     vdW  Elec       q    Type
REMARK                         _______ _______ _______ _____ _____    ______ ____
ROOT
ATOM      1  C   UNL     1       7.564  -2.747  25.930  0.00  0.00    +0.197 C 
ATOM      2  O   UNL     1       7.725  -3.428  26.939  0.00  0.00    -0.287 OA
ENDROOT
BRANCH   1   3
ATOM      3  C   UNL     1       7.715  -3.300  24.581  0.00  0.00    +0.071 A 
ATOM      4  C   UNL     1       6.958  -4.357  23.948  0.00  0.00    +0.033 A 
ATOM      5  C   UNL     1       5.870  -5.190  24.294  0.00  0.00    +0.036 A 
ATOM      6  C   UNL     1       5.441  -6.174  23.394  0.00  0.00    +0.048 A 
ATOM      7  C   UNL     1       6.013  -6.288  22.124  0.00  0.00    +0.028 A 
ATOM      8  C   UNL     1       7.052  -5.440  21.736  0.00  0.00    +0.049 A 
ATOM      9  C   UNL     1       7.489  -4.509  22.677  0.00  0.00    +0.136 A 
ATOM     10  O   UNL     1       8.472  -3.603  22.470  0.00  0.00    -0.459 OA
ATOM     11  C   UNL     1       8.576  -2.828  23.591  0.00  0.00    +0.117 A 
BRANCH   6  12
ATOM     12  N   UNL     1       4.389  -7.043  23.793  0.00  0.00    -0.221 N 
ATOM     13  H   UNL     1       4.326  -7.923  23.277  0.00  0.00    +0.173 HD
BRANCH  12  14
ATOM     14  S   UNL     1       2.844  -6.381  23.963  0.00  0.00    +0.040 S 
ATOM     15  O   UNL     1       2.642  -5.575  22.781  0.00  0.00    -0.155 OA
ATOM     16  O   UNL     1       2.692  -5.822  25.287  0.00  0.00    -0.155 OA
ATOM     17  C   UNL     1       1.817  -7.825  23.818  0.00  0.00    +0.218 C 
ENDBRANCH  12  14
ENDBRANCH   6  12
BRANCH  11  18
ATOM     18  C   UNL     1       9.459  -1.643  23.393  0.00  0.00    +0.075 C 
BRANCH  18  19
ATOM     19  C   UNL     1       8.837  -0.392  22.776  0.00  0.00    +0.007 C 
BRANCH  19  20
ATOM     20  C   UNL     1       9.657   0.826  23.239  0.00  0.00    -0.003 C 
ATOM     21  C   UNL     1      10.481   0.583  24.490  0.00  0.00    +0.004 C 
ENDBRANCH  19  20
ENDBRANCH  18  19
ENDBRANCH  11  18
ENDBRANCH   1   3
BRANCH   1  25
ATOM     22  C   UNL     1       6.926   1.511  26.194  0.00  0.00    +0.121 A 
ATOM     23  C   UNL     1       6.155   0.741  25.323  0.00  0.00    +0.046 A 
ATOM     24  C   UNL     1       6.286  -0.654  25.291  0.00  0.00    +0.015 A 
ATOM     25  C   UNL     1       7.246  -1.291  26.086  0.00  0.00    +0.023 A 
ATOM     26  C   UNL     1       7.965  -0.528  27.015  0.00  0.00    +0.015 A 
ATOM     27  C   UNL     1       7.800   0.865  27.071  0.00  0.00    +0.046 A 
BRANCH  22  28
ATOM     28  O   UNL     1       6.745   2.865  26.085  0.00  0.00    -0.492 OA
BRANCH  28  29
ATOM     29  C   UNL     1       7.905   3.637  25.756  0.00  0.00    +0.230 C 
BRANCH  29  30
ATOM     30  C   UNL     1       7.660   5.097  26.127  0.00  0.00    +0.056 C 
BRANCH  30  31
ATOM     31  C   UNL     1       8.701   6.030  25.489  0.00  0.00    +0.087 C 
BRANCH  31  32
ATOM     32  N   UNL     1       9.106   5.688  24.102  0.00  0.00    -0.302 NA
BRANCH  32  33
ATOM     33  C   UNL     1       8.360   6.543  23.144  0.00  0.00    +0.084 C 
BRANCH  33  34
ATOM     34  C   UNL     1       7.529   5.850  22.052  0.00  0.00    +0.015 C 
BRANCH  34  36
ATOM     35  C   UNL     1       7.032   3.394  22.132  0.00  0.00    +0.004 C 
ATOM     36  C   UNL     1       6.572   4.778  22.574  0.00  0.00    -0.002 C 
ENDBRANCH  34  36
ENDBRANCH  33  34
ENDBRANCH  32  33
BRANCH  32  37
ATOM     37  C   UNL     1      10.568   5.856  23.926  0.00  0.00    +0.084 C 
BRANCH  37  38
ATOM     38  C   UNL     1      11.360   4.627  23.438  0.00  0.00    +0.015 C 
BRANCH  38  39
ATOM     39  C   UNL     1      12.869   4.856  23.334  0.00  0.00    -0.002 C 
ATOM     40  C   UNL     1      13.212   5.634  22.070  0.00  0.00    +0.004 C 
ENDBRANCH  38  39
ENDBRANCH  37  38
ENDBRANCH  32  37
ENDBRANCH  31  32
ENDBRANCH  30  31
ENDBRANCH  29  30
ENDBRANCH  28  29
ENDBRANCH  22  28
ENDBRANCH   1  25
TORSDOF 18
ENDMDL
MODEL 6
REMARK VINA RESULT:      -5.9      3.482      8.523
REMARK  Name = 
REMARK  22 active torsions:
REMARK  status: ('A' for Active; 'I' for Inactive)
REMARK    1  A    between atoms: C_1  and  C_2
REMARK    2  A    between atoms: C_2  and  C_3
REMARK    3  A    between atoms: C_3  and  C_4
REMARK    4  A    between atoms: C_4  and  N_5
REMARK    5  A    between atoms: N_5  and  C_6
REMARK    6  A    between atoms: N_5  and  C_10
REMARK    7  A    between atoms: C_6  and  C_7
REMARK    8  A    between atoms: C_7  and  C_8
REMARK    9  A    between atoms: C_8  and  C_9
REMARK   10  A    between atoms: C_10  and  C_11
REMARK   11  A    between atoms: C_11  and  C_12
REMARK   12  A    between atoms: C_12  and  O_13
REMARK   13  A    between atoms: O_13  and  C_14
REMARK   14  A    between atoms: C_17  and  C_20
REMARK   15  A    between atoms: C_20  and  C_22
REMARK   16  A    between atoms: C_23  and  C_24
REMARK   17  A    between atoms: C_24  and  C_25
REMARK   18  A    between atoms: C_25  and  C_26
REMARK   19  A    between atoms: C_26  and  C_27
REMARK   20  A    between atoms: C_32  and  N_33
REMARK   21  A    between atoms: N_33  and  S_34
REMARK   22  A    between atoms: S_34  and  C_35
REMARK                            x       y       z     vdW  Elec       q    Type
REMARK                         _______ _______ _______ _____ _____    ______ ____
ROOT
ATOM      1  C   UNL     1       8.023   3.869  22.896  0.00  0.00    +0.197 C 
ATOM      2  O   UNL     1       7.297   4.219  21.970  0.00  0.00    -0.287 OA
ENDROOT
BRANCH   1   3
ATOM      3  C   UNL     1       8.170   4.664  24.118  0.00  0.00    +0.071 A 
ATOM      4  C   UNL     1       7.499   4.501  25.388  0.00  0.00    +0.033 A 
ATOM      5  C   UNL     1       6.555   3.608  25.944  0.00  0.00    +0.036 A 
ATOM      6  C   UNL     1       6.087   3.821  27.247  0.00  0.00    +0.048 A 
ATOM      7  C   UNL     1       6.603   4.850  28.039  0.00  0.00    +0.028 A 
ATOM      8  C   UNL     1       7.578   5.713  27.533  0.00  0.00    +0.049 A 
ATOM      9  C   UNL     1       7.981   5.504  26.214  0.00  0.00    +0.136 A 
ATOM     10  O   UNL     1       8.919   6.231  25.568  0.00  0.00    -0.459 OA
ATOM     11  C   UNL     1       9.086   5.696  24.322  0.00  0.00    +0.117 A 
BRANCH   6  12
ATOM     12  N   UNL     1       5.089   2.948  27.758  0.00  0.00    -0.221 N 
ATOM     13  H   UNL     1       4.277   3.407  28.178  0.00  0.00    +0.173 HD
BRANCH  12  14
ATOM     14  S   UNL     1       5.590   1.675  28.749  0.00  0.00    +0.040 S 
ATOM     15  O   UNL     1       5.130   2.020  30.075  0.00  0.00    -0.155 OA
ATOM     16  O   UNL     1       6.978   1.369  28.492  0.00  0.00    -0.155 OA
ATOM     17  C   UNL     1       4.578   0.339  28.155  0.00  0.00    +0.218 C 
ENDBRANCH  12  14
ENDBRANCH   6  12
BRANCH  11  18
ATOM     18  C   UNL     1      10.263   6.262  23.603  0.00  0.00    +0.075 C 
BRANCH  18  19
ATOM     19  C   UNL     1      11.649   5.968  24.172  0.00  0.00    +0.007 C 
BRANCH  19  20
ATOM     20  C   UNL     1      12.341   4.954  23.244  0.00  0.00    -0.003 C 
ATOM     21  C   UNL     1      13.224   5.583  22.182  0.00  0.00    +0.004 C 
ENDBRANCH  19  20
ENDBRANCH  18  19
ENDBRANCH  11  18
ENDBRANCH   1   3
BRANCH   1  25
ATOM     22  C   UNL     1      10.087   0.087  22.682  0.00  0.00    +0.121 A 
ATOM     23  C   UNL     1       9.295   0.513  21.615  0.00  0.00    +0.046 A 
ATOM     24  C   UNL     1       8.691   1.777  21.630  0.00  0.00    +0.015 A 
ATOM     25  C   UNL     1       8.818   2.607  22.751  0.00  0.00    +0.023 A 
ATOM     26  C   UNL     1       9.676   2.214  23.786  0.00  0.00    +0.015 A 
ATOM     27  C   UNL     1      10.310   0.963  23.748  0.00  0.00    +0.046 A 
BRANCH  22  28
ATOM     28  O   UNL     1      10.570  -1.191  22.572  0.00  0.00    -0.492 OA
BRANCH  28  29
ATOM     29  C   UNL     1       9.644  -2.246  22.851  0.00  0.00    +0.230 C 
BRANCH  29  30
ATOM     30  C   UNL     1       9.773  -2.655  24.316  0.00  0.00    +0.056 C 
BRANCH  30  31
ATOM     31  C   UNL     1       9.100  -4.008  24.592  0.00  0.00    +0.087 C 
BRANCH  31  32
ATOM     32  N   UNL     1       7.831  -3.949  25.361  0.00  0.00    -0.302 NA
BRANCH  32  33
ATOM     33  C   UNL     1       7.760  -2.663  26.100  0.00  0.00    +0.084 C 
BRANCH  33  34
ATOM     34  C   UNL     1       6.652  -1.669  25.716  0.00  0.00    +0.015 C 
BRANCH  34  36
ATOM     35  C   UNL     1       6.277   0.330  24.250  0.00  0.00    +0.004 C 
ATOM     36  C   UNL     1       7.159  -0.278  25.334  0.00  0.00    -0.002 C 
ENDBRANCH  34  36
ENDBRANCH  33  34
ENDBRANCH  32  33
BRANCH  32  37
ATOM     37  C   UNL     1       6.663  -4.101  24.460  0.00  0.00    +0.084 C 
BRANCH  37  38
ATOM     38  C   UNL     1       6.857  -4.973  23.204  0.00  0.00    +0.015 C 
BRANCH  38  39
ATOM     39  C   UNL     1       6.185  -4.419  21.946  0.00  0.00    -0.002 C 
ATOM     40  C   UNL     1       5.802  -2.957  22.138  0.00  0.00    +0.004 C 
ENDBRANCH  38  39
ENDBRANCH  37  38
ENDBRANCH  32  37
ENDBRANCH  31  32
ENDBRANCH  30  31
ENDBRANCH  29  30
ENDBRANCH  28  29
ENDBRANCH  22  28
ENDBRANCH   1  25
TORSDOF 18
ENDMDL
MODEL 7
REMARK VINA RESULT:      -5.9      2.439      3.768
REMARK  Name = 
REMARK  22 active torsions:
REMARK  status: ('A' for Active; 'I' for Inactive)
REMARK    1  A    between atoms: C_1  and  C_2
REMARK    2  A    between atoms: C_2  and  C_3
REMARK    3  A    between atoms: C_3  and  C_4
REMARK    4  A    between atoms: C_4  and  N_5
REMARK    5  A    between atoms: N_5  and  C_6
REMARK    6  A    between atoms: N_5  and  C_10
REMARK    7  A    between atoms: C_6  and  C_7
REMARK    8  A    between atoms: C_7  and  C_8
REMARK    9  A    between atoms: C_8  and  C_9
REMARK   10  A    between atoms: C_10  and  C_11
REMARK   11  A    between atoms: C_11  and  C_12
REMARK   12  A    between atoms: C_12  and  O_13
REMARK   13  A    between atoms: O_13  and  C_14
REMARK   14  A    between atoms: C_17  and  C_20
REMARK   15  A    between atoms: C_20  and  C_22
REMARK   16  A    between atoms: C_23  and  C_24
REMARK   17  A    between atoms: C_24  and  C_25
REMARK   18  A    between atoms: C_25  and  C_26
REMARK   19  A    between atoms: C_26  and  C_27
REMARK   20  A    between atoms: C_32  and  N_33
REMARK   21  A    between atoms: N_33  and  S_34
REMARK   22  A    between atoms: S_34  and  C_35
REMARK                            x       y       z     vdW  Elec       q    Type
REMARK                         _______ _______ _______ _____ _____    ______ ____
ROOT
ATOM      1  C   UNL     1       8.233  -4.252  25.569  0.00  0.00    +0.197 C 
ATOM      2  O   UNL     1       9.345  -4.759  25.682  0.00  0.00    -0.287 OA
ENDROOT
BRANCH   1   3
ATOM      3  C   UNL     1       7.153  -4.896  24.817  0.00  0.00    +0.071 A 
ATOM      4  C   UNL     1       6.033  -5.661  25.319  0.00  0.00    +0.033 A 
ATOM      5  C   UNL     1       5.540  -6.050  26.585  0.00  0.00    +0.036 A 
ATOM      6  C   UNL     1       4.411  -6.874  26.663  0.00  0.00    +0.048 A 
ATOM      7  C   UNL     1       3.710  -7.247  25.513  0.00  0.00    +0.028 A 
ATOM      8  C   UNL     1       4.143  -6.830  24.253  0.00  0.00    +0.049 A 
ATOM      9  C   UNL     1       5.302  -6.055  24.210  0.00  0.00    +0.136 A 
ATOM     10  O   UNL     1       5.856  -5.555  23.083  0.00  0.00    -0.459 OA
ATOM     11  C   UNL     1       6.939  -4.803  23.441  0.00  0.00    +0.117 A 
BRANCH   6  12
ATOM     12  N   UNL     1       3.975  -7.306  27.946  0.00  0.00    -0.221 N 
ATOM     13  H   UNL     1       3.619  -8.263  27.989  0.00  0.00    +0.173 HD
BRANCH  12  14
ATOM     14  S   UNL     1       2.946  -6.284  28.811  0.00  0.00    +0.040 S 
ATOM     15  O   UNL     1       1.608  -6.698  28.454  0.00  0.00    -0.155 OA
ATOM     16  O   UNL     1       3.373  -4.912  28.658  0.00  0.00    -0.155 OA
ATOM     17  C   UNL     1       3.247  -6.806  30.484  0.00  0.00    +0.218 C 
ENDBRANCH  12  14
ENDBRANCH   6  12
BRANCH  11  18
ATOM     18  C   UNL     1       7.490  -4.006  22.308  0.00  0.00    +0.075 C 
BRANCH  18  19
ATOM     19  C   UNL     1       7.766  -2.524  22.553  0.00  0.00    +0.007 C 
BRANCH  19  20
ATOM     20  C   UNL     1       6.441  -1.851  22.951  0.00  0.00    -0.003 C 
ATOM     21  C   UNL     1       6.590  -0.425  23.449  0.00  0.00    +0.004 C 
ENDBRANCH  19  20
ENDBRANCH  18  19
ENDBRANCH  11  18
ENDBRANCH   1   3
BRANCH   1  25
ATOM     22  C   UNL     1       7.486  -0.262  27.029  0.00  0.00    +0.121 A 
ATOM     23  C   UNL     1       6.488  -1.235  27.109  0.00  0.00    +0.046 A 
ATOM     24  C   UNL     1       6.743  -2.557  26.724  0.00  0.00    +0.015 A 
ATOM     25  C   UNL     1       7.988  -2.908  26.185  0.00  0.00    +0.023 A 
ATOM     26  C   UNL     1       9.012  -1.953  26.178  0.00  0.00    +0.015 A 
ATOM     27  C   UNL     1       8.762  -0.639  26.602  0.00  0.00    +0.046 A 
BRANCH  22  28
ATOM     28  O   UNL     1       7.092   1.003  27.379  0.00  0.00    -0.492 OA
BRANCH  28  29
ATOM     29  C   UNL     1       6.544   1.811  26.331  0.00  0.00    +0.230 C 
BRANCH  29  30
ATOM     30  C   UNL     1       7.481   2.985  26.059  0.00  0.00    +0.056 C 
BRANCH  30  31
ATOM     31  C   UNL     1       7.828   3.103  24.567  0.00  0.00    +0.087 C 
BRANCH  31  32
ATOM     32  N   UNL     1       9.031   3.913  24.249  0.00  0.00    -0.302 NA
BRANCH  32  33
ATOM     33  C   UNL     1       9.995   3.086  23.480  0.00  0.00    +0.084 C 
BRANCH  33  34
ATOM     34  C   UNL     1      10.448   1.749  24.090  0.00  0.00    +0.015 C 
BRANCH  34  36
ATOM     35  C   UNL     1       9.684   0.972  21.833  0.00  0.00    +0.004 C 
ATOM     36  C   UNL     1      10.193   0.533  23.200  0.00  0.00    -0.002 C 
ENDBRANCH  34  36
ENDBRANCH  33  34
ENDBRANCH  32  33
BRANCH  32  37
ATOM     37  C   UNL     1       8.659   5.129  23.487  0.00  0.00    +0.084 C 
BRANCH  37  38
ATOM     38  C   UNL     1       9.627   6.326  23.561  0.00  0.00    +0.015 C 
BRANCH  38  39
ATOM     39  C   UNL     1      10.457   6.380  24.845  0.00  0.00    -0.002 C 
ATOM     40  C   UNL     1      11.947   6.359  24.528  0.00  0.00    +0.004 C 
ENDBRANCH  38  39
ENDBRANCH  37  38
ENDBRANCH  32  37
ENDBRANCH  31  32
ENDBRANCH  30  31
ENDBRANCH  29  30
ENDBRANCH  28  29
ENDBRANCH  22  28
ENDBRANCH   1  25
TORSDOF 18
ENDMDL
MODEL 8
REMARK VINA RESULT:      -5.8      3.345      8.787
REMARK  Name = 
REMARK  22 active torsions:
REMARK  status: ('A' for Active; 'I' for Inactive)
REMARK    1  A    between atoms: C_1  and  C_2
REMARK    2  A    between atoms: C_2  and  C_3
REMARK    3  A    between atoms: C_3  and  C_4
REMARK    4  A    between atoms: C_4  and  N_5
REMARK    5  A    between atoms: N_5  and  C_6
REMARK    6  A    between atoms: N_5  and  C_10
REMARK    7  A    between atoms: C_6  and  C_7
REMARK    8  A    between atoms: C_7  and  C_8
REMARK    9  A    between atoms: C_8  and  C_9
REMARK   10  A    between atoms: C_10  and  C_11
REMARK   11  A    between atoms: C_11  and  C_12
REMARK   12  A    between atoms: C_12  and  O_13
REMARK   13  A    between atoms: O_13  and  C_14
REMARK   14  A    between atoms: C_17  and  C_20
REMARK   15  A    between atoms: C_20  and  C_22
REMARK   16  A    between atoms: C_23  and  C_24
REMARK   17  A    between atoms: C_24  and  C_25
REMARK   18  A    between atoms: C_25  and  C_26
REMARK   19  A    between atoms: C_26  and  C_27
REMARK   20  A    between atoms: C_32  and  N_33
REMARK   21  A    between atoms: N_33  and  S_34
REMARK   22  A    between atoms: S_34  and  C_35
REMARK                            x       y       z     vdW  Elec       q    Type
REMARK                         _______ _______ _______ _____ _____    ______ ____
ROOT
ATOM      1  C   UNL     1       7.999   3.913  22.835  0.00  0.00    +0.197 C 
ATOM      2  O   UNL     1       7.335   4.319  21.885  0.00  0.00    -0.287 OA
ENDROOT
BRANCH   1   3
ATOM      3  C   UNL     1       8.095   4.654  24.095  0.00  0.00    +0.071 A 
ATOM      4  C   UNL     1       7.399   4.415  25.340  0.00  0.00    +0.033 A 
ATOM      5  C   UNL     1       6.467   3.473  25.831  0.00  0.00    +0.036 A 
ATOM      6  C   UNL     1       5.962   3.614  27.130  0.00  0.00    +0.048 A 
ATOM      7  C   UNL     1       6.431   4.619  27.980  0.00  0.00    +0.028 A 
ATOM      8  C   UNL     1       7.394   5.529  27.539  0.00  0.00    +0.049 A 
ATOM      9  C   UNL     1       7.833   5.391  26.223  0.00  0.00    +0.136 A 
ATOM     10  O   UNL     1       8.767   6.172  25.634  0.00  0.00    -0.459 OA
ATOM     11  C   UNL     1       8.977   5.699  24.369  0.00  0.00    +0.117 A 
BRANCH   6  12
ATOM     12  N   UNL     1       4.976   2.692  27.576  0.00  0.00    -0.221 N 
ATOM     13  H   UNL     1       5.264   1.712  27.588  0.00  0.00    +0.173 HD
BRANCH  12  14
ATOM     14  S   UNL     1       3.428   2.814  26.910  0.00  0.00    +0.040 S 
ATOM     15  O   UNL     1       3.345   1.747  25.940  0.00  0.00    -0.155 OA
ATOM     16  O   UNL     1       3.158   4.185  26.543  0.00  0.00    -0.155 OA
ATOM     17  C   UNL     1       2.407   2.369  28.296  0.00  0.00    +0.218 C 
ENDBRANCH  12  14
ENDBRANCH   6  12
BRANCH  11  18
ATOM     18  C   UNL     1      10.156   6.328  23.706  0.00  0.00    +0.075 C 
BRANCH  18  19
ATOM     19  C   UNL     1      11.542   5.975  24.242  0.00  0.00    +0.007 C 
BRANCH  19  20
ATOM     20  C   UNL     1      12.178   4.953  23.282  0.00  0.00    -0.003 C 
ATOM     21  C   UNL     1      13.217   5.541  22.345  0.00  0.00    +0.004 C 
ENDBRANCH  19  20
ENDBRANCH  18  19
ENDBRANCH  11  18
ENDBRANCH   1   3
BRANCH   1  25
ATOM     22  C   UNL     1      10.026   0.110  22.637  0.00  0.00    +0.121 A 
ATOM     23  C   UNL     1       9.101   0.462  21.652  0.00  0.00    +0.046 A 
ATOM     24  C   UNL     1       8.503   1.729  21.651  0.00  0.00    +0.015 A 
ATOM     25  C   UNL     1       8.771   2.638  22.682  0.00  0.00    +0.023 A 
ATOM     26  C   UNL     1       9.756   2.315  23.625  0.00  0.00    +0.015 A 
ATOM     27  C   UNL     1      10.381   1.059  23.598  0.00  0.00    +0.046 A 
BRANCH  22  28
ATOM     28  O   UNL     1      10.492  -1.176  22.560  0.00  0.00    -0.492 OA
BRANCH  28  29
ATOM     29  C   UNL     1       9.517  -2.216  22.692  0.00  0.00    +0.230 C 
BRANCH  29  30
ATOM     30  C   UNL     1       9.677  -2.885  24.055  0.00  0.00    +0.056 C 
BRANCH  30  31
ATOM     31  C   UNL     1       8.342  -3.436  24.580  0.00  0.00    +0.087 C 
BRANCH  31  32
ATOM     32  N   UNL     1       7.128  -2.702  24.142  0.00  0.00    -0.302 NA
BRANCH  32  33
ATOM     33  C   UNL     1       6.048  -3.672  23.832  0.00  0.00    +0.084 C 
BRANCH  33  34
ATOM     34  C   UNL     1       6.380  -5.171  23.909  0.00  0.00    +0.015 C 
BRANCH  34  36
ATOM     35  C   UNL     1       7.123  -5.729  21.581  0.00  0.00    +0.004 C 
ATOM     36  C   UNL     1       6.050  -5.956  22.639  0.00  0.00    -0.002 C 
ENDBRANCH  34  36
ENDBRANCH  33  34
ENDBRANCH  32  33
BRANCH  32  37
ATOM     37  C   UNL     1       6.689  -1.745  25.186  0.00  0.00    +0.084 C 
BRANCH  37  38
ATOM     38  C   UNL     1       7.094  -0.270  24.998  0.00  0.00    +0.015 C 
BRANCH  38  39
ATOM     39  C   UNL     1       7.953   0.293  26.133  0.00  0.00    -0.002 C 
ATOM     40  C   UNL     1       8.544  -0.832  26.973  0.00  0.00    +0.004 C 
ENDBRANCH  38  39
ENDBRANCH  37  38
ENDBRANCH  32  37
ENDBRANCH  31  32
ENDBRANCH  30  31
ENDBRANCH  29  30
ENDBRANCH  28  29
ENDBRANCH  22  28
ENDBRANCH   1  25
TORSDOF 18
ENDMDL
MODEL 9
REMARK VINA RESULT:      -5.8      3.043      6.041
REMARK  Name = 
REMARK  22 active torsions:
REMARK  status: ('A' for Active; 'I' for Inactive)
REMARK    1  A    between atoms: C_1  and  C_2
REMARK    2  A    between atoms: C_2  and  C_3
REMARK    3  A    between atoms: C_3  and  C_4
REMARK    4  A    between atoms: C_4  and  N_5
REMARK    5  A    between atoms: N_5  and  C_6
REMARK    6  A    between atoms: N_5  and  C_10
REMARK    7  A    between atoms: C_6  and  C_7
REMARK    8  A    between atoms: C_7  and  C_8
REMARK    9  A    between atoms: C_8  and  C_9
REMARK   10  A    between atoms: C_10  and  C_11
REMARK   11  A    between atoms: C_11  and  C_12
REMARK   12  A    between atoms: C_12  and  O_13
REMARK   13  A    between atoms: O_13  and  C_14
REMARK   14  A    between atoms: C_17  and  C_20
REMARK   15  A    between atoms: C_20  and  C_22
REMARK   16  A    between atoms: C_23  and  C_24
REMARK   17  A    between atoms: C_24  and  C_25
REMARK   18  A    between atoms: C_25  and  C_26
REMARK   19  A    between atoms: C_26  and  C_27
REMARK   20  A    between atoms: C_32  and  N_33
REMARK   21  A    between atoms: N_33  and  S_34
REMARK   22  A    between atoms: S_34  and  C_35
REMARK                            x       y       z     vdW  Elec       q    Type
REMARK                         _______ _______ _______ _____ _____    ______ ____
ROOT
ATOM      1  C   UNL     1       7.564  -3.989  26.433  0.00  0.00    +0.197 C 
ATOM      2  O   UNL     1       8.037  -4.859  27.159  0.00  0.00    -0.287 OA
ENDROOT
BRANCH   1   3
ATOM      3  C   UNL     1       6.126  -3.883  26.175  0.00  0.00    +0.071 A 
ATOM      4  C   UNL     1       5.187  -2.905  26.678  0.00  0.00    +0.033 A 
ATOM      5  C   UNL     1       5.241  -1.761  27.506  0.00  0.00    +0.036 A 
ATOM      6  C   UNL     1       4.058  -1.081  27.821  0.00  0.00    +0.048 A 
ATOM      7  C   UNL     1       2.836  -1.462  27.260  0.00  0.00    +0.028 A 
ATOM      8  C   UNL     1       2.764  -2.555  26.395  0.00  0.00    +0.049 A 
ATOM      9  C   UNL     1       3.953  -3.240  26.146  0.00  0.00    +0.136 A 
ATOM     10  O   UNL     1       4.072  -4.310  25.327  0.00  0.00    -0.459 OA
ATOM     11  C   UNL     1       5.389  -4.669  25.289  0.00  0.00    +0.117 A 
BRANCH   6  12
ATOM     12  N   UNL     1       4.130   0.027  28.709  0.00  0.00    -0.221 N 
ATOM     13  H   UNL     1       3.251   0.283  29.165  0.00  0.00    +0.173 HD
BRANCH  12  14
ATOM     14  S   UNL     1       4.908   1.424  28.163  0.00  0.00    +0.040 S 
ATOM     15  O   UNL     1       4.443   1.613  26.808  0.00  0.00    -0.155 OA
ATOM     16  O   UNL     1       6.318   1.353  28.470  0.00  0.00    -0.155 OA
ATOM     17  C   UNL     1       4.150   2.674  29.176  0.00  0.00    +0.218 C 
ENDBRANCH  12  14
ENDBRANCH   6  12
BRANCH  11  18
ATOM     18  C   UNL     1       5.681  -5.682  24.235  0.00  0.00    +0.075 C 
BRANCH  18  19
ATOM     19  C   UNL     1       4.941  -5.555  22.905  0.00  0.00    +0.007 C 
BRANCH  19  20
ATOM     20  C   UNL     1       5.923  -5.915  21.776  0.00  0.00    -0.003 C 
ATOM     21  C   UNL     1       7.275  -5.234  21.886  0.00  0.00    +0.004 C 
ENDBRANCH  19  20
ENDBRANCH  18  19
ENDBRANCH  11  18
ENDBRANCH   1   3
BRANCH   1  25
ATOM     22  C   UNL     1       9.998  -1.166  24.260  0.00  0.00    +0.121 A 
ATOM     23  C   UNL     1       9.427  -0.804  25.481  0.00  0.00    +0.046 A 
ATOM     24  C   UNL     1       8.711  -1.736  26.243  0.00  0.00    +0.015 A 
ATOM     25  C   UNL     1       8.496  -3.031  25.755  0.00  0.00    +0.023 A 
ATOM     26  C   UNL     1       9.133  -3.418  24.569  0.00  0.00    +0.015 A 
ATOM     27  C   UNL     1       9.883  -2.490  23.829  0.00  0.00    +0.046 A 
BRANCH  22  28
ATOM     28  O   UNL     1      10.620  -0.148  23.586  0.00  0.00    -0.492 OA
BRANCH  28  29
ATOM     29  C   UNL     1      10.756   1.091  24.290  0.00  0.00    +0.230 C 
BRANCH  29  30
ATOM     30  C   UNL     1      10.329   2.237  23.377  0.00  0.00    +0.056 C 
BRANCH  30  31
ATOM     31  C   UNL     1       9.587   1.729  22.131  0.00  0.00    +0.087 C 
BRANCH  31  32
ATOM     32  N   UNL     1       8.203   2.238  21.955  0.00  0.00    -0.302 NA
BRANCH  32  33
ATOM     33  C   UNL     1       7.235   1.201  22.390  0.00  0.00    +0.084 C 
BRANCH  33  34
ATOM     34  C   UNL     1       6.900   1.108  23.888  0.00  0.00    +0.015 C 
BRANCH  34  36
ATOM     35  C   UNL     1       6.367  -1.280  23.341  0.00  0.00    +0.004 C 
ATOM     36  C   UNL     1       6.063  -0.112  24.272  0.00  0.00    -0.002 C 
ENDBRANCH  34  36
ENDBRANCH  33  34
ENDBRANCH  32  33
BRANCH  32  37
ATOM     37  C   UNL     1       8.005   3.494  22.718  0.00  0.00    +0.084 C 
BRANCH  37  38
ATOM     38  C   UNL     1       6.934   4.470  22.193  0.00  0.00    +0.015 C 
BRANCH  38  39
ATOM     39  C   UNL     1       7.384   5.933  22.159  0.00  0.00    -0.002 C 
ATOM     40  C   UNL     1       6.776   6.713  23.317  0.00  0.00    +0.004 C 
ENDBRANCH  38  39
ENDBRANCH  37  38
ENDBRANCH  32  37
ENDBRANCH  31  32
ENDBRANCH  30  31
ENDBRANCH  29  30
ENDBRANCH  28  29
ENDBRANCH  22  28
ENDBRANCH   1  25
TORSDOF 18
ENDMDL
