MODEL 1
REMARK VINA RESULT:      -3.8      0.000      0.000
REMARK  Name = 
REMARK  6 active torsions:
REMARK  status: ('A' for Active; 'I' for Inactive)
REMARK    1  A    between atoms: N_1  and  C_2
REMARK    2  A    between atoms: C_2  and  C_3
REMARK    3  A    between atoms: C_3  and  C_5
REMARK    4  A    between atoms: C_5  and  C_6
REMARK    5  A    between atoms: C_6  and  C_7
REMARK    6  A    between atoms: C_7  and  O_8
REMARK                            x       y       z     vdW  Elec       q    Type
REMARK                         _______ _______ _______ _____ _____    ______ ____
ROOT
ATOM      1  C   UNL     1       9.847  -0.846  23.824  0.00  0.00    +0.147 C 
ATOM      2  O   UNL     1       8.763  -1.149  24.333  0.00  0.00    -0.296 OA
ENDROOT
BRANCH   1   3
ATOM      3  C   UNL     1      10.364  -1.478  22.536  0.00  0.00    +0.152 C 
BRANCH   3   4
ATOM      4  N   UNL     1       9.767  -0.817  21.376  0.00  0.00    -0.324 NA
ATOM      5  H   UNL     1       8.950  -1.356  21.075  0.00  0.00    +0.119 HD
ATOM      6  H   UNL     1       9.425   0.105  21.640  0.00  0.00    +0.119 HD
ENDBRANCH   3   4
ENDBRANCH   1   3
BRANCH   1   7
ATOM      7  C   UNL     1      10.605   0.322  24.403  0.00  0.00    +0.087 C 
BRANCH   7   8
ATOM      8  C   UNL     1       9.894   1.623  24.082  0.00  0.00    +0.128 C 
BRANCH   8   9
ATOM      9  C   UNL     1      10.466   2.521  23.005  0.00  0.00    +0.305 C 
ATOM     10  O   UNL     1      11.164   3.484  23.299  0.00  0.00    -0.251 OA
BRANCH   9  11
ATOM     11  O   UNL     1      10.210   2.222  21.723  0.00  0.00    -0.481 OA
ATOM     12  H   UNL     1       9.385   1.733  21.497  0.00  0.00    +0.295 HD
ENDBRANCH   9  11
ENDBRANCH   8   9
ENDBRANCH   7   8
ENDBRANCH   1   7
TORSDOF 6
ENDMDL
MODEL 2
REMARK VINA RESULT:      -3.7      3.933      6.061
REMARK  Name = 
REMARK  6 active torsions:
REMARK  status: ('A' for Active; 'I' for Inactive)
REMARK    1  A    between atoms: N_1  and  C_2
REMARK    2  A    between atoms: C_2  and  C_3
REMARK    3  A    between atoms: C_3  and  C_5
REMARK    4  A    between atoms: C_5  and  C_6
REMARK    5  A    between atoms: C_6  and  C_7
REMARK    6  A    between atoms: C_7  and  O_8
REMARK                            x       y       z     vdW  Elec       q    Type
REMARK                         _______ _______ _______ _____ _____    ______ ____
ROOT
ATOM      1  C   UNL     1       9.134  -2.673  23.486  0.00  0.00    +0.147 C 
ATOM      2  O   UNL     1      10.282  -2.978  23.824  0.00  0.00    -0.296 OA
ENDROOT
BRANCH   1   3
ATOM      3  C   UNL     1       8.824  -1.896  22.211  0.00  0.00    +0.152 C 
BRANCH   3   4
ATOM      4  N   UNL     1      10.067  -1.491  21.554  0.00  0.00    -0.324 NA
ATOM      5  H   UNL     1      10.169  -2.024  20.686  0.00  0.00    +0.119 HD
ATOM      6  H   UNL     1      10.015  -0.510  21.289  0.00  0.00    +0.119 HD
ENDBRANCH   3   4
ENDBRANCH   1   3
BRANCH   1   7
ATOM      7  C   UNL     1       7.982  -3.245  24.274  0.00  0.00    +0.087 C 
BRANCH   7   8
ATOM      8  C   UNL     1       8.093  -4.756  24.347  0.00  0.00    +0.128 C 
BRANCH   8   9
ATOM      9  C   UNL     1       8.694  -5.385  25.586  0.00  0.00    +0.305 C 
ATOM     10  O   UNL     1       7.976  -5.785  26.495  0.00  0.00    -0.251 OA
BRANCH   9  11
ATOM     11  O   UNL     1      10.027  -5.515  25.654  0.00  0.00    -0.481 OA
ATOM     12  H   UNL     1      10.565  -4.776  26.024  0.00  0.00    +0.295 HD
ENDBRANCH   9  11
ENDBRANCH   8   9
ENDBRANCH   7   8
ENDBRANCH   1   7
TORSDOF 6
ENDMDL
MODEL 3
REMARK VINA RESULT:      -3.7      1.888      3.619
REMARK  Name = 
REMARK  6 active torsions:
REMARK  status: ('A' for Active; 'I' for Inactive)
REMARK    1  A    between atoms: N_1  and  C_2
REMARK    2  A    between atoms: C_2  and  C_3
REMARK    3  A    between atoms: C_3  and  C_5
REMARK    4  A    between atoms: C_5  and  C_6
REMARK    5  A    between atoms: C_6  and  C_7
REMARK    6  A    between atoms: C_7  and  O_8
REMARK                            x       y       z     vdW  Elec       q    Type
REMARK                         _______ _______ _______ _____ _____    ______ ____
ROOT
ATOM      1  C   UNL     1       9.982   1.830  24.043  0.00  0.00    +0.147 C 
ATOM      2  O   UNL     1       9.173   2.396  24.785  0.00  0.00    -0.296 OA
ENDROOT
BRANCH   1   3
ATOM      3  C   UNL     1      10.495   2.449  22.748  0.00  0.00    +0.152 C 
BRANCH   3   4
ATOM      4  N   UNL     1       9.766   1.900  21.605  0.00  0.00    -0.324 NA
ATOM      5  H   UNL     1      10.347   1.996  20.768  0.00  0.00    +0.119 HD
ATOM      6  H   UNL     1       9.611   0.903  21.739  0.00  0.00    +0.119 HD
ENDBRANCH   3   4
ENDBRANCH   1   3
BRANCH   1   7
ATOM      7  C   UNL     1      10.622   0.553  24.529  0.00  0.00    +0.087 C 
BRANCH   7   8
ATOM      8  C   UNL     1       9.712  -0.629  24.256  0.00  0.00    +0.128 C 
BRANCH   8   9
ATOM      9  C   UNL     1      10.115  -1.631  23.195  0.00  0.00    +0.305 C 
ATOM     10  O   UNL     1      10.299  -2.807  23.483  0.00  0.00    -0.251 OA
BRANCH   9  11
ATOM     11  O   UNL     1      10.241  -1.205  21.930  0.00  0.00    -0.481 OA
ATOM     12  H   UNL     1      11.113  -0.864  21.620  0.00  0.00    +0.295 HD
ENDBRANCH   9  11
ENDBRANCH   8   9
ENDBRANCH   7   8
ENDBRANCH   1   7
TORSDOF 6
ENDMDL
MODEL 4
REMARK VINA RESULT:      -3.6      2.317      2.718
REMARK  Name = 
REMARK  6 active torsions:
REMARK  status: ('A' for Active; 'I' for Inactive)
REMARK    1  A    between atoms: N_1  and  C_2
REMARK    2  A    between atoms: C_2  and  C_3
REMARK    3  A    between atoms: C_3  and  C_5
REMARK    4  A    between atoms: C_5  and  C_6
REMARK    5  A    between atoms: C_6  and  C_7
REMARK    6  A    between atoms: C_7  and  O_8
REMARK                            x       y       z     vdW  Elec       q    Type
REMARK                         _______ _______ _______ _____ _____    ______ ____
ROOT
ATOM      1  C   UNL     1       9.763  -2.069  23.513  0.00  0.00    +0.147 C 
ATOM      2  O   UNL     1      10.709  -2.291  22.750  0.00  0.00    -0.296 OA
ENDROOT
BRANCH   1   3
ATOM      3  C   UNL     1       8.974  -3.177  24.200  0.00  0.00    +0.152 C 
BRANCH   3   4
ATOM      4  N   UNL     1       9.875  -4.250  24.621  0.00  0.00    -0.324 NA
ATOM      5  H   UNL     1      10.123  -4.811  23.802  0.00  0.00    +0.119 HD
ATOM      6  H   UNL     1      10.742  -3.854  24.977  0.00  0.00    +0.119 HD
ENDBRANCH   3   4
ENDBRANCH   1   3
BRANCH   1   7
ATOM      7  C   UNL     1       9.494  -0.641  23.917  0.00  0.00    +0.087 C 
BRANCH   7   8
ATOM      8  C   UNL     1      10.404   0.303  23.155  0.00  0.00    +0.128 C 
BRANCH   8   9
ATOM      9  C   UNL     1       9.870   0.995  21.920  0.00  0.00    +0.305 C 
ATOM     10  O   UNL     1       9.100   0.417  21.162  0.00  0.00    -0.251 OA
BRANCH   9  11
ATOM     11  O   UNL     1      10.240   2.263  21.688  0.00  0.00    -0.481 OA
ATOM     12  H   UNL     1      10.344   2.882  22.449  0.00  0.00    +0.295 HD
ENDBRANCH   9  11
ENDBRANCH   8   9
ENDBRANCH   7   8
ENDBRANCH   1   7
TORSDOF 6
ENDMDL
MODEL 5
REMARK VINA RESULT:      -3.6      6.830      7.570
REMARK  Name = 
REMARK  6 active torsions:
REMARK  status: ('A' for Active; 'I' for Inactive)
REMARK    1  A    between atoms: N_1  and  C_2
REMARK    2  A    between atoms: C_2  and  C_3
REMARK    3  A    between atoms: C_3  and  C_5
REMARK    4  A    between atoms: C_5  and  C_6
REMARK    5  A    between atoms: C_6  and  C_7
REMARK    6  A    between atoms: C_7  and  O_8
REMARK                            x       y       z     vdW  Elec       q    Type
REMARK                         _______ _______ _______ _____ _____    ______ ____
ROOT
ATOM      1  C   UNL     1       8.144  -5.012  24.919  0.00  0.00    +0.147 C 
ATOM      2  O   UNL     1       9.149  -5.446  24.346  0.00  0.00    -0.296 OA
ENDROOT
BRANCH   1   3
ATOM      3  C   UNL     1       8.137  -4.606  26.388  0.00  0.00    +0.152 C 
BRANCH   3   4
ATOM      4  N   UNL     1       7.954  -5.784  27.235  0.00  0.00    -0.324 NA
ATOM      5  H   UNL     1       7.765  -6.593  26.636  0.00  0.00    +0.119 HD
ATOM      6  H   UNL     1       8.816  -5.989  27.736  0.00  0.00    +0.119 HD
ENDBRANCH   3   4
ENDBRANCH   1   3
BRANCH   1   7
ATOM      7  C   UNL     1       6.925  -4.706  24.085  0.00  0.00    +0.087 C 
BRANCH   7   8
ATOM      8  C   UNL     1       7.263  -4.782  22.609  0.00  0.00    +0.128 C 
BRANCH   8   9
ATOM      9  C   UNL     1       6.417  -5.658  21.710  0.00  0.00    +0.305 C 
ATOM     10  O   UNL     1       6.008  -5.240  20.633  0.00  0.00    -0.251 OA
BRANCH   9  11
ATOM     11  O   UNL     1       6.145  -6.909  22.110  0.00  0.00    -0.481 OA
ATOM     12  H   UNL     1       6.782  -7.376  22.700  0.00  0.00    +0.295 HD
ENDBRANCH   9  11
ENDBRANCH   8   9
ENDBRANCH   7   8
ENDBRANCH   1   7
TORSDOF 6
ENDMDL
MODEL 6
REMARK VINA RESULT:      -3.6      2.098      2.695
REMARK  Name = 
REMARK  6 active torsions:
REMARK  status: ('A' for Active; 'I' for Inactive)
REMARK    1  A    between atoms: N_1  and  C_2
REMARK    2  A    between atoms: C_2  and  C_3
REMARK    3  A    between atoms: C_3  and  C_5
REMARK    4  A    between atoms: C_5  and  C_6
REMARK    5  A    between atoms: C_6  and  C_7
REMARK    6  A    between atoms: C_7  and  O_8
REMARK                            x       y       z     vdW  Elec       q    Type
REMARK                         _______ _______ _______ _____ _____    ______ ____
ROOT
ATOM      1  C   UNL     1       9.857  -1.363  23.761  0.00  0.00    +0.147 C 
ATOM      2  O   UNL     1       9.882  -2.588  23.922  0.00  0.00    -0.296 OA
ENDROOT
BRANCH   1   3
ATOM      3  C   UNL     1       9.446  -0.391  24.860  0.00  0.00    +0.152 C 
BRANCH   3   4
ATOM      4  N   UNL     1      10.551   0.516  25.169  0.00  0.00    -0.324 NA
ATOM      5  H   UNL     1      11.226   0.485  24.400  0.00  0.00    +0.119 HD
ATOM      6  H   UNL     1      10.211   1.474  25.218  0.00  0.00    +0.119 HD
ENDBRANCH   3   4
ENDBRANCH   1   3
BRANCH   1   7
ATOM      7  C   UNL     1      10.425  -0.801  22.482  0.00  0.00    +0.087 C 
BRANCH   7   8
ATOM      8  C   UNL     1       9.313  -0.257  21.606  0.00  0.00    +0.128 C 
BRANCH   8   9
ATOM      9  C   UNL     1       9.079   1.238  21.566  0.00  0.00    +0.305 C 
ATOM     10  O   UNL     1       7.942   1.693  21.533  0.00  0.00    -0.251 OA
BRANCH   9  11
ATOM     11  O   UNL     1      10.145   2.051  21.593  0.00  0.00    -0.481 OA
ATOM     12  H   UNL     1      10.017   3.008  21.793  0.00  0.00    +0.295 HD
ENDBRANCH   9  11
ENDBRANCH   8   9
ENDBRANCH   7   8
ENDBRANCH   1   7
TORSDOF 6
ENDMDL
MODEL 7
REMARK VINA RESULT:      -3.4      1.534      3.577
REMARK  Name = 
REMARK  6 active torsions:
REMARK  status: ('A' for Active; 'I' for Inactive)
REMARK    1  A    between atoms: N_1  and  C_2
REMARK    2  A    between atoms: C_2  and  C_3
REMARK    3  A    between atoms: C_3  and  C_5
REMARK    4  A    between atoms: C_5  and  C_6
REMARK    5  A    between atoms: C_6  and  C_7
REMARK    6  A    between atoms: C_7  and  O_8
REMARK                            x       y       z     vdW  Elec       q    Type
REMARK                         _______ _______ _______ _____ _____    ______ ____
ROOT
ATOM      1  C   UNL     1      10.066   0.791  22.384  0.00  0.00    +0.147 C 
ATOM      2  O   UNL     1      10.197   1.870  21.796  0.00  0.00    -0.296 OA
ENDROOT
BRANCH   1   3
ATOM      3  C   UNL     1       9.505  -0.457  21.710  0.00  0.00    +0.152 C 
BRANCH   3   4
ATOM      4  N   UNL     1      10.339  -1.616  22.024  0.00  0.00    -0.324 NA
ATOM      5  H   UNL     1      10.945  -1.812  21.222  0.00  0.00    +0.119 HD
ATOM      6  H   UNL     1      10.953  -1.400  22.806  0.00  0.00    +0.119 HD
ENDBRANCH   3   4
ENDBRANCH   1   3
BRANCH   1   7
ATOM      7  C   UNL     1      10.648   0.657  23.768  0.00  0.00    +0.087 C 
BRANCH   7   8
ATOM      8  C   UNL     1       9.545   0.683  24.808  0.00  0.00    +0.128 C 
BRANCH   8   9
ATOM      9  C   UNL     1       9.249  -0.578  25.592  0.00  0.00    +0.305 C 
ATOM     10  O   UNL     1       9.146  -1.658  25.024  0.00  0.00    -0.251 OA
BRANCH   9  11
ATOM     11  O   UNL     1       9.128  -0.487  26.925  0.00  0.00    -0.481 OA
ATOM     12  H   UNL     1       8.882  -1.289  27.442  0.00  0.00    +0.295 HD
ENDBRANCH   9  11
ENDBRANCH   8   9
ENDBRANCH   7   8
ENDBRANCH   1   7
TORSDOF 6
ENDMDL
MODEL 8
REMARK VINA RESULT:      -3.3      4.050      5.385
REMARK  Name = 
REMARK  6 active torsions:
REMARK  status: ('A' for Active; 'I' for Inactive)
REMARK    1  A    between atoms: N_1  and  C_2
REMARK    2  A    between atoms: C_2  and  C_3
REMARK    3  A    between atoms: C_3  and  C_5
REMARK    4  A    between atoms: C_5  and  C_6
REMARK    5  A    between atoms: C_6  and  C_7
REMARK    6  A    between atoms: C_7  and  O_8
REMARK                            x       y       z     vdW  Elec       q    Type
REMARK                         _______ _______ _______ _____ _____    ______ ____
ROOT
ATOM      1  C   UNL     1       7.775  -5.029  25.205  0.00  0.00    +0.147 C 
ATOM      2  O   UNL     1       6.614  -5.259  25.560  0.00  0.00    -0.296 OA
ENDROOT
BRANCH   1   3
ATOM      3  C   UNL     1       8.965  -5.122  26.153  0.00  0.00    +0.152 C 
BRANCH   3   4
ATOM      4  N   UNL     1      10.168  -5.503  25.414  0.00  0.00    -0.324 NA
ATOM      5  H   UNL     1      10.029  -5.283  24.424  0.00  0.00    +0.119 HD
ATOM      6  H   UNL     1      10.959  -4.945  25.727  0.00  0.00    +0.119 HD
ENDBRANCH   3   4
ENDBRANCH   1   3
BRANCH   1   7
ATOM      7  C   UNL     1       8.043  -4.821  23.736  0.00  0.00    +0.087 C 
BRANCH   7   8
ATOM      8  C   UNL     1       7.927  -3.350  23.383  0.00  0.00    +0.128 C 
BRANCH   8   9
ATOM      9  C   UNL     1       9.142  -2.462  23.546  0.00  0.00    +0.305 C 
ATOM     10  O   UNL     1      10.250  -2.946  23.739  0.00  0.00    -0.251 OA
BRANCH   9  11
ATOM     11  O   UNL     1       8.978  -1.134  23.451  0.00  0.00    -0.481 OA
ATOM     12  H   UNL     1       9.760  -0.543  23.555  0.00  0.00    +0.295 HD
ENDBRANCH   9  11
ENDBRANCH   8   9
ENDBRANCH   7   8
ENDBRANCH   1   7
TORSDOF 6
ENDMDL
MODEL 9
REMARK VINA RESULT:      -3.3      3.655      4.596
REMARK  Name = 
REMARK  6 active torsions:
REMARK  status: ('A' for Active; 'I' for Inactive)
REMARK    1  A    between atoms: N_1  and  C_2
REMARK    2  A    between atoms: C_2  and  C_3
REMARK    3  A    between atoms: C_3  and  C_5
REMARK    4  A    between atoms: C_5  and  C_6
REMARK    5  A    between atoms: C_6  and  C_7
REMARK    6  A    between atoms: C_7  and  O_8
REMARK                            x       y       z     vdW  Elec       q    Type
REMARK                         _______ _______ _______ _____ _____    ______ ____
ROOT
ATOM      1  C   UNL     1       8.440  -4.713  24.166  0.00  0.00    +0.147 C 
ATOM      2  O   UNL     1       9.327  -5.522  24.458  0.00  0.00    -0.296 OA
ENDROOT
BRANCH   1   3
ATOM      3  C   UNL     1       7.121  -5.124  23.522  0.00  0.00    +0.152 C 
BRANCH   3   4
ATOM      4  N   UNL     1       6.981  -4.487  22.213  0.00  0.00    -0.324 NA
ATOM      5  H   UNL     1       7.135  -5.192  21.487  0.00  0.00    +0.119 HD
ATOM      6  H   UNL     1       6.028  -4.149  22.092  0.00  0.00    +0.119 HD
ENDBRANCH   3   4
ENDBRANCH   1   3
BRANCH   1   7
ATOM      7  C   UNL     1       8.598  -3.286  24.628  0.00  0.00    +0.087 C 
BRANCH   7   8
ATOM      8  C   UNL     1       9.717  -2.605  23.863  0.00  0.00    +0.128 C 
BRANCH   8   9
ATOM      9  C   UNL     1       9.394  -1.923  22.551  0.00  0.00    +0.305 C 
ATOM     10  O   UNL     1       8.237  -1.657  22.251  0.00  0.00    -0.251 OA
BRANCH   9  11
ATOM     11  O   UNL     1      10.408  -1.595  21.736  0.00  0.00    -0.481 OA
ATOM     12  H   UNL     1      11.204  -2.176  21.699  0.00  0.00    +0.295 HD
ENDBRANCH   9  11
ENDBRANCH   8   9
ENDBRANCH   7   8
ENDBRANCH   1   7
TORSDOF 6
ENDMDL
