MODEL 1
REMARK VINA RESULT:      -6.8      0.000      0.000
REMARK  Name = 
REMARK  12 active torsions:
REMARK  status: ('A' for Active; 'I' for Inactive)
REMARK    1  A    between atoms: C_2  and  C_3
REMARK    2  A    between atoms: C_2  and  N_6
REMARK    3  A    between atoms: C_2  and  C_25
REMARK    4  A    between atoms: C_3  and  C_4
REMARK    5  A    between atoms: C_3  and  C_5
REMARK    6  A    between atoms: N_6  and  C_7
REMARK    7  A    between atoms: N_6  and  S_14
REMARK    8  A    between atoms: C_7  and  C_8
REMARK    9  A    between atoms: S_14  and  C_17
REMARK   10  A    between atoms: C_20  and  O_21
REMARK   11  A    between atoms: O_21  and  C_22
REMARK   12  A    between atoms: N_27  and  O_28
REMARK                            x       y       z     vdW  Elec       q    Type
REMARK                         _______ _______ _______ _____ _____    ______ ____
ROOT
ATOM      1  N   UNL     1       7.987  -1.995  23.645  0.00  0.00    -0.160 NA
ENDROOT
BRANCH   1   2
ATOM      2  S   UNL     1       9.464  -1.762  22.775  0.00  0.00    +0.062 S 
ATOM      3  O   UNL     1       9.189  -1.994  21.373  0.00  0.00    -0.153 OA
ATOM      4  O   UNL     1      10.523  -2.477  23.456  0.00  0.00    -0.153 OA
BRANCH   2   5
ATOM      5  C   UNL     1       9.905  -0.056  22.984  0.00  0.00    +0.106 A 
ATOM      6  C   UNL     1      10.658   0.354  24.087  0.00  0.00    +0.032 A 
ATOM      7  C   UNL     1      10.961   1.710  24.251  0.00  0.00    +0.047 A 
ATOM      8  C   UNL     1      10.488   2.651  23.334  0.00  0.00    +0.120 A 
ATOM      9  C   UNL     1       9.703   2.231  22.256  0.00  0.00    +0.047 A 
ATOM     10  C   UNL     1       9.396   0.881  22.084  0.00  0.00    +0.032 A 
BRANCH   8  11
ATOM     11  O   UNL     1      10.759   3.990  23.359  0.00  0.00    -0.495 OA
ATOM     12  C   UNL     1      12.128   4.365  23.280  0.00  0.00    +0.277 C 
ENDBRANCH   8  11
ENDBRANCH   2   5
ENDBRANCH   1   2
BRANCH   1  13
ATOM     13  C   UNL     1       7.646  -1.001  24.770  0.00  0.00    +0.170 C 
BRANCH  13  14
ATOM     14  C   UNL     1       6.242  -0.365  24.602  0.00  0.00    +0.255 C 
ATOM     15  N   UNL     1       6.221   0.832  23.920  0.00  0.00    -0.196 N 
ATOM     16  H   UNL     1       7.021   1.294  23.499  0.00  0.00    +0.182 HD
ATOM     17  O   UNL     1       5.196  -0.859  25.019  0.00  0.00    -0.272 OA
BRANCH  15  18
ATOM     18  O   UNL     1       4.975   1.477  23.776  0.00  0.00    -0.295 OA
ATOM     19  H   UNL     1       4.351   0.728  23.661  0.00  0.00    +0.241 HD
ENDBRANCH  15  18
ENDBRANCH  13  14
BRANCH  13  20
ATOM     20  C   UNL     1       7.793  -1.571  26.209  0.00  0.00    +0.011 C 
ATOM     21  C   UNL     1       8.242  -3.041  26.247  0.00  0.00    +0.009 C 
ATOM     22  C   UNL     1       8.715  -0.752  27.113  0.00  0.00    +0.009 C 
ENDBRANCH  13  20
ENDBRANCH   1  13
BRANCH   1  23
ATOM     23  C   UNL     1       6.824  -2.225  22.687  0.00  0.00    +0.147 C 
BRANCH  23  24
ATOM     24  C   UNL     1       6.234  -3.613  22.730  0.00  0.00    -0.014 A 
ATOM     25  C   UNL     1       4.870  -3.815  22.910  0.00  0.00    +0.115 A 
ATOM     26  N   UNL     1       4.247  -5.002  22.733  0.00  0.00    -0.263 NA
ATOM     27  C   UNL     1       5.025  -6.050  22.392  0.00  0.00    +0.111 A 
ATOM     28  C   UNL     1       6.401  -5.981  22.281  0.00  0.00    +0.020 A 
ATOM     29  C   UNL     1       7.010  -4.747  22.478  0.00  0.00    +0.008 A 
ENDBRANCH  23  24
ENDBRANCH   1  23
TORSDOF 9
ENDMDL
MODEL 2
REMARK VINA RESULT:      -6.8      2.407      5.399
REMARK  Name = 
REMARK  12 active torsions:
REMARK  status: ('A' for Active; 'I' for Inactive)
REMARK    1  A    between atoms: C_2  and  C_3
REMARK    2  A    between atoms: C_2  and  N_6
REMARK    3  A    between atoms: C_2  and  C_25
REMARK    4  A    between atoms: C_3  and  C_4
REMARK    5  A    between atoms: C_3  and  C_5
REMARK    6  A    between atoms: N_6  and  C_7
REMARK    7  A    between atoms: N_6  and  S_14
REMARK    8  A    between atoms: C_7  and  C_8
REMARK    9  A    between atoms: S_14  and  C_17
REMARK   10  A    between atoms: C_20  and  O_21
REMARK   11  A    between atoms: O_21  and  C_22
REMARK   12  A    between atoms: N_27  and  O_28
REMARK                            x       y       z     vdW  Elec       q    Type
REMARK                         _______ _______ _______ _____ _____    ______ ____
ROOT
ATOM      1  N   UNL     1       7.766  -0.670  23.955  0.00  0.00    -0.160 NA
ENDROOT
BRANCH   1   2
ATOM      2  S   UNL     1       9.185  -1.381  24.643  0.00  0.00    +0.062 S 
ATOM      3  O   UNL     1       9.705  -0.458  25.628  0.00  0.00    -0.153 OA
ATOM      4  O   UNL     1      10.023  -1.879  23.571  0.00  0.00    -0.153 OA
BRANCH   2   5
ATOM      5  C   UNL     1       8.652  -2.852  25.479  0.00  0.00    +0.106 A 
ATOM      6  C   UNL     1       9.218  -4.091  25.171  0.00  0.00    +0.032 A 
ATOM      7  C   UNL     1       8.755  -5.243  25.817  0.00  0.00    +0.047 A 
ATOM      8  C   UNL     1       7.712  -5.157  26.741  0.00  0.00    +0.120 A 
ATOM      9  C   UNL     1       7.129  -3.916  27.012  0.00  0.00    +0.047 A 
ATOM     10  C   UNL     1       7.584  -2.762  26.374  0.00  0.00    +0.032 A 
BRANCH   8  11
ATOM     11  O   UNL     1       7.211  -6.198  27.471  0.00  0.00    -0.495 OA
ATOM     12  C   UNL     1       6.110  -5.908  28.324  0.00  0.00    +0.277 C 
ENDBRANCH   8  11
ENDBRANCH   2   5
ENDBRANCH   1   2
BRANCH   1  13
ATOM     13  C   UNL     1       7.671   0.866  23.921  0.00  0.00    +0.170 C 
BRANCH  13  14
ATOM     14  C   UNL     1       8.265   1.475  22.624  0.00  0.00    +0.255 C 
ATOM     15  N   UNL     1       9.633   1.639  22.631  0.00  0.00    -0.196 N 
ATOM     16  H   UNL     1      10.264   1.365  23.377  0.00  0.00    +0.182 HD
ATOM     17  O   UNL     1       7.607   1.794  21.636  0.00  0.00    -0.272 OA
BRANCH  15  18
ATOM     18  O   UNL     1      10.223   2.230  21.494  0.00  0.00    -0.295 OA
ATOM     19  H   UNL     1      10.605   3.060  21.851  0.00  0.00    +0.241 HD
ENDBRANCH  15  18
ENDBRANCH  13  14
BRANCH  13  20
ATOM     20  C   UNL     1       6.244   1.435  24.159  0.00  0.00    +0.011 C 
ATOM     21  C   UNL     1       5.410   0.613  25.156  0.00  0.00    +0.009 C 
ATOM     22  C   UNL     1       6.221   2.901  24.590  0.00  0.00    +0.009 C 
ENDBRANCH  13  20
ENDBRANCH   1  13
BRANCH   1  23
ATOM     23  C   UNL     1       7.435  -1.312  22.613  0.00  0.00    +0.147 C 
BRANCH  23  24
ATOM     24  C   UNL     1       6.706  -2.631  22.705  0.00  0.00    -0.014 A 
ATOM     25  C   UNL     1       7.249  -3.797  22.178  0.00  0.00    +0.115 A 
ATOM     26  N   UNL     1       6.768  -5.037  22.420  0.00  0.00    -0.263 NA
ATOM     27  C   UNL     1       5.671  -5.121  23.200  0.00  0.00    +0.111 A 
ATOM     28  C   UNL     1       4.997  -4.020  23.697  0.00  0.00    +0.020 A 
ATOM     29  C   UNL     1       5.513  -2.760  23.421  0.00  0.00    +0.008 A 
ENDBRANCH  23  24
ENDBRANCH   1  23
TORSDOF 9
ENDMDL
MODEL 3
REMARK VINA RESULT:      -6.6      2.294      4.740
REMARK  Name = 
REMARK  12 active torsions:
REMARK  status: ('A' for Active; 'I' for Inactive)
REMARK    1  A    between atoms: C_2  and  C_3
REMARK    2  A    between atoms: C_2  and  N_6
REMARK    3  A    between atoms: C_2  and  C_25
REMARK    4  A    between atoms: C_3  and  C_4
REMARK    5  A    between atoms: C_3  and  C_5
REMARK    6  A    between atoms: N_6  and  C_7
REMARK    7  A    between atoms: N_6  and  S_14
REMARK    8  A    between atoms: C_7  and  C_8
REMARK    9  A    between atoms: S_14  and  C_17
REMARK   10  A    between atoms: C_20  and  O_21
REMARK   11  A    between atoms: O_21  and  C_22
REMARK   12  A    between atoms: N_27  and  O_28
REMARK                            x       y       z     vdW  Elec       q    Type
REMARK                         _______ _______ _______ _____ _____    ______ ____
ROOT
ATOM      1  N   UNL     1       8.376  -2.933  24.279  0.00  0.00    -0.160 NA
ENDROOT
BRANCH   1   2
ATOM      2  S   UNL     1       9.129  -2.035  23.007  0.00  0.00    +0.062 S 
ATOM      3  O   UNL     1       8.327  -2.204  21.815  0.00  0.00    -0.153 OA
ATOM      4  O   UNL     1      10.546  -2.335  23.002  0.00  0.00    -0.153 OA
BRANCH   2   5
ATOM      5  C   UNL     1       9.062  -0.330  23.491  0.00  0.00    +0.106 A 
ATOM      6  C   UNL     1       7.854   0.373  23.458  0.00  0.00    +0.032 A 
ATOM      7  C   UNL     1       7.832   1.727  23.808  0.00  0.00    +0.047 A 
ATOM      8  C   UNL     1       9.015   2.380  24.158  0.00  0.00    +0.120 A 
ATOM      9  C   UNL     1      10.222   1.675  24.150  0.00  0.00    +0.047 A 
ATOM     10  C   UNL     1      10.254   0.325  23.804  0.00  0.00    +0.032 A 
BRANCH   8  11
ATOM     11  O   UNL     1       9.113   3.681  24.567  0.00  0.00    -0.495 OA
ATOM     12  C   UNL     1      10.007   4.513  23.838  0.00  0.00    +0.277 C 
ENDBRANCH   8  11
ENDBRANCH   2   5
ENDBRANCH   1   2
BRANCH   1  13
ATOM     13  C   UNL     1       8.374  -4.469  24.176  0.00  0.00    +0.170 C 
BRANCH  13  14
ATOM     14  C   UNL     1       8.737  -5.159  25.517  0.00  0.00    +0.255 C 
ATOM     15  N   UNL     1       7.659  -5.541  26.286  0.00  0.00    -0.196 N 
ATOM     16  H   UNL     1       6.682  -5.445  26.035  0.00  0.00    +0.182 HD
ATOM     17  O   UNL     1       9.883  -5.379  25.902  0.00  0.00    -0.272 OA
BRANCH  15  18
ATOM     18  O   UNL     1       7.932  -6.134  27.537  0.00  0.00    -0.295 OA
ATOM     19  H   UNL     1       7.643  -7.063  27.407  0.00  0.00    +0.241 HD
ENDBRANCH  15  18
ENDBRANCH  13  14
BRANCH  13  20
ATOM     20  C   UNL     1       7.062  -5.082  23.611  0.00  0.00    +0.011 C 
ATOM     21  C   UNL     1       5.922  -4.062  23.452  0.00  0.00    +0.009 C 
ATOM     22  C   UNL     1       7.242  -5.828  22.288  0.00  0.00    +0.009 C 
ENDBRANCH  13  20
ENDBRANCH   1  13
BRANCH   1  23
ATOM     23  C   UNL     1       8.836  -2.432  25.643  0.00  0.00    +0.147 C 
BRANCH  23  24
ATOM     24  C   UNL     1       7.791  -1.674  26.424  0.00  0.00    -0.014 A 
ATOM     25  C   UNL     1       8.097  -0.490  27.085  0.00  0.00    +0.115 A 
ATOM     26  N   UNL     1       7.176   0.351  27.606  0.00  0.00    -0.263 NA
ATOM     27  C   UNL     1       5.884  -0.020  27.494  0.00  0.00    +0.111 A 
ATOM     28  C   UNL     1       5.475  -1.220  26.942  0.00  0.00    +0.020 A 
ATOM     29  C   UNL     1       6.450  -2.066  26.424  0.00  0.00    +0.008 A 
ENDBRANCH  23  24
ENDBRANCH   1  23
TORSDOF 9
ENDMDL
MODEL 4
REMARK VINA RESULT:      -6.6      2.319      3.875
REMARK  Name = 
REMARK  12 active torsions:
REMARK  status: ('A' for Active; 'I' for Inactive)
REMARK    1  A    between atoms: C_2  and  C_3
REMARK    2  A    between atoms: C_2  and  N_6
REMARK    3  A    between atoms: C_2  and  C_25
REMARK    4  A    between atoms: C_3  and  C_4
REMARK    5  A    between atoms: C_3  and  C_5
REMARK    6  A    between atoms: N_6  and  C_7
REMARK    7  A    between atoms: N_6  and  S_14
REMARK    8  A    between atoms: C_7  and  C_8
REMARK    9  A    between atoms: S_14  and  C_17
REMARK   10  A    between atoms: C_20  and  O_21
REMARK   11  A    between atoms: O_21  and  C_22
REMARK   12  A    between atoms: N_27  and  O_28
REMARK                            x       y       z     vdW  Elec       q    Type
REMARK                         _______ _______ _______ _____ _____    ______ ____
ROOT
ATOM      1  N   UNL     1       7.310  -2.076  24.500  0.00  0.00    -0.160 NA
ENDROOT
BRANCH   1   2
ATOM      2  S   UNL     1       6.480  -0.806  25.330  0.00  0.00    +0.062 S 
ATOM      3  O   UNL     1       6.890  -0.847  26.717  0.00  0.00    -0.153 OA
ATOM      4  O   UNL     1       5.079  -0.848  24.964  0.00  0.00    -0.153 OA
BRANCH   2   5
ATOM      5  C   UNL     1       7.055   0.715  24.620  0.00  0.00    +0.106 A 
ATOM      6  C   UNL     1       7.687   1.676  25.412  0.00  0.00    +0.032 A 
ATOM      7  C   UNL     1       8.098   2.884  24.838  0.00  0.00    +0.047 A 
ATOM      8  C   UNL     1       7.850   3.139  23.488  0.00  0.00    +0.120 A 
ATOM      9  C   UNL     1       7.183   2.184  22.716  0.00  0.00    +0.047 A 
ATOM     10  C   UNL     1       6.770   0.977  23.279  0.00  0.00    +0.032 A 
BRANCH   8  11
ATOM     11  O   UNL     1       8.247   4.254  22.805  0.00  0.00    -0.495 OA
ATOM     12  C   UNL     1       7.217   5.099  22.309  0.00  0.00    +0.277 C 
ENDBRANCH   8  11
ENDBRANCH   2   5
ENDBRANCH   1   2
BRANCH   1  13
ATOM     13  C   UNL     1       8.832  -2.195  24.695  0.00  0.00    +0.170 C 
BRANCH  13  14
ATOM     14  C   UNL     1       9.261  -3.588  25.224  0.00  0.00    +0.255 C 
ATOM     15  N   UNL     1       8.892  -3.858  26.523  0.00  0.00    -0.196 N 
ATOM     16  H   UNL     1       8.346  -3.253  27.127  0.00  0.00    +0.182 HD
ATOM     17  O   UNL     1       9.877  -4.425  24.567  0.00  0.00    -0.272 OA
BRANCH  15  18
ATOM     18  O   UNL     1       9.295  -5.094  27.071  0.00  0.00    -0.295 OA
ATOM     19  H   UNL     1       9.772  -4.828  27.886  0.00  0.00    +0.241 HD
ENDBRANCH  15  18
ENDBRANCH  13  14
BRANCH  13  20
ATOM     20  C   UNL     1       9.679  -1.825  23.446  0.00  0.00    +0.011 C 
ATOM     21  C   UNL     1       8.893  -1.888  22.126  0.00  0.00    +0.009 C 
ATOM     22  C   UNL     1      10.371  -0.465  23.541  0.00  0.00    +0.009 C 
ENDBRANCH  13  20
ENDBRANCH   1  13
BRANCH   1  23
ATOM     23  C   UNL     1       6.586  -3.405  24.681  0.00  0.00    +0.147 C 
BRANCH  23  24
ATOM     24  C   UNL     1       6.325  -4.163  23.401  0.00  0.00    -0.014 A 
ATOM     25  C   UNL     1       5.716  -3.555  22.309  0.00  0.00    +0.115 A 
ATOM     26  N   UNL     1       5.658  -4.095  21.072  0.00  0.00    -0.263 NA
ATOM     27  C   UNL     1       6.206  -5.319  20.918  0.00  0.00    +0.111 A 
ATOM     28  C   UNL     1       6.751  -6.052  21.956  0.00  0.00    +0.020 A 
ATOM     29  C   UNL     1       6.786  -5.469  23.218  0.00  0.00    +0.008 A 
ENDBRANCH  23  24
ENDBRANCH   1  23
TORSDOF 9
ENDMDL
MODEL 5
REMARK VINA RESULT:      -6.5      2.171      4.574
REMARK  Name = 
REMARK  12 active torsions:
REMARK  status: ('A' for Active; 'I' for Inactive)
REMARK    1  A    between atoms: C_2  and  C_3
REMARK    2  A    between atoms: C_2  and  N_6
REMARK    3  A    between atoms: C_2  and  C_25
REMARK    4  A    between atoms: C_3  and  C_4
REMARK    5  A    between atoms: C_3  and  C_5
REMARK    6  A    between atoms: N_6  and  C_7
REMARK    7  A    between atoms: N_6  and  S_14
REMARK    8  A    between atoms: C_7  and  C_8
REMARK    9  A    between atoms: S_14  and  C_17
REMARK   10  A    between atoms: C_20  and  O_21
REMARK   11  A    between atoms: O_21  and  C_22
REMARK   12  A    between atoms: N_27  and  O_28
REMARK                            x       y       z     vdW  Elec       q    Type
REMARK                         _______ _______ _______ _____ _____    ______ ____
ROOT
ATOM      1  N   UNL     1       8.321  -2.693  23.896  0.00  0.00    -0.160 NA
ENDROOT
BRANCH   1   2
ATOM      2  S   UNL     1       9.322  -1.885  22.739  0.00  0.00    +0.062 S 
ATOM      3  O   UNL     1       8.661  -1.966  21.454  0.00  0.00    -0.153 OA
ATOM      4  O   UNL     1      10.687  -2.339  22.906  0.00  0.00    -0.153 OA
BRANCH   2   5
ATOM      5  C   UNL     1       9.381  -0.182  23.232  0.00  0.00    +0.106 A 
ATOM      6  C   UNL     1      10.516   0.340  23.857  0.00  0.00    +0.032 A 
ATOM      7  C   UNL     1      10.525   1.676  24.271  0.00  0.00    +0.047 A 
ATOM      8  C   UNL     1       9.395   2.475  24.088  0.00  0.00    +0.120 A 
ATOM      9  C   UNL     1       8.252   1.929  23.496  0.00  0.00    +0.047 A 
ATOM     10  C   UNL     1       8.233   0.599  23.080  0.00  0.00    +0.032 A 
BRANCH   8  11
ATOM     11  O   UNL     1       9.301   3.801  24.403  0.00  0.00    -0.495 OA
ATOM     12  C   UNL     1       8.544   4.615  23.515  0.00  0.00    +0.277 C 
ENDBRANCH   8  11
ENDBRANCH   2   5
ENDBRANCH   1   2
BRANCH   1  13
ATOM     13  C   UNL     1       8.102  -4.208  23.729  0.00  0.00    +0.170 C 
BRANCH  13  14
ATOM     14  C   UNL     1       8.605  -5.024  24.948  0.00  0.00    +0.255 C 
ATOM     15  N   UNL     1       7.641  -5.330  25.883  0.00  0.00    -0.196 N 
ATOM     16  H   UNL     1       6.654  -5.104  25.820  0.00  0.00    +0.182 HD
ATOM     17  O   UNL     1       9.765  -5.401  25.106  0.00  0.00    -0.272 OA
BRANCH  15  18
ATOM     18  O   UNL     1       8.053  -6.033  27.035  0.00  0.00    -0.295 OA
ATOM     19  H   UNL     1       9.003  -5.795  27.110  0.00  0.00    +0.241 HD
ENDBRANCH  15  18
ENDBRANCH  13  14
BRANCH  13  20
ATOM     20  C   UNL     1       6.641  -4.620  23.391  0.00  0.00    +0.011 C 
ATOM     21  C   UNL     1       5.762  -3.449  22.920  0.00  0.00    +0.009 C 
ATOM     22  C   UNL     1       6.534  -5.755  22.373  0.00  0.00    +0.009 C 
ENDBRANCH  13  20
ENDBRANCH   1  13
BRANCH   1  23
ATOM     23  C   UNL     1       8.714  -2.306  25.317  0.00  0.00    +0.147 C 
BRANCH  23  24
ATOM     24  C   UNL     1       7.699  -1.461  26.046  0.00  0.00    -0.014 A 
ATOM     25  C   UNL     1       6.388  -1.891  26.220  0.00  0.00    +0.115 A 
ATOM     26  N   UNL     1       5.497  -1.300  27.047  0.00  0.00    -0.263 NA
ATOM     27  C   UNL     1       5.920  -0.205  27.713  0.00  0.00    +0.111 A 
ATOM     28  C   UNL     1       7.169   0.361  27.542  0.00  0.00    +0.020 A 
ATOM     29  C   UNL     1       8.058  -0.267  26.677  0.00  0.00    +0.008 A 
ENDBRANCH  23  24
ENDBRANCH   1  23
TORSDOF 9
ENDMDL
MODEL 6
REMARK VINA RESULT:      -6.5      2.922      4.986
REMARK  Name = 
REMARK  12 active torsions:
REMARK  status: ('A' for Active; 'I' for Inactive)
REMARK    1  A    between atoms: C_2  and  C_3
REMARK    2  A    between atoms: C_2  and  N_6
REMARK    3  A    between atoms: C_2  and  C_25
REMARK    4  A    between atoms: C_3  and  C_4
REMARK    5  A    between atoms: C_3  and  C_5
REMARK    6  A    between atoms: N_6  and  C_7
REMARK    7  A    between atoms: N_6  and  S_14
REMARK    8  A    between atoms: C_7  and  C_8
REMARK    9  A    between atoms: S_14  and  C_17
REMARK   10  A    between atoms: C_20  and  O_21
REMARK   11  A    between atoms: O_21  and  C_22
REMARK   12  A    between atoms: N_27  and  O_28
REMARK                            x       y       z     vdW  Elec       q    Type
REMARK                         _______ _______ _______ _____ _____    ______ ____
ROOT
ATOM      1  N   UNL     1       6.927  -4.324  24.740  0.00  0.00    -0.160 NA
ENDROOT
BRANCH   1   2
ATOM      2  S   UNL     1       8.593  -4.169  25.179  0.00  0.00    +0.062 S 
ATOM      3  O   UNL     1       9.331  -5.191  24.468  0.00  0.00    -0.153 OA
ATOM      4  O   UNL     1       8.685  -4.048  26.620  0.00  0.00    -0.153 OA
BRANCH   2   5
ATOM      5  C   UNL     1       9.121  -2.582  24.589  0.00  0.00    +0.106 A 
ATOM      6  C   UNL     1       9.889  -2.474  23.427  0.00  0.00    +0.032 A 
ATOM      7  C   UNL     1      10.326  -1.215  23.001  0.00  0.00    +0.047 A 
ATOM      8  C   UNL     1      10.022  -0.077  23.750  0.00  0.00    +0.120 A 
ATOM      9  C   UNL     1       9.285  -0.204  24.932  0.00  0.00    +0.047 A 
ATOM     10  C   UNL     1       8.844  -1.454  25.364  0.00  0.00    +0.032 A 
BRANCH   8  11
ATOM     11  O   UNL     1      10.347   1.206  23.412  0.00  0.00    -0.495 OA
ATOM     12  C   UNL     1       9.973   1.637  22.109  0.00  0.00    +0.277 C 
ENDBRANCH   8  11
ENDBRANCH   2   5
ENDBRANCH   1   2
BRANCH   1  13
ATOM     13  C   UNL     1       6.567  -5.290  23.597  0.00  0.00    +0.170 C 
BRANCH  13  14
ATOM     14  C   UNL     1       5.083  -5.741  23.639  0.00  0.00    +0.255 C 
ATOM     15  N   UNL     1       4.889  -7.086  23.865  0.00  0.00    -0.196 N 
ATOM     16  H   UNL     1       5.615  -7.773  24.040  0.00  0.00    +0.182 HD
ATOM     17  O   UNL     1       4.120  -4.990  23.497  0.00  0.00    -0.272 OA
BRANCH  15  18
ATOM     18  O   UNL     1       3.560  -7.559  23.870  0.00  0.00    -0.295 OA
ATOM     19  H   UNL     1       3.673  -8.532  23.944  0.00  0.00    +0.241 HD
ENDBRANCH  15  18
ENDBRANCH  13  14
BRANCH  13  20
ATOM     20  C   UNL     1       6.916  -4.773  22.173  0.00  0.00    +0.011 C 
ATOM     21  C   UNL     1       6.323  -5.630  21.043  0.00  0.00    +0.009 C 
ATOM     22  C   UNL     1       6.539  -3.311  21.932  0.00  0.00    +0.009 C 
ENDBRANCH  13  20
ENDBRANCH   1  13
BRANCH   1  23
ATOM     23  C   UNL     1       6.056  -4.520  25.976  0.00  0.00    +0.147 C 
BRANCH  23  24
ATOM     24  C   UNL     1       5.359  -3.273  26.463  0.00  0.00    -0.014 A 
ATOM     25  C   UNL     1       5.083  -2.214  25.605  0.00  0.00    +0.115 A 
ATOM     26  N   UNL     1       4.271  -1.178  25.912  0.00  0.00    -0.263 NA
ATOM     27  C   UNL     1       3.730  -1.177  27.147  0.00  0.00    +0.111 A 
ATOM     28  C   UNL     1       4.012  -2.128  28.110  0.00  0.00    +0.020 A 
ATOM     29  C   UNL     1       4.858  -3.175  27.764  0.00  0.00    +0.008 A 
ENDBRANCH  23  24
ENDBRANCH   1  23
TORSDOF 9
ENDMDL
MODEL 7
REMARK VINA RESULT:      -6.4      3.295      4.744
REMARK  Name = 
REMARK  12 active torsions:
REMARK  status: ('A' for Active; 'I' for Inactive)
REMARK    1  A    between atoms: C_2  and  C_3
REMARK    2  A    between atoms: C_2  and  N_6
REMARK    3  A    between atoms: C_2  and  C_25
REMARK    4  A    between atoms: C_3  and  C_4
REMARK    5  A    between atoms: C_3  and  C_5
REMARK    6  A    between atoms: N_6  and  C_7
REMARK    7  A    between atoms: N_6  and  S_14
REMARK    8  A    between atoms: C_7  and  C_8
REMARK    9  A    between atoms: S_14  and  C_17
REMARK   10  A    between atoms: C_20  and  O_21
REMARK   11  A    between atoms: O_21  and  C_22
REMARK   12  A    between atoms: N_27  and  O_28
REMARK                            x       y       z     vdW  Elec       q    Type
REMARK                         _______ _______ _______ _____ _____    ______ ____
ROOT
ATOM      1  N   UNL     1       7.087  -4.278  25.068  0.00  0.00    -0.160 NA
ENDROOT
BRANCH   1   2
ATOM      2  S   UNL     1       8.786  -4.096  25.336  0.00  0.00    +0.062 S 
ATOM      3  O   UNL     1       9.466  -5.096  24.542  0.00  0.00    -0.153 OA
ATOM      4  O   UNL     1       9.023  -3.986  26.761  0.00  0.00    -0.153 OA
BRANCH   2   5
ATOM      5  C   UNL     1       9.222  -2.494  24.713  0.00  0.00    +0.106 A 
ATOM      6  C   UNL     1       9.955  -2.365  23.530  0.00  0.00    +0.032 A 
ATOM      7  C   UNL     1      10.320  -1.092  23.078  0.00  0.00    +0.047 A 
ATOM      8  C   UNL     1       9.979   0.040  23.820  0.00  0.00    +0.120 A 
ATOM      9  C   UNL     1       9.278  -0.105  25.021  0.00  0.00    +0.047 A 
ATOM     10  C   UNL     1       8.910  -1.369  25.480  0.00  0.00    +0.032 A 
BRANCH   8  11
ATOM     11  O   UNL     1      10.233   1.333  23.457  0.00  0.00    -0.495 OA
ATOM     12  C   UNL     1      10.044   1.660  22.086  0.00  0.00    +0.277 C 
ENDBRANCH   8  11
ENDBRANCH   2   5
ENDBRANCH   1   2
BRANCH   1  13
ATOM     13  C   UNL     1       6.543  -3.995  23.656  0.00  0.00    +0.170 C 
BRANCH  13  14
ATOM     14  C   UNL     1       5.754  -5.193  23.066  0.00  0.00    +0.255 C 
ATOM     15  N   UNL     1       4.383  -5.064  23.105  0.00  0.00    -0.196 N 
ATOM     16  H   UNL     1       3.869  -4.258  23.442  0.00  0.00    +0.182 HD
ATOM     17  O   UNL     1       6.269  -6.199  22.580  0.00  0.00    -0.272 OA
BRANCH  15  18
ATOM     18  O   UNL     1       3.615  -6.144  22.622  0.00  0.00    -0.295 OA
ATOM     19  H   UNL     1       4.019  -6.328  21.747  0.00  0.00    +0.241 HD
ENDBRANCH  15  18
ENDBRANCH  13  14
BRANCH  13  20
ATOM     20  C   UNL     1       5.694  -2.699  23.533  0.00  0.00    +0.011 C 
ATOM     21  C   UNL     1       5.267  -2.111  24.888  0.00  0.00    +0.009 C 
ATOM     22  C   UNL     1       6.356  -1.597  22.706  0.00  0.00    +0.009 C 
ENDBRANCH  13  20
ENDBRANCH   1  13
BRANCH   1  23
ATOM     23  C   UNL     1       6.587  -5.600  25.639  0.00  0.00    +0.147 C 
BRANCH  23  24
ATOM     24  C   UNL     1       5.855  -5.485  26.954  0.00  0.00    -0.014 A 
ATOM     25  C   UNL     1       6.469  -5.816  28.157  0.00  0.00    +0.115 A 
ATOM     26  N   UNL     1       5.961  -5.526  29.375  0.00  0.00    -0.263 NA
ATOM     27  C   UNL     1       4.764  -4.902  29.401  0.00  0.00    +0.111 A 
ATOM     28  C   UNL     1       4.025  -4.613  28.269  0.00  0.00    +0.020 A 
ATOM     29  C   UNL     1       4.574  -4.933  27.032  0.00  0.00    +0.008 A 
ENDBRANCH  23  24
ENDBRANCH   1  23
TORSDOF 9
ENDMDL
MODEL 8
REMARK VINA RESULT:      -6.4      2.075      5.257
REMARK  Name = 
REMARK  12 active torsions:
REMARK  status: ('A' for Active; 'I' for Inactive)
REMARK    1  A    between atoms: C_2  and  C_3
REMARK    2  A    between atoms: C_2  and  N_6
REMARK    3  A    between atoms: C_2  and  C_25
REMARK    4  A    between atoms: C_3  and  C_4
REMARK    5  A    between atoms: C_3  and  C_5
REMARK    6  A    between atoms: N_6  and  C_7
REMARK    7  A    between atoms: N_6  and  S_14
REMARK    8  A    between atoms: C_7  and  C_8
REMARK    9  A    between atoms: S_14  and  C_17
REMARK   10  A    between atoms: C_20  and  O_21
REMARK   11  A    between atoms: O_21  and  C_22
REMARK   12  A    between atoms: N_27  and  O_28
REMARK                            x       y       z     vdW  Elec       q    Type
REMARK                         _______ _______ _______ _____ _____    ______ ____
ROOT
ATOM      1  N   UNL     1       7.808  -1.413  23.423  0.00  0.00    -0.160 NA
ENDROOT
BRANCH   1   2
ATOM      2  S   UNL     1       9.035  -1.846  24.562  0.00  0.00    +0.062 S 
ATOM      3  O   UNL     1       9.265  -0.700  25.416  0.00  0.00    -0.153 OA
ATOM      4  O   UNL     1      10.127  -2.479  23.853  0.00  0.00    -0.153 OA
BRANCH   2   5
ATOM      5  C   UNL     1       8.360  -3.155  25.551  0.00  0.00    +0.106 A 
ATOM      6  C   UNL     1       7.180  -2.966  26.274  0.00  0.00    +0.032 A 
ATOM      7  C   UNL     1       6.687  -4.000  27.077  0.00  0.00    +0.047 A 
ATOM      8  C   UNL     1       7.388  -5.204  27.179  0.00  0.00    +0.120 A 
ATOM      9  C   UNL     1       8.587  -5.366  26.479  0.00  0.00    +0.047 A 
ATOM     10  C   UNL     1       9.086  -4.341  25.676  0.00  0.00    +0.032 A 
BRANCH   8  11
ATOM     11  O   UNL     1       6.983  -6.300  27.886  0.00  0.00    -0.495 OA
ATOM     12  C   UNL     1       5.642  -6.296  28.358  0.00  0.00    +0.277 C 
ENDBRANCH   8  11
ENDBRANCH   2   5
ENDBRANCH   1   2
BRANCH   1  13
ATOM     13  C   UNL     1       7.749   0.048  22.942  0.00  0.00    +0.170 C 
BRANCH  13  14
ATOM     14  C   UNL     1       6.588   0.846  23.590  0.00  0.00    +0.255 C 
ATOM     15  N   UNL     1       5.874   1.644  22.724  0.00  0.00    -0.196 N 
ATOM     16  H   UNL     1       6.020   1.719  21.723  0.00  0.00    +0.182 HD
ATOM     17  O   UNL     1       6.282   0.794  24.780  0.00  0.00    -0.272 OA
BRANCH  15  18
ATOM     18  O   UNL     1       4.834   2.426  23.268  0.00  0.00    -0.295 OA
ATOM     19  H   UNL     1       4.369   2.759  22.470  0.00  0.00    +0.241 HD
ENDBRANCH  15  18
ENDBRANCH  13  14
BRANCH  13  20
ATOM     20  C   UNL     1       9.078   0.839  23.100  0.00  0.00    +0.011 C 
ATOM     21  C   UNL     1       9.848   1.022  21.782  0.00  0.00    +0.009 C 
ATOM     22  C   UNL     1       8.916   2.204  23.768  0.00  0.00    +0.009 C 
ENDBRANCH  13  20
ENDBRANCH   1  13
BRANCH   1  23
ATOM     23  C   UNL     1       7.757  -2.415  22.275  0.00  0.00    +0.147 C 
BRANCH  23  24
ATOM     24  C   UNL     1       6.825  -3.582  22.493  0.00  0.00    -0.014 A 
ATOM     25  C   UNL     1       5.455  -3.397  22.644  0.00  0.00    +0.115 A 
ATOM     26  N   UNL     1       4.545  -4.396  22.615  0.00  0.00    -0.263 NA
ATOM     27  C   UNL     1       5.024  -5.648  22.460  0.00  0.00    +0.111 A 
ATOM     28  C   UNL     1       6.371  -5.953  22.397  0.00  0.00    +0.020 A 
ATOM     29  C   UNL     1       7.280  -4.902  22.439  0.00  0.00    +0.008 A 
ENDBRANCH  23  24
ENDBRANCH   1  23
TORSDOF 9
ENDMDL
MODEL 9
REMARK VINA RESULT:      -6.2      2.589      4.885
REMARK  Name = 
REMARK  12 active torsions:
REMARK  status: ('A' for Active; 'I' for Inactive)
REMARK    1  A    between atoms: C_2  and  C_3
REMARK    2  A    between atoms: C_2  and  N_6
REMARK    3  A    between atoms: C_2  and  C_25
REMARK    4  A    between atoms: C_3  and  C_4
REMARK    5  A    between atoms: C_3  and  C_5
REMARK    6  A    between atoms: N_6  and  C_7
REMARK    7  A    between atoms: N_6  and  S_14
REMARK    8  A    between atoms: C_7  and  C_8
REMARK    9  A    between atoms: S_14  and  C_17
REMARK   10  A    between atoms: C_20  and  O_21
REMARK   11  A    between atoms: O_21  and  C_22
REMARK   12  A    between atoms: N_27  and  O_28
REMARK                            x       y       z     vdW  Elec       q    Type
REMARK                         _______ _______ _______ _____ _____    ______ ____
ROOT
ATOM      1  N   UNL     1       7.250  -3.505  24.757  0.00  0.00    -0.160 NA
ENDROOT
BRANCH   1   2
ATOM      2  S   UNL     1       8.682  -3.664  23.801  0.00  0.00    +0.062 S 
ATOM      3  O   UNL     1       8.345  -4.450  22.633  0.00  0.00    -0.153 OA
ATOM      4  O   UNL     1       9.780  -4.045  24.666  0.00  0.00    -0.153 OA
BRANCH   2   5
ATOM      5  C   UNL     1       9.113  -2.028  23.269  0.00  0.00    +0.106 A 
ATOM      6  C   UNL     1       8.765  -1.578  21.993  0.00  0.00    +0.032 A 
ATOM      7  C   UNL     1       9.149  -0.298  21.582  0.00  0.00    +0.047 A 
ATOM      8  C   UNL     1       9.901   0.516  22.432  0.00  0.00    +0.120 A 
ATOM      9  C   UNL     1      10.275   0.040  23.692  0.00  0.00    +0.047 A 
ATOM     10  C   UNL     1       9.897  -1.235  24.111  0.00  0.00    +0.032 A 
BRANCH   8  11
ATOM     11  O   UNL     1      10.290   1.798  22.165  0.00  0.00    -0.495 OA
ATOM     12  C   UNL     1      10.506   2.646  23.286  0.00  0.00    +0.277 C 
ENDBRANCH   8  11
ENDBRANCH   2   5
ENDBRANCH   1   2
BRANCH   1  13
ATOM     13  C   UNL     1       6.405  -4.767  25.010  0.00  0.00    +0.170 C 
BRANCH  13  14
ATOM     14  C   UNL     1       6.356  -5.166  26.507  0.00  0.00    +0.255 C 
ATOM     15  N   UNL     1       7.417  -5.930  26.942  0.00  0.00    -0.196 N 
ATOM     16  H   UNL     1       8.219  -6.209  26.387  0.00  0.00    +0.182 HD
ATOM     17  O   UNL     1       5.465  -4.840  27.289  0.00  0.00    -0.272 OA
BRANCH  15  18
ATOM     18  O   UNL     1       7.402  -6.359  28.286  0.00  0.00    -0.295 OA
ATOM     19  H   UNL     1       8.353  -6.350  28.530  0.00  0.00    +0.241 HD
ENDBRANCH  15  18
ENDBRANCH  13  14
BRANCH  13  20
ATOM     20  C   UNL     1       4.960  -4.707  24.437  0.00  0.00    +0.011 C 
ATOM     21  C   UNL     1       4.830  -3.834  23.178  0.00  0.00    +0.009 C 
ATOM     22  C   UNL     1       4.347  -6.078  24.149  0.00  0.00    +0.009 C 
ENDBRANCH  13  20
ENDBRANCH   1  13
BRANCH   1  23
ATOM     23  C   UNL     1       7.534  -2.720  26.033  0.00  0.00    +0.147 C 
BRANCH  23  24
ATOM     24  C   UNL     1       6.872  -1.365  26.102  0.00  0.00    -0.014 A 
ATOM     25  C   UNL     1       5.720  -1.083  25.377  0.00  0.00    +0.115 A 
ATOM     26  N   UNL     1       4.954   0.015  25.563  0.00  0.00    -0.263 NA
ATOM     27  C   UNL     1       5.372   0.896  26.496  0.00  0.00    +0.111 A 
ATOM     28  C   UNL     1       6.551   0.761  27.205  0.00  0.00    +0.020 A 
ATOM     29  C   UNL     1       7.320  -0.376  26.982  0.00  0.00    +0.008 A 
ENDBRANCH  23  24
ENDBRANCH   1  23
TORSDOF 9
ENDMDL
