MODEL 1
REMARK VINA RESULT:      -7.0      0.000      0.000
REMARK  Name = 
REMARK  12 active torsions:
REMARK  status: ('A' for Active; 'I' for Inactive)
REMARK    1  A    between atoms: C_1  and  O_2
REMARK    2  A    between atoms: O_2  and  C_3
REMARK    3  A    between atoms: C_3  and  C_4
REMARK    4  A    between atoms: C_4  and  N_5
REMARK    5  A    between atoms: N_5  and  S_6
REMARK    6  A    between atoms: S_6  and  C_9
REMARK    7  A    between atoms: C_12  and  N_13
REMARK    8  A    between atoms: C_16  and  C_20
REMARK    9  A    between atoms: C_23  and  C_24
REMARK   10  A    between atoms: N_25  and  C_26
REMARK   11  A    between atoms: C_26  and  C_27
REMARK   12  A    between atoms: C_26  and  C_28
REMARK                            x       y       z     vdW  Elec       q    Type
REMARK                         _______ _______ _______ _____ _____    ______ ____
ROOT
ATOM      1  N   UNL     1       6.408   0.626  23.158  0.00  0.00    -0.284 N 
ATOM      2  H   UNL     1       5.416   0.500  23.288  0.00  0.00    +0.155 HD
ATOM      3  C   UNL     1       7.057  -0.607  23.075  0.00  0.00    +0.220 A 
ATOM      4  N   UNL     1       8.362  -0.658  22.766  0.00  0.00    -0.223 NA
ATOM      5  C   UNL     1       8.932  -1.861  22.661  0.00  0.00    +0.116 A 
ATOM      6  C   UNL     1       8.247  -3.025  22.864  0.00  0.00    +0.050 A 
ATOM      7  C   UNL     1       6.904  -2.897  23.165  0.00  0.00    +0.094 A 
ATOM      8  N   UNL     1       6.300  -1.701  23.272  0.00  0.00    -0.213 NA
ENDROOT
BRANCH   1  12
ATOM      9  C   UNL     1       7.888   4.561  23.487  0.00  0.00    +0.105 A 
ATOM     10  C   UNL     1       7.245   4.168  22.313  0.00  0.00    +0.030 A 
ATOM     11  C   UNL     1       6.765   2.865  22.197  0.00  0.00    +0.025 A 
ATOM     12  C   UNL     1       6.913   1.933  23.233  0.00  0.00    +0.034 A 
ATOM     13  C   UNL     1       7.514   2.370  24.426  0.00  0.00    +0.025 A 
ATOM     14  C   UNL     1       8.002   3.677  24.559  0.00  0.00    +0.030 A 
BRANCH   9  15
ATOM     15  S   UNL     1       8.520   6.219  23.587  0.00  0.00    +0.058 S 
ATOM     16  O   UNL     1       7.767   7.002  22.636  0.00  0.00    -0.153 OA
ATOM     17  O   UNL     1       8.624   6.581  24.984  0.00  0.00    -0.153 OA
BRANCH  15  18
ATOM     18  N   UNL     1      10.080   6.018  22.961  0.00  0.00    -0.188 NA
ATOM     19  H   UNL     1      10.086   5.477  22.100  0.00  0.00    +0.148 HD
BRANCH  18  20
ATOM     20  C   UNL     1      11.155   5.675  23.917  0.00  0.00    +0.134 C 
BRANCH  20  21
ATOM     21  C   UNL     1      12.071   4.583  23.344  0.00  0.00    +0.176 C 
BRANCH  21  23
ATOM     22  C   UNL     1      13.591   5.789  21.989  0.00  0.00    +0.194 C 
ATOM     23  O   UNL     1      13.405   5.076  23.205  0.00  0.00    -0.382 OA
ENDBRANCH  21  23
ENDBRANCH  20  21
ENDBRANCH  18  20
ENDBRANCH  15  18
ENDBRANCH   9  15
ENDBRANCH   1  12
BRANCH   7  24
ATOM     24  C   UNL     1       6.055  -4.088  23.262  0.00  0.00    +0.087 A 
ATOM     25  N   UNL     1       5.781  -4.918  24.344  0.00  0.00    -0.324 N 
ATOM     26  C   UNL     1       4.915  -5.911  23.885  0.00  0.00    +0.107 A 
ATOM     27  C   UNL     1       4.369  -7.024  24.705  0.00  0.00    +0.086 C 
ATOM     28  N   UNL     1       4.643  -5.758  22.610  0.00  0.00    -0.240 NA
ATOM     29  C   UNL     1       5.320  -4.648  22.226  0.00  0.00    +0.140 A 
BRANCH  25  30
ATOM     30  C   UNL     1       6.297  -4.881  25.712  0.00  0.00    +0.083 C 
ATOM     31  C   UNL     1       5.895  -3.641  26.512  0.00  0.00    +0.030 C 
ATOM     32  C   UNL     1       7.784  -5.212  25.826  0.00  0.00    +0.030 C 
ENDBRANCH  25  30
ENDBRANCH   7  24
TORSDOF 8
ENDMDL
MODEL 2
REMARK VINA RESULT:      -6.8      1.915      3.324
REMARK  Name = 
REMARK  12 active torsions:
REMARK  status: ('A' for Active; 'I' for Inactive)
REMARK    1  A    between atoms: C_1  and  O_2
REMARK    2  A    between atoms: O_2  and  C_3
REMARK    3  A    between atoms: C_3  and  C_4
REMARK    4  A    between atoms: C_4  and  N_5
REMARK    5  A    between atoms: N_5  and  S_6
REMARK    6  A    between atoms: S_6  and  C_9
REMARK    7  A    between atoms: C_12  and  N_13
REMARK    8  A    between atoms: C_16  and  C_20
REMARK    9  A    between atoms: C_23  and  C_24
REMARK   10  A    between atoms: N_25  and  C_26
REMARK   11  A    between atoms: C_26  and  C_27
REMARK   12  A    between atoms: C_26  and  C_28
REMARK                            x       y       z     vdW  Elec       q    Type
REMARK                         _______ _______ _______ _____ _____    ______ ____
ROOT
ATOM      1  N   UNL     1       7.677   0.056  24.608  0.00  0.00    -0.284 N 
ATOM      2  H   UNL     1       6.708   0.037  24.888  0.00  0.00    +0.155 HD
ATOM      3  C   UNL     1       8.205  -1.236  24.568  0.00  0.00    +0.220 A 
ATOM      4  N   UNL     1       9.442  -1.439  24.088  0.00  0.00    -0.223 NA
ATOM      5  C   UNL     1       9.891  -2.695  24.032  0.00  0.00    +0.116 A 
ATOM      6  C   UNL     1       9.151  -3.765  24.450  0.00  0.00    +0.050 A 
ATOM      7  C   UNL     1       7.883  -3.483  24.920  0.00  0.00    +0.094 A 
ATOM      8  N   UNL     1       7.399  -2.230  24.982  0.00  0.00    -0.213 NA
ENDROOT
BRANCH   1  12
ATOM      9  C   UNL     1       9.428   3.874  24.228  0.00  0.00    +0.105 A 
ATOM     10  C   UNL     1       9.756   2.876  23.310  0.00  0.00    +0.030 A 
ATOM     11  C   UNL     1       9.187   1.610  23.439  0.00  0.00    +0.025 A 
ATOM     12  C   UNL     1       8.291   1.310  24.475  0.00  0.00    +0.034 A 
ATOM     13  C   UNL     1       7.935   2.348  25.353  0.00  0.00    +0.025 A 
ATOM     14  C   UNL     1       8.497   3.627  25.236  0.00  0.00    +0.030 A 
BRANCH   9  15
ATOM     15  S   UNL     1      10.199   5.465  24.054  0.00  0.00    +0.058 S 
ATOM     16  O   UNL     1       9.837   6.225  25.227  0.00  0.00    -0.153 OA
ATOM     17  O   UNL     1      11.573   5.262  23.653  0.00  0.00    -0.153 OA
BRANCH  15  18
ATOM     18  N   UNL     1       9.340   6.109  22.745  0.00  0.00    -0.188 NA
ATOM     19  H   UNL     1       9.896   6.760  22.197  0.00  0.00    +0.148 HD
BRANCH  18  20
ATOM     20  C   UNL     1       7.948   6.541  22.996  0.00  0.00    +0.134 C 
BRANCH  20  21
ATOM     21  C   UNL     1       6.967   5.792  22.080  0.00  0.00    +0.176 C 
BRANCH  21  23
ATOM     22  C   UNL     1       6.196   3.564  22.280  0.00  0.00    +0.194 C 
ATOM     23  O   UNL     1       6.183   4.870  22.840  0.00  0.00    -0.382 OA
ENDBRANCH  21  23
ENDBRANCH  20  21
ENDBRANCH  18  20
ENDBRANCH  15  18
ENDBRANCH   9  15
ENDBRANCH   1  12
BRANCH   7  24
ATOM     24  C   UNL     1       6.964  -4.573  25.258  0.00  0.00    +0.087 A 
ATOM     25  N   UNL     1       6.045  -5.259  24.470  0.00  0.00    -0.324 N 
ATOM     26  C   UNL     1       5.424  -6.198  25.294  0.00  0.00    +0.107 A 
ATOM     27  C   UNL     1       4.360  -7.146  24.871  0.00  0.00    +0.086 C 
ATOM     28  N   UNL     1       5.886  -6.137  26.522  0.00  0.00    -0.240 NA
ATOM     29  C   UNL     1       6.828  -5.163  26.507  0.00  0.00    +0.140 A 
BRANCH  25  30
ATOM     30  C   UNL     1       5.681  -5.067  23.066  0.00  0.00    +0.083 C 
ATOM     31  C   UNL     1       6.753  -5.500  22.065  0.00  0.00    +0.030 C 
ATOM     32  C   UNL     1       5.094  -3.690  22.758  0.00  0.00    +0.030 C 
ENDBRANCH  25  30
ENDBRANCH   7  24
TORSDOF 8
ENDMDL
MODEL 3
REMARK VINA RESULT:      -6.8      5.090      9.650
REMARK  Name = 
REMARK  12 active torsions:
REMARK  status: ('A' for Active; 'I' for Inactive)
REMARK    1  A    between atoms: C_1  and  O_2
REMARK    2  A    between atoms: O_2  and  C_3
REMARK    3  A    between atoms: C_3  and  C_4
REMARK    4  A    between atoms: C_4  and  N_5
REMARK    5  A    between atoms: N_5  and  S_6
REMARK    6  A    between atoms: S_6  and  C_9
REMARK    7  A    between atoms: C_12  and  N_13
REMARK    8  A    between atoms: C_16  and  C_20
REMARK    9  A    between atoms: C_23  and  C_24
REMARK   10  A    between atoms: N_25  and  C_26
REMARK   11  A    between atoms: C_26  and  C_27
REMARK   12  A    between atoms: C_26  and  C_28
REMARK                            x       y       z     vdW  Elec       q    Type
REMARK                         _______ _______ _______ _____ _____    ______ ____
ROOT
ATOM      1  N   UNL     1       7.610  -1.071  24.905  0.00  0.00    -0.284 N 
ATOM      2  H   UNL     1       7.582  -0.472  25.716  0.00  0.00    +0.155 HD
ATOM      3  C   UNL     1       8.247  -0.432  23.841  0.00  0.00    +0.220 A 
ATOM      4  N   UNL     1       8.509  -1.109  22.712  0.00  0.00    -0.223 NA
ATOM      5  C   UNL     1       9.154  -0.468  21.735  0.00  0.00    +0.116 A 
ATOM      6  C   UNL     1       9.544   0.838  21.837  0.00  0.00    +0.050 A 
ATOM      7  C   UNL     1       9.254   1.468  23.032  0.00  0.00    +0.094 A 
ATOM      8  N   UNL     1       8.611   0.848  24.037  0.00  0.00    -0.213 NA
ENDROOT
BRANCH   1  12
ATOM      9  C   UNL     1       5.436  -4.677  25.155  0.00  0.00    +0.105 A 
ATOM     10  C   UNL     1       6.819  -4.698  25.335  0.00  0.00    +0.030 A 
ATOM     11  C   UNL     1       7.542  -3.510  25.242  0.00  0.00    +0.025 A 
ATOM     12  C   UNL     1       6.913  -2.287  24.969  0.00  0.00    +0.034 A 
ATOM     13  C   UNL     1       5.513  -2.284  24.848  0.00  0.00    +0.025 A 
ATOM     14  C   UNL     1       4.771  -3.470  24.939  0.00  0.00    +0.030 A 
BRANCH   9  15
ATOM     15  S   UNL     1       4.551  -6.215  25.244  0.00  0.00    +0.058 S 
ATOM     16  O   UNL     1       5.185  -6.992  26.283  0.00  0.00    -0.153 OA
ATOM     17  O   UNL     1       3.134  -5.923  25.247  0.00  0.00    -0.153 OA
BRANCH  15  18
ATOM     18  N   UNL     1       4.958  -6.919  23.760  0.00  0.00    -0.188 NA
ATOM     19  H   UNL     1       5.698  -7.612  23.848  0.00  0.00    +0.148 HD
BRANCH  18  20
ATOM     20  C   UNL     1       5.089  -6.017  22.596  0.00  0.00    +0.134 C 
BRANCH  20  21
ATOM     21  C   UNL     1       6.463  -6.180  21.927  0.00  0.00    +0.176 C 
BRANCH  21  23
ATOM     22  C   UNL     1       6.191  -3.859  21.555  0.00  0.00    +0.194 C 
ATOM     23  O   UNL     1       7.112  -4.912  21.808  0.00  0.00    -0.382 OA
ENDBRANCH  21  23
ENDBRANCH  20  21
ENDBRANCH  18  20
ENDBRANCH  15  18
ENDBRANCH   9  15
ENDBRANCH   1  12
BRANCH   7  24
ATOM     24  C   UNL     1       9.754   2.821  23.290  0.00  0.00    +0.087 A 
ATOM     25  N   UNL     1       9.070   4.012  23.512  0.00  0.00    -0.324 N 
ATOM     26  C   UNL     1      10.032   5.005  23.696  0.00  0.00    +0.107 A 
ATOM     27  C   UNL     1       9.748   6.442  23.951  0.00  0.00    +0.086 C 
ATOM     28  N   UNL     1      11.247   4.519  23.600  0.00  0.00    -0.240 NA
ATOM     29  C   UNL     1      11.089   3.194  23.365  0.00  0.00    +0.140 A 
BRANCH  25  30
ATOM     30  C   UNL     1       7.632   4.285  23.509  0.00  0.00    +0.083 C 
ATOM     31  C   UNL     1       6.893   3.824  24.766  0.00  0.00    +0.030 C 
ATOM     32  C   UNL     1       6.925   3.884  22.215  0.00  0.00    +0.030 C 
ENDBRANCH  25  30
ENDBRANCH   7  24
TORSDOF 8
ENDMDL
MODEL 4
REMARK VINA RESULT:      -6.5      1.795      2.820
REMARK  Name = 
REMARK  12 active torsions:
REMARK  status: ('A' for Active; 'I' for Inactive)
REMARK    1  A    between atoms: C_1  and  O_2
REMARK    2  A    between atoms: O_2  and  C_3
REMARK    3  A    between atoms: C_3  and  C_4
REMARK    4  A    between atoms: C_4  and  N_5
REMARK    5  A    between atoms: N_5  and  S_6
REMARK    6  A    between atoms: S_6  and  C_9
REMARK    7  A    between atoms: C_12  and  N_13
REMARK    8  A    between atoms: C_16  and  C_20
REMARK    9  A    between atoms: C_23  and  C_24
REMARK   10  A    between atoms: N_25  and  C_26
REMARK   11  A    between atoms: C_26  and  C_27
REMARK   12  A    between atoms: C_26  and  C_28
REMARK                            x       y       z     vdW  Elec       q    Type
REMARK                         _______ _______ _______ _____ _____    ______ ____
ROOT
ATOM      1  N   UNL     1       7.592  -0.051  23.691  0.00  0.00    -0.284 N 
ATOM      2  H   UNL     1       6.592  -0.055  23.559  0.00  0.00    +0.155 HD
ATOM      3  C   UNL     1       8.066  -1.345  23.913  0.00  0.00    +0.220 A 
ATOM      4  N   UNL     1       9.387  -1.573  23.976  0.00  0.00    -0.223 NA
ATOM      5  C   UNL     1       9.795  -2.832  24.152  0.00  0.00    +0.116 A 
ATOM      6  C   UNL     1       8.928  -3.881  24.278  0.00  0.00    +0.050 A 
ATOM      7  C   UNL     1       7.584  -3.574  24.190  0.00  0.00    +0.094 A 
ATOM      8  N   UNL     1       7.141  -2.318  24.007  0.00  0.00    -0.213 NA
ENDROOT
BRANCH   1  12
ATOM      9  C   UNL     1       9.428   3.736  23.954  0.00  0.00    +0.105 A 
ATOM     10  C   UNL     1       9.702   2.918  22.858  0.00  0.00    +0.030 A 
ATOM     11  C   UNL     1       9.105   1.661  22.774  0.00  0.00    +0.025 A 
ATOM     12  C   UNL     1       8.234   1.194  23.768  0.00  0.00    +0.034 A 
ATOM     13  C   UNL     1       7.932   2.060  24.833  0.00  0.00    +0.025 A 
ATOM     14  C   UNL     1       8.522   3.327  24.932  0.00  0.00    +0.030 A 
BRANCH   9  15
ATOM     15  S   UNL     1      10.234   5.318  24.048  0.00  0.00    +0.058 S 
ATOM     16  O   UNL     1       9.804   5.923  25.286  0.00  0.00    -0.153 OA
ATOM     17  O   UNL     1      11.630   5.135  23.715  0.00  0.00    -0.153 OA
BRANCH  15  18
ATOM     18  N   UNL     1       9.478   6.151  22.784  0.00  0.00    -0.188 NA
ATOM     19  H   UNL     1      10.075   6.867  22.378  0.00  0.00    +0.148 HD
BRANCH  18  20
ATOM     20  C   UNL     1       8.070   6.558  22.988  0.00  0.00    +0.134 C 
BRANCH  20  21
ATOM     21  C   UNL     1       7.143   5.842  21.994  0.00  0.00    +0.176 C 
BRANCH  21  23
ATOM     22  C   UNL     1       5.919   5.794  24.018  0.00  0.00    +0.194 C 
ATOM     23  O   UNL     1       5.919   5.474  22.634  0.00  0.00    -0.382 OA
ENDBRANCH  21  23
ENDBRANCH  20  21
ENDBRANCH  18  20
ENDBRANCH  15  18
ENDBRANCH   9  15
ENDBRANCH   1  12
BRANCH   7  24
ATOM     24  C   UNL     1       6.585  -4.645  24.173  0.00  0.00    +0.087 A 
ATOM     25  N   UNL     1       5.881  -5.244  25.214  0.00  0.00    -0.324 N 
ATOM     26  C   UNL     1       5.061  -6.218  24.643  0.00  0.00    +0.107 A 
ATOM     27  C   UNL     1       4.141  -7.114  25.391  0.00  0.00    +0.086 C 
ATOM     28  N   UNL     1       5.210  -6.266  23.340  0.00  0.00    -0.240 NA
ATOM     29  C   UNL     1       6.123  -5.309  23.044  0.00  0.00    +0.140 A 
BRANCH  25  30
ATOM     30  C   UNL     1       5.961  -5.015  26.657  0.00  0.00    +0.083 C 
ATOM     31  C   UNL     1       5.479  -3.636  27.111  0.00  0.00    +0.030 C 
ATOM     32  C   UNL     1       7.298  -5.417  27.278  0.00  0.00    +0.030 C 
ENDBRANCH  25  30
ENDBRANCH   7  24
TORSDOF 8
ENDMDL
MODEL 5
REMARK VINA RESULT:      -6.3      5.754     10.546
REMARK  Name = 
REMARK  12 active torsions:
REMARK  status: ('A' for Active; 'I' for Inactive)
REMARK    1  A    between atoms: C_1  and  O_2
REMARK    2  A    between atoms: O_2  and  C_3
REMARK    3  A    between atoms: C_3  and  C_4
REMARK    4  A    between atoms: C_4  and  N_5
REMARK    5  A    between atoms: N_5  and  S_6
REMARK    6  A    between atoms: S_6  and  C_9
REMARK    7  A    between atoms: C_12  and  N_13
REMARK    8  A    between atoms: C_16  and  C_20
REMARK    9  A    between atoms: C_23  and  C_24
REMARK   10  A    between atoms: N_25  and  C_26
REMARK   11  A    between atoms: C_26  and  C_27
REMARK   12  A    between atoms: C_26  and  C_28
REMARK                            x       y       z     vdW  Elec       q    Type
REMARK                         _______ _______ _______ _____ _____    ______ ____
ROOT
ATOM      1  N   UNL     1       8.136  -1.709  26.223  0.00  0.00    -0.284 N 
ATOM      2  H   UNL     1       8.816  -1.280  26.831  0.00  0.00    +0.155 HD
ATOM      3  C   UNL     1       7.956  -0.948  25.066  0.00  0.00    +0.220 A 
ATOM      4  N   UNL     1       7.193  -1.417  24.067  0.00  0.00    -0.223 NA
ATOM      5  C   UNL     1       7.080  -0.672  22.965  0.00  0.00    +0.116 A 
ATOM      6  C   UNL     1       7.697   0.538  22.823  0.00  0.00    +0.050 A 
ATOM      7  C   UNL     1       8.478   0.952  23.886  0.00  0.00    +0.094 A 
ATOM      8  N   UNL     1       8.616   0.222  25.006  0.00  0.00    -0.213 NA
ENDROOT
BRANCH   1  12
ATOM      9  C   UNL     1       6.104  -5.141  27.595  0.00  0.00    +0.105 A 
ATOM     10  C   UNL     1       5.447  -3.910  27.597  0.00  0.00    +0.030 A 
ATOM     11  C   UNL     1       6.120  -2.772  27.155  0.00  0.00    +0.025 A 
ATOM     12  C   UNL     1       7.447  -2.831  26.707  0.00  0.00    +0.034 A 
ATOM     13  C   UNL     1       8.067  -4.092  26.662  0.00  0.00    +0.025 A 
ATOM     14  C   UNL     1       7.405  -5.246  27.103  0.00  0.00    +0.030 A 
BRANCH   9  15
ATOM     15  S   UNL     1       5.229  -6.564  28.199  0.00  0.00    +0.058 S 
ATOM     16  O   UNL     1       6.223  -7.448  28.760  0.00  0.00    -0.153 OA
ATOM     17  O   UNL     1       4.083  -6.106  28.953  0.00  0.00    -0.153 OA
BRANCH  15  18
ATOM     18  N   UNL     1       4.687  -7.259  26.754  0.00  0.00    -0.188 NA
ATOM     19  H   UNL     1       5.449  -7.479  26.118  0.00  0.00    +0.148 HD
BRANCH  18  20
ATOM     20  C   UNL     1       3.500  -6.650  26.114  0.00  0.00    +0.134 C 
BRANCH  20  21
ATOM     21  C   UNL     1       3.456  -6.982  24.614  0.00  0.00    +0.176 C 
BRANCH  21  23
ATOM     22  C   UNL     1       1.739  -8.605  24.499  0.00  0.00    +0.194 C 
ATOM     23  O   UNL     1       3.137  -8.361  24.419  0.00  0.00    -0.382 OA
ENDBRANCH  21  23
ENDBRANCH  20  21
ENDBRANCH  18  20
ENDBRANCH  15  18
ENDBRANCH   9  15
ENDBRANCH   1  12
BRANCH   7  24
ATOM     24  C   UNL     1       9.289   2.167  23.773  0.00  0.00    +0.087 A 
ATOM     25  N   UNL     1       8.949   3.503  23.957  0.00  0.00    -0.324 N 
ATOM     26  C   UNL     1      10.100   4.253  23.716  0.00  0.00    +0.107 A 
ATOM     27  C   UNL     1      10.193   5.735  23.787  0.00  0.00    +0.086 C 
ATOM     28  N   UNL     1      11.114   3.484  23.395  0.00  0.00    -0.240 NA
ATOM     29  C   UNL     1      10.635   2.217  23.437  0.00  0.00    +0.140 A 
BRANCH  25  30
ATOM     30  C   UNL     1       7.656   4.109  24.277  0.00  0.00    +0.083 C 
ATOM     31  C   UNL     1       7.051   3.655  25.606  0.00  0.00    +0.030 C 
ATOM     32  C   UNL     1       6.654   4.085  23.122  0.00  0.00    +0.030 C 
ENDBRANCH  25  30
ENDBRANCH   7  24
TORSDOF 8
ENDMDL
MODEL 6
REMARK VINA RESULT:      -6.2      1.316      2.147
REMARK  Name = 
REMARK  12 active torsions:
REMARK  status: ('A' for Active; 'I' for Inactive)
REMARK    1  A    between atoms: C_1  and  O_2
REMARK    2  A    between atoms: O_2  and  C_3
REMARK    3  A    between atoms: C_3  and  C_4
REMARK    4  A    between atoms: C_4  and  N_5
REMARK    5  A    between atoms: N_5  and  S_6
REMARK    6  A    between atoms: S_6  and  C_9
REMARK    7  A    between atoms: C_12  and  N_13
REMARK    8  A    between atoms: C_16  and  C_20
REMARK    9  A    between atoms: C_23  and  C_24
REMARK   10  A    between atoms: N_25  and  C_26
REMARK   11  A    between atoms: C_26  and  C_27
REMARK   12  A    between atoms: C_26  and  C_28
REMARK                            x       y       z     vdW  Elec       q    Type
REMARK                         _______ _______ _______ _____ _____    ______ ____
ROOT
ATOM      1  N   UNL     1       6.746   0.423  24.261  0.00  0.00    -0.284 N 
ATOM      2  H   UNL     1       5.801   0.241  24.561  0.00  0.00    +0.155 HD
ATOM      3  C   UNL     1       7.514  -0.742  24.310  0.00  0.00    +0.220 A 
ATOM      4  N   UNL     1       8.763  -0.743  23.822  0.00  0.00    -0.223 NA
ATOM      5  C   UNL     1       9.446  -1.890  23.855  0.00  0.00    +0.116 A 
ATOM      6  C   UNL     1       8.929  -3.045  24.370  0.00  0.00    +0.050 A 
ATOM      7  C   UNL     1       7.632  -2.974  24.842  0.00  0.00    +0.094 A 
ATOM      8  N   UNL     1       6.916  -1.836  24.817  0.00  0.00    -0.213 NA
ENDROOT
BRANCH   1  12
ATOM      9  C   UNL     1       7.773   4.462  23.615  0.00  0.00    +0.105 A 
ATOM     10  C   UNL     1       7.413   3.666  22.528  0.00  0.00    +0.030 A 
ATOM     11  C   UNL     1       7.084   2.327  22.736  0.00  0.00    +0.025 A 
ATOM     12  C   UNL     1       7.107   1.757  24.017  0.00  0.00    +0.034 A 
ATOM     13  C   UNL     1       7.419   2.595  25.101  0.00  0.00    +0.025 A 
ATOM     14  C   UNL     1       7.752   3.943  24.909  0.00  0.00    +0.030 A 
BRANCH   9  15
ATOM     15  S   UNL     1       8.221   6.155  23.308  0.00  0.00    +0.058 S 
ATOM     16  O   UNL     1       7.493   6.563  22.130  0.00  0.00    -0.153 OA
ATOM     17  O   UNL     1       8.146   6.877  24.559  0.00  0.00    -0.153 OA
BRANCH  15  18
ATOM     18  N   UNL     1       9.848   5.993  22.871  0.00  0.00    -0.188 NA
ATOM     19  H   UNL     1       9.972   5.434  22.031  0.00  0.00    +0.148 HD
BRANCH  18  20
ATOM     20  C   UNL     1      10.815   5.707  23.954  0.00  0.00    +0.134 C 
BRANCH  20  21
ATOM     21  C   UNL     1      11.671   4.477  23.614  0.00  0.00    +0.176 C 
BRANCH  21  23
ATOM     22  C   UNL     1      10.851   2.262  23.762  0.00  0.00    +0.194 C 
ATOM     23  O   UNL     1      10.867   3.465  23.004  0.00  0.00    -0.382 OA
ENDBRANCH  21  23
ENDBRANCH  20  21
ENDBRANCH  18  20
ENDBRANCH  15  18
ENDBRANCH   9  15
ENDBRANCH   1  12
BRANCH   7  24
ATOM     24  C   UNL     1       6.942  -4.189  25.284  0.00  0.00    +0.087 A 
ATOM     25  N   UNL     1       5.917  -4.916  24.686  0.00  0.00    -0.324 N 
ATOM     26  C   UNL     1       5.627  -5.984  25.535  0.00  0.00    +0.107 A 
ATOM     27  C   UNL     1       4.584  -7.015  25.296  0.00  0.00    +0.086 C 
ATOM     28  N   UNL     1       6.388  -5.965  26.605  0.00  0.00    -0.240 NA
ATOM     29  C   UNL     1       7.196  -4.887  26.456  0.00  0.00    +0.140 A 
BRANCH  25  30
ATOM     30  C   UNL     1       5.180  -4.659  23.448  0.00  0.00    +0.083 C 
ATOM     31  C   UNL     1       3.678  -4.440  23.635  0.00  0.00    +0.030 C 
ATOM     32  C   UNL     1       5.509  -5.629  22.314  0.00  0.00    +0.030 C 
ENDBRANCH  25  30
ENDBRANCH   7  24
TORSDOF 8
ENDMDL
MODEL 7
REMARK VINA RESULT:      -6.1      5.273     10.047
REMARK  Name = 
REMARK  12 active torsions:
REMARK  status: ('A' for Active; 'I' for Inactive)
REMARK    1  A    between atoms: C_1  and  O_2
REMARK    2  A    between atoms: O_2  and  C_3
REMARK    3  A    between atoms: C_3  and  C_4
REMARK    4  A    between atoms: C_4  and  N_5
REMARK    5  A    between atoms: N_5  and  S_6
REMARK    6  A    between atoms: S_6  and  C_9
REMARK    7  A    between atoms: C_12  and  N_13
REMARK    8  A    between atoms: C_16  and  C_20
REMARK    9  A    between atoms: C_23  and  C_24
REMARK   10  A    between atoms: N_25  and  C_26
REMARK   11  A    between atoms: C_26  and  C_27
REMARK   12  A    between atoms: C_26  and  C_28
REMARK                            x       y       z     vdW  Elec       q    Type
REMARK                         _______ _______ _______ _____ _____    ______ ____
ROOT
ATOM      1  N   UNL     1       7.882  -0.923  24.889  0.00  0.00    -0.284 N 
ATOM      2  H   UNL     1       7.856  -0.346  25.716  0.00  0.00    +0.155 HD
ATOM      3  C   UNL     1       8.481  -0.242  23.828  0.00  0.00    +0.220 A 
ATOM      4  N   UNL     1       8.734  -0.884  22.677  0.00  0.00    -0.223 NA
ATOM      5  C   UNL     1       9.343  -0.203  21.704  0.00  0.00    +0.116 A 
ATOM      6  C   UNL     1       9.704   1.109  21.832  0.00  0.00    +0.050 A 
ATOM      7  C   UNL     1       9.425   1.702  23.049  0.00  0.00    +0.094 A 
ATOM      8  N   UNL     1       8.819   1.041  24.050  0.00  0.00    -0.213 NA
ENDROOT
BRANCH   1  12
ATOM      9  C   UNL     1       5.786  -4.579  25.060  0.00  0.00    +0.105 A 
ATOM     10  C   UNL     1       7.079  -4.507  25.578  0.00  0.00    +0.030 A 
ATOM     11  C   UNL     1       7.779  -3.303  25.513  0.00  0.00    +0.025 A 
ATOM     12  C   UNL     1       7.214  -2.157  24.936  0.00  0.00    +0.034 A 
ATOM     13  C   UNL     1       5.891  -2.241  24.473  0.00  0.00    +0.025 A 
ATOM     14  C   UNL     1       5.173  -3.444  24.531  0.00  0.00    +0.030 A 
BRANCH   9  15
ATOM     15  S   UNL     1       4.936  -6.139  25.127  0.00  0.00    +0.058 S 
ATOM     16  O   UNL     1       5.034  -6.715  23.807  0.00  0.00    -0.153 OA
ATOM     17  O   UNL     1       5.370  -6.840  26.315  0.00  0.00    -0.153 OA
BRANCH  15  18
ATOM     18  N   UNL     1       3.335  -5.636  25.346  0.00  0.00    -0.188 NA
ATOM     19  H   UNL     1       3.173  -4.692  25.003  0.00  0.00    +0.148 HD
BRANCH  18  20
ATOM     20  C   UNL     1       2.702  -5.938  26.649  0.00  0.00    +0.134 C 
BRANCH  20  21
ATOM     21  C   UNL     1       2.691  -4.698  27.555  0.00  0.00    +0.176 C 
BRANCH  21  23
ATOM     22  C   UNL     1       4.650  -3.678  28.404  0.00  0.00    +0.194 C 
ATOM     23  O   UNL     1       3.750  -4.772  28.513  0.00  0.00    -0.382 OA
ENDBRANCH  21  23
ENDBRANCH  20  21
ENDBRANCH  18  20
ENDBRANCH  15  18
ENDBRANCH   9  15
ENDBRANCH   1  12
BRANCH   7  24
ATOM     24  C   UNL     1       9.898   3.059  23.331  0.00  0.00    +0.087 A 
ATOM     25  N   UNL     1       9.191   4.224  23.612  0.00  0.00    -0.324 N 
ATOM     26  C   UNL     1      10.133   5.237  23.794  0.00  0.00    +0.107 A 
ATOM     27  C   UNL     1       9.822   6.657  24.102  0.00  0.00    +0.086 C 
ATOM     28  N   UNL     1      11.357   4.787  23.642  0.00  0.00    -0.240 NA
ATOM     29  C   UNL     1      11.225   3.465  23.372  0.00  0.00    +0.140 A 
BRANCH  25  30
ATOM     30  C   UNL     1       7.748   4.459  23.665  0.00  0.00    +0.083 C 
ATOM     31  C   UNL     1       7.059   3.911  24.916  0.00  0.00    +0.030 C 
ATOM     32  C   UNL     1       7.012   4.108  22.373  0.00  0.00    +0.030 C 
ENDBRANCH  25  30
ENDBRANCH   7  24
TORSDOF 8
ENDMDL
MODEL 8
REMARK VINA RESULT:      -6.1      5.574     10.570
REMARK  Name = 
REMARK  12 active torsions:
REMARK  status: ('A' for Active; 'I' for Inactive)
REMARK    1  A    between atoms: C_1  and  O_2
REMARK    2  A    between atoms: O_2  and  C_3
REMARK    3  A    between atoms: C_3  and  C_4
REMARK    4  A    between atoms: C_4  and  N_5
REMARK    5  A    between atoms: N_5  and  S_6
REMARK    6  A    between atoms: S_6  and  C_9
REMARK    7  A    between atoms: C_12  and  N_13
REMARK    8  A    between atoms: C_16  and  C_20
REMARK    9  A    between atoms: C_23  and  C_24
REMARK   10  A    between atoms: N_25  and  C_26
REMARK   11  A    between atoms: C_26  and  C_27
REMARK   12  A    between atoms: C_26  and  C_28
REMARK                            x       y       z     vdW  Elec       q    Type
REMARK                         _______ _______ _______ _____ _____    ______ ____
ROOT
ATOM      1  N   UNL     1       7.823  -0.971  24.654  0.00  0.00    -0.284 N 
ATOM      2  H   UNL     1       7.775  -0.425  25.500  0.00  0.00    +0.155 HD
ATOM      3  C   UNL     1       8.452  -0.252  23.635  0.00  0.00    +0.220 A 
ATOM      4  N   UNL     1       8.736  -0.852  22.469  0.00  0.00    -0.223 NA
ATOM      5  C   UNL     1       9.372  -0.137  21.538  0.00  0.00    +0.116 A 
ATOM      6  C   UNL     1       9.731   1.168  21.724  0.00  0.00    +0.050 A 
ATOM      7  C   UNL     1       9.419   1.717  22.954  0.00  0.00    +0.094 A 
ATOM      8  N   UNL     1       8.784   1.021  23.914  0.00  0.00    -0.213 NA
ENDROOT
BRANCH   1  12
ATOM      9  C   UNL     1       5.727  -4.631  24.653  0.00  0.00    +0.105 A 
ATOM     10  C   UNL     1       7.085  -4.621  24.968  0.00  0.00    +0.030 A 
ATOM     11  C   UNL     1       7.784  -3.414  24.958  0.00  0.00    +0.025 A 
ATOM     12  C   UNL     1       7.154  -2.204  24.636  0.00  0.00    +0.034 A 
ATOM     13  C   UNL     1       5.773  -2.234  24.377  0.00  0.00    +0.025 A 
ATOM     14  C   UNL     1       5.056  -3.439  24.383  0.00  0.00    +0.030 A 
BRANCH   9  15
ATOM     15  S   UNL     1       4.876  -6.191  24.640  0.00  0.00    +0.058 S 
ATOM     16  O   UNL     1       5.282  -6.868  23.431  0.00  0.00    -0.153 OA
ATOM     17  O   UNL     1       5.010  -6.791  25.949  0.00  0.00    -0.153 OA
BRANCH  15  18
ATOM     18  N   UNL     1       3.272  -5.693  24.431  0.00  0.00    -0.188 NA
ATOM     19  H   UNL     1       3.141  -4.707  24.640  0.00  0.00    +0.148 HD
BRANCH  18  20
ATOM     20  C   UNL     1       2.213  -6.584  24.953  0.00  0.00    +0.134 C 
BRANCH  20  21
ATOM     21  C   UNL     1       2.137  -7.883  24.136  0.00  0.00    +0.176 C 
BRANCH  21  23
ATOM     22  C   UNL     1       1.036  -8.028  22.048  0.00  0.00    +0.194 C 
ATOM     23  O   UNL     1       0.881  -7.972  23.459  0.00  0.00    -0.382 OA
ENDBRANCH  21  23
ENDBRANCH  20  21
ENDBRANCH  18  20
ENDBRANCH  15  18
ENDBRANCH   9  15
ENDBRANCH   1  12
BRANCH   7  24
ATOM     24  C   UNL     1       9.885   3.062  23.299  0.00  0.00    +0.087 A 
ATOM     25  N   UNL     1       9.172   4.217  23.604  0.00  0.00    -0.324 N 
ATOM     26  C   UNL     1      10.109   5.221  23.848  0.00  0.00    +0.107 A 
ATOM     27  C   UNL     1       9.790   6.630  24.201  0.00  0.00    +0.086 C 
ATOM     28  N   UNL     1      11.336   4.775  23.712  0.00  0.00    -0.240 NA
ATOM     29  C   UNL     1      11.211   3.464  23.391  0.00  0.00    +0.140 A 
BRANCH  25  30
ATOM     30  C   UNL     1       7.728   4.452  23.627  0.00  0.00    +0.083 C 
ATOM     31  C   UNL     1       7.006   3.863  24.840  0.00  0.00    +0.030 C 
ATOM     32  C   UNL     1       7.026   4.146  22.305  0.00  0.00    +0.030 C 
ENDBRANCH  25  30
ENDBRANCH   7  24
TORSDOF 8
ENDMDL
MODEL 9
REMARK VINA RESULT:      -6.1      5.617     10.181
REMARK  Name = 
REMARK  12 active torsions:
REMARK  status: ('A' for Active; 'I' for Inactive)
REMARK    1  A    between atoms: C_1  and  O_2
REMARK    2  A    between atoms: O_2  and  C_3
REMARK    3  A    between atoms: C_3  and  C_4
REMARK    4  A    between atoms: C_4  and  N_5
REMARK    5  A    between atoms: N_5  and  S_6
REMARK    6  A    between atoms: S_6  and  C_9
REMARK    7  A    between atoms: C_12  and  N_13
REMARK    8  A    between atoms: C_16  and  C_20
REMARK    9  A    between atoms: C_23  and  C_24
REMARK   10  A    between atoms: N_25  and  C_26
REMARK   11  A    between atoms: C_26  and  C_27
REMARK   12  A    between atoms: C_26  and  C_28
REMARK                            x       y       z     vdW  Elec       q    Type
REMARK                         _______ _______ _______ _____ _____    ______ ____
ROOT
ATOM      1  N   UNL     1       7.023  -1.473  26.564  0.00  0.00    -0.284 N 
ATOM      2  H   UNL     1       7.447  -0.919  27.292  0.00  0.00    +0.155 HD
ATOM      3  C   UNL     1       6.978  -0.761  25.364  0.00  0.00    +0.220 A 
ATOM      4  N   UNL     1       6.574  -1.370  24.238  0.00  0.00    -0.223 NA
ATOM      5  C   UNL     1       6.583  -0.661  23.107  0.00  0.00    +0.116 A 
ATOM      6  C   UNL     1       6.974   0.647  23.056  0.00  0.00    +0.050 A 
ATOM      7  C   UNL     1       7.390   1.205  24.250  0.00  0.00    +0.094 A 
ATOM      8  N   UNL     1       7.399   0.516  25.405  0.00  0.00    -0.213 NA
ENDROOT
BRANCH   1  12
ATOM      9  C   UNL     1       5.393  -5.231  27.566  0.00  0.00    +0.105 A 
ATOM     10  C   UNL     1       4.608  -4.086  27.704  0.00  0.00    +0.030 A 
ATOM     11  C   UNL     1       5.147  -2.841  27.384  0.00  0.00    +0.025 A 
ATOM     12  C   UNL     1       6.466  -2.708  26.927  0.00  0.00    +0.034 A 
ATOM     13  C   UNL     1       7.217  -3.882  26.745  0.00  0.00    +0.025 A 
ATOM     14  C   UNL     1       6.689  -5.141  27.061  0.00  0.00    +0.030 A 
BRANCH   9  15
ATOM     15  S   UNL     1       4.685  -6.798  28.017  0.00  0.00    +0.058 S 
ATOM     16  O   UNL     1       5.749  -7.571  28.612  0.00  0.00    -0.153 OA
ATOM     17  O   UNL     1       3.431  -6.550  28.694  0.00  0.00    -0.153 OA
BRANCH  15  18
ATOM     18  N   UNL     1       4.359  -7.465  26.496  0.00  0.00    -0.188 NA
ATOM     19  H   UNL     1       5.194  -7.551  25.922  0.00  0.00    +0.148 HD
BRANCH  18  20
ATOM     20  C   UNL     1       3.163  -6.968  25.781  0.00  0.00    +0.134 C 
BRANCH  20  21
ATOM     21  C   UNL     1       3.460  -6.773  24.286  0.00  0.00    +0.176 C 
BRANCH  21  23
ATOM     22  C   UNL     1       5.334  -5.498  23.608  0.00  0.00    +0.194 C 
ATOM     23  O   UNL     1       4.870  -6.765  24.056  0.00  0.00    -0.382 OA
ENDBRANCH  21  23
ENDBRANCH  20  21
ENDBRANCH  18  20
ENDBRANCH  15  18
ENDBRANCH   9  15
ENDBRANCH   1  12
BRANCH   7  24
ATOM     24  C   UNL     1       7.959   2.555  24.272  0.00  0.00    +0.087 A 
ATOM     25  N   UNL     1       9.206   3.018  23.862  0.00  0.00    -0.324 N 
ATOM     26  C   UNL     1       9.232   4.390  24.112  0.00  0.00    +0.107 A 
ATOM     27  C   UNL     1      10.380   5.294  23.838  0.00  0.00    +0.086 C 
ATOM     28  N   UNL     1       8.106   4.802  24.646  0.00  0.00    -0.240 NA
ATOM     29  C   UNL     1       7.324   3.698  24.736  0.00  0.00    +0.140 A 
BRANCH  25  30
ATOM     30  C   UNL     1      10.352   2.284  23.324  0.00  0.00    +0.083 C 
ATOM     31  C   UNL     1      10.152   1.738  21.910  0.00  0.00    +0.030 C 
ATOM     32  C   UNL     1      10.939   1.254  24.288  0.00  0.00    +0.030 C 
ENDBRANCH  25  30
ENDBRANCH   7  24
TORSDOF 8
ENDMDL
