MODEL 1
REMARK VINA RESULT:      -4.8      0.000      0.000
REMARK  Name = 
REMARK  4 active torsions:
REMARK  status: ('A' for Active; 'I' for Inactive)
REMARK    1  A    between atoms: C_2  and  O_4
REMARK    2  A    between atoms: C_2  and  C_5
REMARK    3  A    between atoms: C_5  and  O_6
REMARK    4  A    between atoms: C_5  and  C_7
REMARK                            x       y       z     vdW  Elec       q    Type
REMARK                         _______ _______ _______ _____ _____    ______ ____
ROOT
ATOM      1  C   UNL     1       8.473  -1.129  23.063  0.00  0.00    +0.281 C 
ATOM      2  C   UNL     1       9.015  -2.471  23.448  0.00  0.00    +0.252 C 
ATOM      3  O   UNL     1      10.159  -2.789  23.700  0.00  0.00    -0.284 OA
ATOM      4  C   UNL     1       7.861  -3.405  23.428  0.00  0.00    +0.308 C 
ATOM      5  O   UNL     1       7.880  -4.549  23.816  0.00  0.00    -0.276 OA
ATOM      6  C   UNL     1       6.672  -2.653  22.874  0.00  0.00    +0.384 C 
ATOM      7  O   UNL     1       5.553  -3.088  22.721  0.00  0.00    -0.241 OA
ATOM      8  O   UNL     1       7.110  -1.390  22.611  0.00  0.00    -0.445 OA
ENDROOT
BRANCH   1   9
ATOM      9  C   UNL     1       9.297  -0.470  21.953  0.00  0.00    +0.188 C 
BRANCH   9  10
ATOM     10  O   UNL     1      10.206  -1.415  21.374  0.00  0.00    -0.385 OA
ATOM     11  H   UNL     1      10.381  -2.130  22.014  0.00  0.00    +0.210 HD
ENDBRANCH   9  10
BRANCH   9  12
ATOM     12  C   UNL     1      10.026   0.797  22.427  0.00  0.00    +0.191 C 
BRANCH  12  13
ATOM     13  O   UNL     1       9.840   1.850  21.494  0.00  0.00    -0.392 OA
ATOM     14  H   UNL     1      10.580   2.474  21.612  0.00  0.00    +0.210 HD
ENDBRANCH  12  13
ENDBRANCH   9  12
ENDBRANCH   1   9
TORSDOF 4
ENDMDL
MODEL 2
REMARK VINA RESULT:      -4.8      1.536      3.103
REMARK  Name = 
REMARK  4 active torsions:
REMARK  status: ('A' for Active; 'I' for Inactive)
REMARK    1  A    between atoms: C_2  and  O_4
REMARK    2  A    between atoms: C_2  and  C_5
REMARK    3  A    between atoms: C_5  and  O_6
REMARK    4  A    between atoms: C_5  and  C_7
REMARK                            x       y       z     vdW  Elec       q    Type
REMARK                         _______ _______ _______ _____ _____    ______ ____
ROOT
ATOM      1  C   UNL     1       9.433   0.034  22.296  0.00  0.00    +0.281 C 
ATOM      2  C   UNL     1       8.075  -0.404  22.749  0.00  0.00    +0.252 C 
ATOM      3  O   UNL     1       7.020   0.192  22.685  0.00  0.00    -0.284 OA
ATOM      4  C   UNL     1       8.255  -1.745  23.361  0.00  0.00    +0.308 C 
ATOM      5  O   UNL     1       7.362  -2.477  23.717  0.00  0.00    -0.276 OA
ATOM      6  C   UNL     1       9.739  -2.028  23.417  0.00  0.00    +0.384 C 
ATOM      7  O   UNL     1      10.265  -3.033  23.842  0.00  0.00    -0.241 OA
ATOM      8  O   UNL     1      10.354  -0.942  22.871  0.00  0.00    -0.445 OA
ENDROOT
BRANCH   1   9
ATOM      9  C   UNL     1       9.774   1.448  22.774  0.00  0.00    +0.188 C 
BRANCH   9  10
ATOM     10  O   UNL     1      10.263   2.241  21.685  0.00  0.00    -0.385 OA
ATOM     11  H   UNL     1       9.662   2.994  21.536  0.00  0.00    +0.210 HD
ENDBRANCH   9  10
BRANCH   9  12
ATOM     12  C   UNL     1      10.751   1.456  23.960  0.00  0.00    +0.191 C 
BRANCH  12  13
ATOM     13  O   UNL     1      10.086   1.048  25.147  0.00  0.00    -0.392 OA
ATOM     14  H   UNL     1       9.128   1.111  24.977  0.00  0.00    +0.210 HD
ENDBRANCH  12  13
ENDBRANCH   9  12
ENDBRANCH   1   9
TORSDOF 4
ENDMDL
MODEL 3
REMARK VINA RESULT:      -4.7      2.683      5.377
REMARK  Name = 
REMARK  4 active torsions:
REMARK  status: ('A' for Active; 'I' for Inactive)
REMARK    1  A    between atoms: C_2  and  O_4
REMARK    2  A    between atoms: C_2  and  C_5
REMARK    3  A    between atoms: C_5  and  O_6
REMARK    4  A    between atoms: C_5  and  C_7
REMARK                            x       y       z     vdW  Elec       q    Type
REMARK                         _______ _______ _______ _____ _____    ______ ____
ROOT
ATOM      1  C   UNL     1       8.184  -3.272  25.570  0.00  0.00    +0.281 C 
ATOM      2  C   UNL     1       8.923  -3.712  24.344  0.00  0.00    +0.252 C 
ATOM      3  O   UNL     1       8.953  -4.808  23.824  0.00  0.00    -0.284 OA
ATOM      4  C   UNL     1       9.685  -2.529  23.872  0.00  0.00    +0.308 C 
ATOM      5  O   UNL     1      10.292  -2.458  22.830  0.00  0.00    -0.276 OA
ATOM      6  C   UNL     1       9.526  -1.438  24.907  0.00  0.00    +0.384 C 
ATOM      7  O   UNL     1       9.997  -0.324  24.857  0.00  0.00    -0.241 OA
ATOM      8  O   UNL     1       8.729  -1.955  25.884  0.00  0.00    -0.445 OA
ENDROOT
BRANCH   1   9
ATOM      9  C   UNL     1       8.383  -4.235  26.742  0.00  0.00    +0.188 C 
BRANCH   9  10
ATOM     10  O   UNL     1       9.608  -4.964  26.590  0.00  0.00    -0.385 OA
ATOM     11  H   UNL     1       9.442  -5.773  26.072  0.00  0.00    +0.210 HD
ENDBRANCH   9  10
BRANCH   9  12
ATOM     12  C   UNL     1       7.187  -5.179  26.946  0.00  0.00    +0.191 C 
BRANCH  12  13
ATOM     13  O   UNL     1       7.490  -6.151  27.935  0.00  0.00    -0.392 OA
ATOM     14  H   UNL     1       8.460  -6.254  27.951  0.00  0.00    +0.210 HD
ENDBRANCH  12  13
ENDBRANCH   9  12
ENDBRANCH   1   9
TORSDOF 4
ENDMDL
MODEL 4
REMARK VINA RESULT:      -4.6      3.150      4.638
REMARK  Name = 
REMARK  4 active torsions:
REMARK  status: ('A' for Active; 'I' for Inactive)
REMARK    1  A    between atoms: C_2  and  O_4
REMARK    2  A    between atoms: C_2  and  C_5
REMARK    3  A    between atoms: C_5  and  O_6
REMARK    4  A    between atoms: C_5  and  C_7
REMARK                            x       y       z     vdW  Elec       q    Type
REMARK                         _______ _______ _______ _____ _____    ______ ____
ROOT
ATOM      1  C   UNL     1       7.211  -4.318  25.234  0.00  0.00    +0.281 C 
ATOM      2  C   UNL     1       7.868  -4.681  26.530  0.00  0.00    +0.252 C 
ATOM      3  O   UNL     1       8.933  -4.309  26.976  0.00  0.00    -0.284 OA
ATOM      4  C   UNL     1       6.965  -5.656  27.192  0.00  0.00    +0.308 C 
ATOM      5  O   UNL     1       7.091  -6.072  28.319  0.00  0.00    -0.276 OA
ATOM      6  C   UNL     1       5.859  -5.993  26.217  0.00  0.00    +0.384 C 
ATOM      7  O   UNL     1       4.932  -6.746  26.413  0.00  0.00    -0.241 OA
ATOM      8  O   UNL     1       6.106  -5.260  25.095  0.00  0.00    -0.445 OA
ENDROOT
BRANCH   1   9
ATOM      9  C   UNL     1       8.172  -4.430  24.048  0.00  0.00    +0.188 C 
BRANCH   9  10
ATOM     10  O   UNL     1       9.176  -5.420  24.308  0.00  0.00    -0.385 OA
ATOM     11  H   UNL     1       9.558  -5.270  25.192  0.00  0.00    +0.210 HD
ENDBRANCH   9  10
BRANCH   9  12
ATOM     12  C   UNL     1       8.798  -3.081  23.660  0.00  0.00    +0.191 C 
BRANCH  12  13
ATOM     13  O   UNL     1      10.195  -3.096  23.913  0.00  0.00    -0.392 OA
ATOM     14  H   UNL     1      10.425  -2.236  24.311  0.00  0.00    +0.210 HD
ENDBRANCH  12  13
ENDBRANCH   9  12
ENDBRANCH   1   9
TORSDOF 4
ENDMDL
MODEL 5
REMARK VINA RESULT:      -4.6      2.824      4.356
REMARK  Name = 
REMARK  4 active torsions:
REMARK  status: ('A' for Active; 'I' for Inactive)
REMARK    1  A    between atoms: C_2  and  O_4
REMARK    2  A    between atoms: C_2  and  C_5
REMARK    3  A    between atoms: C_5  and  O_6
REMARK    4  A    between atoms: C_5  and  C_7
REMARK                            x       y       z     vdW  Elec       q    Type
REMARK                         _______ _______ _______ _____ _____    ______ ____
ROOT
ATOM      1  C   UNL     1       8.373  -3.917  23.722  0.00  0.00    +0.281 C 
ATOM      2  C   UNL     1       7.266  -3.126  23.096  0.00  0.00    +0.252 C 
ATOM      3  O   UNL     1       6.945  -1.972  23.294  0.00  0.00    -0.284 OA
ATOM      4  C   UNL     1       6.562  -4.055  22.176  0.00  0.00    +0.308 C 
ATOM      5  O   UNL     1       5.698  -3.742  21.392  0.00  0.00    -0.276 OA
ATOM      6  C   UNL     1       7.149  -5.434  22.379  0.00  0.00    +0.384 C 
ATOM      7  O   UNL     1       6.833  -6.444  21.792  0.00  0.00    -0.241 OA
ATOM      8  O   UNL     1       8.117  -5.299  23.329  0.00  0.00    -0.445 OA
ENDROOT
BRANCH   1   9
ATOM      9  C   UNL     1       8.391  -3.780  25.246  0.00  0.00    +0.188 C 
BRANCH   9  10
ATOM     10  O   UNL     1       8.749  -2.445  25.626  0.00  0.00    -0.385 OA
ATOM     11  H   UNL     1       9.664  -2.438  25.962  0.00  0.00    +0.210 HD
ENDBRANCH   9  10
BRANCH   9  12
ATOM     12  C   UNL     1       9.296  -4.820  25.926  0.00  0.00    +0.191 C 
BRANCH  12  13
ATOM     13  O   UNL     1      10.344  -5.208  25.050  0.00  0.00    -0.392 OA
ATOM     14  H   UNL     1      11.182  -4.919  25.459  0.00  0.00    +0.210 HD
ENDBRANCH  12  13
ENDBRANCH   9  12
ENDBRANCH   1   9
TORSDOF 4
ENDMDL
MODEL 6
REMARK VINA RESULT:      -4.6      2.071      2.400
REMARK  Name = 
REMARK  4 active torsions:
REMARK  status: ('A' for Active; 'I' for Inactive)
REMARK    1  A    between atoms: C_2  and  O_4
REMARK    2  A    between atoms: C_2  and  C_5
REMARK    3  A    between atoms: C_5  and  O_6
REMARK    4  A    between atoms: C_5  and  C_7
REMARK                            x       y       z     vdW  Elec       q    Type
REMARK                         _______ _______ _______ _____ _____    ______ ____
ROOT
ATOM      1  C   UNL     1       9.789  -0.345  24.175  0.00  0.00    +0.281 C 
ATOM      2  C   UNL     1      10.031  -1.639  23.462  0.00  0.00    +0.252 C 
ATOM      3  O   UNL     1      10.538  -1.829  22.375  0.00  0.00    -0.284 OA
ATOM      4  C   UNL     1       9.478  -2.705  24.336  0.00  0.00    +0.308 C 
ATOM      5  O   UNL     1       9.609  -3.892  24.160  0.00  0.00    -0.276 OA
ATOM      6  C   UNL     1       8.766  -2.030  25.487  0.00  0.00    +0.384 C 
ATOM      7  O   UNL     1       8.203  -2.579  26.406  0.00  0.00    -0.241 OA
ATOM      8  O   UNL     1       8.911  -0.689  25.289  0.00  0.00    -0.445 OA
ENDROOT
BRANCH   1   9
ATOM      9  C   UNL     1       9.133   0.700  23.270  0.00  0.00    +0.188 C 
BRANCH   9  10
ATOM     10  O   UNL     1       8.458   0.065  22.177  0.00  0.00    -0.385 OA
ATOM     11  H   UNL     1       8.689   0.519  21.345  0.00  0.00    +0.210 HD
ENDBRANCH   9  10
BRANCH   9  12
ATOM     12  C   UNL     1      10.125   1.766  22.777  0.00  0.00    +0.191 C 
BRANCH  12  13
ATOM     13  O   UNL     1       9.883   2.069  21.411  0.00  0.00    -0.392 OA
ATOM     14  H   UNL     1       9.270   2.827  21.389  0.00  0.00    +0.210 HD
ENDBRANCH  12  13
ENDBRANCH   9  12
ENDBRANCH   1   9
TORSDOF 4
ENDMDL
MODEL 7
REMARK VINA RESULT:      -4.6      4.148      5.686
REMARK  Name = 
REMARK  4 active torsions:
REMARK  status: ('A' for Active; 'I' for Inactive)
REMARK    1  A    between atoms: C_2  and  O_4
REMARK    2  A    between atoms: C_2  and  C_5
REMARK    3  A    between atoms: C_5  and  O_6
REMARK    4  A    between atoms: C_5  and  C_7
REMARK                            x       y       z     vdW  Elec       q    Type
REMARK                         _______ _______ _______ _____ _____    ______ ____
ROOT
ATOM      1  C   UNL     1       6.304  -5.200  25.586  0.00  0.00    +0.281 C 
ATOM      2  C   UNL     1       5.430  -6.382  25.873  0.00  0.00    +0.252 C 
ATOM      3  O   UNL     1       5.328  -7.025  26.897  0.00  0.00    -0.284 OA
ATOM      4  C   UNL     1       4.704  -6.677  24.612  0.00  0.00    +0.308 C 
ATOM      5  O   UNL     1       3.807  -7.477  24.492  0.00  0.00    -0.276 OA
ATOM      6  C   UNL     1       5.267  -5.774  23.537  0.00  0.00    +0.384 C 
ATOM      7  O   UNL     1       4.912  -5.724  22.381  0.00  0.00    -0.241 OA
ATOM      8  O   UNL     1       6.228  -5.019  24.140  0.00  0.00    -0.445 OA
ENDROOT
BRANCH   1   9
ATOM      9  C   UNL     1       7.751  -5.429  26.029  0.00  0.00    +0.188 C 
BRANCH   9  10
ATOM     10  O   UNL     1       7.807  -5.711  27.433  0.00  0.00    -0.385 OA
ATOM     11  H   UNL     1       6.989  -6.169  27.705  0.00  0.00    +0.210 HD
ENDBRANCH   9  10
BRANCH   9  12
ATOM     12  C   UNL     1       8.679  -4.264  25.651  0.00  0.00    +0.191 C 
BRANCH  12  13
ATOM     13  O   UNL     1       9.253  -4.488  24.372  0.00  0.00    -0.392 OA
ATOM     14  H   UNL     1       8.736  -3.969  23.729  0.00  0.00    +0.210 HD
ENDBRANCH  12  13
ENDBRANCH   9  12
ENDBRANCH   1   9
TORSDOF 4
ENDMDL
MODEL 8
REMARK VINA RESULT:      -4.6      2.560      4.100
REMARK  Name = 
REMARK  4 active torsions:
REMARK  status: ('A' for Active; 'I' for Inactive)
REMARK    1  A    between atoms: C_2  and  O_4
REMARK    2  A    between atoms: C_2  and  C_5
REMARK    3  A    between atoms: C_5  and  O_6
REMARK    4  A    between atoms: C_5  and  C_7
REMARK                            x       y       z     vdW  Elec       q    Type
REMARK                         _______ _______ _______ _____ _____    ______ ____
ROOT
ATOM      1  C   UNL     1       8.289   1.224  23.323  0.00  0.00    +0.281 C 
ATOM      2  C   UNL     1       9.558   1.744  23.924  0.00  0.00    +0.252 C 
ATOM      3  O   UNL     1       9.948   2.890  24.013  0.00  0.00    -0.284 OA
ATOM      4  C   UNL     1      10.319   0.553  24.380  0.00  0.00    +0.308 C 
ATOM      5  O   UNL     1      11.331   0.579  25.038  0.00  0.00    -0.276 OA
ATOM      6  C   UNL     1       9.577  -0.676  23.903  0.00  0.00    +0.384 C 
ATOM      7  O   UNL     1       9.893  -1.828  24.097  0.00  0.00    -0.241 OA
ATOM      8  O   UNL     1       8.478  -0.221  23.239  0.00  0.00    -0.445 OA
ENDROOT
BRANCH   1   9
ATOM      9  C   UNL     1       8.021   1.818  21.938  0.00  0.00    +0.188 C 
BRANCH   9  10
ATOM     10  O   UNL     1       9.254   2.094  21.262  0.00  0.00    -0.385 OA
ATOM     11  H   UNL     1       9.950   1.501  21.602  0.00  0.00    +0.210 HD
ENDBRANCH   9  10
BRANCH   9  12
ATOM     12  C   UNL     1       7.116   3.059  21.988  0.00  0.00    +0.191 C 
BRANCH  12  13
ATOM     13  O   UNL     1       7.899   4.233  22.140  0.00  0.00    -0.392 OA
ATOM     14  H   UNL     1       8.654   4.157  21.527  0.00  0.00    +0.210 HD
ENDBRANCH  12  13
ENDBRANCH   9  12
ENDBRANCH   1   9
TORSDOF 4
ENDMDL
MODEL 9
REMARK VINA RESULT:      -4.6      1.636      2.337
REMARK  Name = 
REMARK  4 active torsions:
REMARK  status: ('A' for Active; 'I' for Inactive)
REMARK    1  A    between atoms: C_2  and  O_4
REMARK    2  A    between atoms: C_2  and  C_5
REMARK    3  A    between atoms: C_5  and  O_6
REMARK    4  A    between atoms: C_5  and  C_7
REMARK                            x       y       z     vdW  Elec       q    Type
REMARK                         _______ _______ _______ _____ _____    ______ ____
ROOT
ATOM      1  C   UNL     1       8.225   0.120  23.046  0.00  0.00    +0.281 C 
ATOM      2  C   UNL     1       9.648  -0.339  23.135  0.00  0.00    +0.252 C 
ATOM      3  O   UNL     1      10.655   0.321  23.290  0.00  0.00    -0.284 OA
ATOM      4  C   UNL     1       9.621  -1.811  22.950  0.00  0.00    +0.308 C 
ATOM      5  O   UNL     1      10.564  -2.552  23.094  0.00  0.00    -0.276 OA
ATOM      6  C   UNL     1       8.205  -2.202  22.589  0.00  0.00    +0.384 C 
ATOM      7  O   UNL     1       7.800  -3.323  22.376  0.00  0.00    -0.241 OA
ATOM      8  O   UNL     1       7.483  -1.047  22.582  0.00  0.00    -0.445 OA
ENDROOT
BRANCH   1   9
ATOM      9  C   UNL     1       8.056   1.293  22.077  0.00  0.00    +0.188 C 
BRANCH   9  10
ATOM     10  O   UNL     1       8.963   1.168  20.975  0.00  0.00    -0.385 OA
ATOM     11  H   UNL     1       9.880   1.251  21.299  0.00  0.00    +0.210 HD
ENDBRANCH   9  10
BRANCH   9  12
ATOM     12  C   UNL     1       8.192   2.659  22.768  0.00  0.00    +0.191 C 
BRANCH  12  13
ATOM     13  O   UNL     1       9.521   3.143  22.644  0.00  0.00    -0.392 OA
ATOM     14  H   UNL     1      10.106   2.365  22.581  0.00  0.00    +0.210 HD
ENDBRANCH  12  13
ENDBRANCH   9  12
ENDBRANCH   1   9
TORSDOF 4
ENDMDL
