MODEL 1
REMARK VINA RESULT:      -4.3      0.000      0.000
REMARK  Name = 
REMARK  6 active torsions:
REMARK  status: ('A' for Active; 'I' for Inactive)
REMARK    1  A    between atoms: C_1  and  C_2
REMARK    2  A    between atoms: C_2  and  C_3
REMARK    3  A    between atoms: C_3  and  C_4
REMARK    4  A    between atoms: C_3  and  S_5
REMARK    5  A    between atoms: S_5  and  S_6
REMARK    6  A    between atoms: S_6  and  C_7
REMARK                            x       y       z     vdW  Elec       q    Type
REMARK                         _______ _______ _______ _____ _____    ______ ____
ROOT
ATOM      1  S   UNL     1       6.956  -2.326  22.891  0.00  0.00    -0.019 S 
ENDROOT
BRANCH   1   2
ATOM      2  C   UNL     1       6.730  -3.907  22.243  0.00  0.00    +0.177 A 
ATOM      3  N   UNL     1       7.472  -4.963  22.680  0.00  0.00    -0.339 N 
ATOM      4  H   UNL     1       8.168  -4.922  23.411  0.00  0.00    +0.167 HD
ATOM      5  C   UNL     1       7.134  -6.040  21.907  0.00  0.00    +0.104 A 
ATOM      6  C   UNL     1       6.172  -5.571  21.042  0.00  0.00    +0.131 A 
ATOM      7  N   UNL     1       5.923  -4.243  21.264  0.00  0.00    -0.230 NA
ENDBRANCH   1   2
BRANCH   1   8
ATOM      8  S   UNL     1       8.665  -2.690  23.984  0.00  0.00    -0.082 S 
BRANCH   8   9
ATOM      9  C   UNL     1       9.936  -1.603  23.201  0.00  0.00    +0.055 C 
ATOM     10  C   UNL     1      10.165  -0.423  24.147  0.00  0.00    +0.020 C 
BRANCH   9  12
ATOM     11  C   UNL     1       9.554   0.359  21.620  0.00  0.00    +0.005 C 
ATOM     12  C   UNL     1       9.533  -1.155  21.788  0.00  0.00    +0.011 C 
ENDBRANCH   9  12
ENDBRANCH   8   9
ENDBRANCH   1   8
TORSDOF 4
ENDMDL
MODEL 2
REMARK VINA RESULT:      -4.2      0.897      1.602
REMARK  Name = 
REMARK  6 active torsions:
REMARK  status: ('A' for Active; 'I' for Inactive)
REMARK    1  A    between atoms: C_1  and  C_2
REMARK    2  A    between atoms: C_2  and  C_3
REMARK    3  A    between atoms: C_3  and  C_4
REMARK    4  A    between atoms: C_3  and  S_5
REMARK    5  A    between atoms: S_5  and  S_6
REMARK    6  A    between atoms: S_6  and  C_7
REMARK                            x       y       z     vdW  Elec       q    Type
REMARK                         _______ _______ _______ _____ _____    ______ ____
ROOT
ATOM      1  S   UNL     1       6.825  -2.236  22.790  0.00  0.00    -0.019 S 
ENDROOT
BRANCH   1   2
ATOM      2  C   UNL     1       6.663  -3.846  22.198  0.00  0.00    +0.177 A 
ATOM      3  N   UNL     1       7.435  -4.859  22.684  0.00  0.00    -0.339 N 
ATOM      4  H   UNL     1       8.119  -4.767  23.421  0.00  0.00    +0.167 HD
ATOM      5  C   UNL     1       7.145  -5.975  21.947  0.00  0.00    +0.104 A 
ATOM      6  C   UNL     1       6.180  -5.572  21.053  0.00  0.00    +0.131 A 
ATOM      7  N   UNL     1       5.883  -4.246  21.221  0.00  0.00    -0.230 NA
ENDBRANCH   1   2
BRANCH   1   8
ATOM      8  S   UNL     1       8.861  -2.027  22.539  0.00  0.00    -0.082 S 
BRANCH   8   9
ATOM      9  C   UNL     1       9.168  -0.233  22.857  0.00  0.00    +0.055 C 
ATOM     10  C   UNL     1       9.328   0.445  21.494  0.00  0.00    +0.020 C 
BRANCH   9  12
ATOM     11  C   UNL     1      10.587   1.469  24.117  0.00  0.00    +0.005 C 
ATOM     12  C   UNL     1      10.378  -0.001  23.774  0.00  0.00    +0.011 C 
ENDBRANCH   9  12
ENDBRANCH   8   9
ENDBRANCH   1   8
TORSDOF 4
ENDMDL
MODEL 3
REMARK VINA RESULT:      -4.1      2.333      3.007
REMARK  Name = 
REMARK  6 active torsions:
REMARK  status: ('A' for Active; 'I' for Inactive)
REMARK    1  A    between atoms: C_1  and  C_2
REMARK    2  A    between atoms: C_2  and  C_3
REMARK    3  A    between atoms: C_3  and  C_4
REMARK    4  A    between atoms: C_3  and  S_5
REMARK    5  A    between atoms: S_5  and  S_6
REMARK    6  A    between atoms: S_6  and  C_7
REMARK                            x       y       z     vdW  Elec       q    Type
REMARK                         _______ _______ _______ _____ _____    ______ ____
ROOT
ATOM      1  S   UNL     1       7.487  -3.696  22.624  0.00  0.00    -0.019 S 
ENDROOT
BRANCH   1   2
ATOM      2  C   UNL     1       8.132  -4.364  24.076  0.00  0.00    +0.177 A 
ATOM      3  N   UNL     1       7.320  -4.917  25.021  0.00  0.00    -0.339 N 
ATOM      4  H   UNL     1       6.317  -5.007  24.946  0.00  0.00    +0.167 HD
ATOM      5  C   UNL     1       8.113  -5.254  26.085  0.00  0.00    +0.104 A 
ATOM      6  C   UNL     1       9.387  -4.899  25.707  0.00  0.00    +0.131 A 
ATOM      7  N   UNL     1       9.389  -4.351  24.452  0.00  0.00    -0.230 NA
ENDBRANCH   1   2
BRANCH   1   8
ATOM      8  S   UNL     1       7.828  -1.705  23.031  0.00  0.00    -0.082 S 
BRANCH   8   9
ATOM      9  C   UNL     1       9.163  -1.228  21.847  0.00  0.00    +0.055 C 
ATOM     10  C   UNL     1      10.499  -1.503  22.539  0.00  0.00    +0.020 C 
BRANCH   9  12
ATOM     11  C   UNL     1       9.999   1.168  22.086  0.00  0.00    +0.005 C 
ATOM     12  C   UNL     1       9.034   0.228  21.375  0.00  0.00    +0.011 C 
ENDBRANCH   9  12
ENDBRANCH   8   9
ENDBRANCH   1   8
TORSDOF 4
ENDMDL
MODEL 4
REMARK VINA RESULT:      -4.1      2.554      3.344
REMARK  Name = 
REMARK  6 active torsions:
REMARK  status: ('A' for Active; 'I' for Inactive)
REMARK    1  A    between atoms: C_1  and  C_2
REMARK    2  A    between atoms: C_2  and  C_3
REMARK    3  A    between atoms: C_3  and  C_4
REMARK    4  A    between atoms: C_3  and  S_5
REMARK    5  A    between atoms: S_5  and  S_6
REMARK    6  A    between atoms: S_6  and  C_7
REMARK                            x       y       z     vdW  Elec       q    Type
REMARK                         _______ _______ _______ _____ _____    ______ ____
ROOT
ATOM      1  S   UNL     1       8.294  -2.511  22.785  0.00  0.00    -0.019 S 
ENDROOT
BRANCH   1   2
ATOM      2  C   UNL     1       8.638  -3.688  23.996  0.00  0.00    +0.177 A 
ATOM      3  N   UNL     1       7.638  -4.345  24.648  0.00  0.00    -0.339 N 
ATOM      4  H   UNL     1       6.651  -4.229  24.468  0.00  0.00    +0.167 HD
ATOM      5  C   UNL     1       8.226  -5.122  25.609  0.00  0.00    +0.104 A 
ATOM      6  C   UNL     1       9.576  -4.903  25.468  0.00  0.00    +0.131 A 
ATOM      7  N   UNL     1       9.823  -4.012  24.457  0.00  0.00    -0.230 NA
ENDBRANCH   1   2
BRANCH   1   8
ATOM      8  S   UNL     1      10.092  -1.505  22.823  0.00  0.00    -0.082 S 
BRANCH   8   9
ATOM      9  C   UNL     1       9.609   0.264  23.053  0.00  0.00    +0.055 C 
ATOM     10  C   UNL     1       9.509   0.888  21.660  0.00  0.00    +0.020 C 
BRANCH   9  12
ATOM     11  C   UNL     1      10.651   2.511  23.656  0.00  0.00    +0.005 C 
ATOM     12  C   UNL     1      10.583   1.021  23.969  0.00  0.00    +0.011 C 
ENDBRANCH   9  12
ENDBRANCH   8   9
ENDBRANCH   1   8
TORSDOF 4
ENDMDL
MODEL 5
REMARK VINA RESULT:      -4.0      1.569      1.839
REMARK  Name = 
REMARK  6 active torsions:
REMARK  status: ('A' for Active; 'I' for Inactive)
REMARK    1  A    between atoms: C_1  and  C_2
REMARK    2  A    between atoms: C_2  and  C_3
REMARK    3  A    between atoms: C_3  and  C_4
REMARK    4  A    between atoms: C_3  and  S_5
REMARK    5  A    between atoms: S_5  and  S_6
REMARK    6  A    between atoms: S_6  and  C_7
REMARK                            x       y       z     vdW  Elec       q    Type
REMARK                         _______ _______ _______ _____ _____    ______ ____
ROOT
ATOM      1  S   UNL     1       9.151  -2.431  24.328  0.00  0.00    -0.019 S 
ENDROOT
BRANCH   1   2
ATOM      2  C   UNL     1       8.161  -3.548  23.465  0.00  0.00    +0.177 A 
ATOM      3  N   UNL     1       8.163  -4.876  23.770  0.00  0.00    -0.339 N 
ATOM      4  H   UNL     1       8.697  -5.301  24.514  0.00  0.00    +0.167 HD
ATOM      5  C   UNL     1       7.366  -5.502  22.850  0.00  0.00    +0.104 A 
ATOM      6  C   UNL     1       6.902  -4.494  22.036  0.00  0.00    +0.131 A 
ATOM      7  N   UNL     1       7.398  -3.280  22.432  0.00  0.00    -0.230 NA
ENDBRANCH   1   2
BRANCH   1   8
ATOM      8  S   UNL     1      10.044  -1.511  22.714  0.00  0.00    -0.082 S 
BRANCH   8   9
ATOM      9  C   UNL     1      10.565   0.135  23.370  0.00  0.00    +0.055 C 
ATOM     10  C   UNL     1      10.088   0.213  24.822  0.00  0.00    +0.020 C 
BRANCH   9  12
ATOM     11  C   UNL     1       9.007   0.857  21.486  0.00  0.00    +0.005 C 
ATOM     12  C   UNL     1      10.040   1.298  22.516  0.00  0.00    +0.011 C 
ENDBRANCH   9  12
ENDBRANCH   8   9
ENDBRANCH   1   8
TORSDOF 4
ENDMDL
MODEL 6
REMARK VINA RESULT:      -3.9      5.527      7.707
REMARK  Name = 
REMARK  6 active torsions:
REMARK  status: ('A' for Active; 'I' for Inactive)
REMARK    1  A    between atoms: C_1  and  C_2
REMARK    2  A    between atoms: C_2  and  C_3
REMARK    3  A    between atoms: C_3  and  C_4
REMARK    4  A    between atoms: C_3  and  S_5
REMARK    5  A    between atoms: S_5  and  S_6
REMARK    6  A    between atoms: S_6  and  C_7
REMARK                            x       y       z     vdW  Elec       q    Type
REMARK                         _______ _______ _______ _____ _____    ______ ____
ROOT
ATOM      1  S   UNL     1       9.097   2.530  24.003  0.00  0.00    -0.019 S 
ENDROOT
BRANCH   1   2
ATOM      2  C   UNL     1      10.100   3.911  23.766  0.00  0.00    +0.177 A 
ATOM      3  N   UNL     1      11.347   3.795  23.228  0.00  0.00    -0.339 N 
ATOM      4  H   UNL     1      11.765   2.934  22.908  0.00  0.00    +0.167 HD
ATOM      5  C   UNL     1      11.920   5.037  23.270  0.00  0.00    +0.104 A 
ATOM      6  C   UNL     1      10.961   5.855  23.822  0.00  0.00    +0.131 A 
ATOM      7  N   UNL     1       9.829   5.145  24.122  0.00  0.00    -0.230 NA
ENDBRANCH   1   2
BRANCH   1   8
ATOM      8  S   UNL     1      10.580   1.122  24.264  0.00  0.00    -0.082 S 
BRANCH   8   9
ATOM      9  C   UNL     1      10.287  -0.093  22.903  0.00  0.00    +0.055 C 
ATOM     10  C   UNL     1       9.650   0.675  21.743  0.00  0.00    +0.020 C 
BRANCH   9  12
ATOM     11  C   UNL     1       8.697  -1.959  22.207  0.00  0.00    +0.005 C 
ATOM     12  C   UNL     1       9.434  -1.286  23.358  0.00  0.00    +0.011 C 
ENDBRANCH   9  12
ENDBRANCH   8   9
ENDBRANCH   1   8
TORSDOF 4
ENDMDL
MODEL 7
REMARK VINA RESULT:      -3.8      3.143      3.653
REMARK  Name = 
REMARK  6 active torsions:
REMARK  status: ('A' for Active; 'I' for Inactive)
REMARK    1  A    between atoms: C_1  and  C_2
REMARK    2  A    between atoms: C_2  and  C_3
REMARK    3  A    between atoms: C_3  and  C_4
REMARK    4  A    between atoms: C_3  and  S_5
REMARK    5  A    between atoms: S_5  and  S_6
REMARK    6  A    between atoms: S_6  and  C_7
REMARK                            x       y       z     vdW  Elec       q    Type
REMARK                         _______ _______ _______ _____ _____    ______ ____
ROOT
ATOM      1  S   UNL     1       8.841   0.050  25.464  0.00  0.00    -0.019 S 
ENDROOT
BRANCH   1   2
ATOM      2  C   UNL     1       8.210  -0.949  24.209  0.00  0.00    +0.177 A 
ATOM      3  N   UNL     1       9.035  -1.600  23.342  0.00  0.00    -0.339 N 
ATOM      4  H   UNL     1      10.044  -1.581  23.373  0.00  0.00    +0.167 HD
ATOM      5  C   UNL     1       8.239  -2.214  22.412  0.00  0.00    +0.104 A 
ATOM      6  C   UNL     1       6.952  -1.910  22.789  0.00  0.00    +0.131 A 
ATOM      7  N   UNL     1       6.944  -1.126  23.913  0.00  0.00    -0.230 NA
ENDBRANCH   1   2
BRANCH   1   8
ATOM      8  S   UNL     1      10.651   0.516  24.596  0.00  0.00    -0.082 S 
BRANCH   8   9
ATOM      9  C   UNL     1      10.299   2.045  23.621  0.00  0.00    +0.055 C 
ATOM     10  C   UNL     1       9.094   2.728  24.273  0.00  0.00    +0.020 C 
BRANCH   9  12
ATOM     11  C   UNL     1       8.598   1.742  21.747  0.00  0.00    +0.005 C 
ATOM     12  C   UNL     1      10.073   1.750  22.131  0.00  0.00    +0.011 C 
ENDBRANCH   9  12
ENDBRANCH   8   9
ENDBRANCH   1   8
TORSDOF 4
ENDMDL
MODEL 8
REMARK VINA RESULT:      -3.8      3.190      5.475
REMARK  Name = 
REMARK  6 active torsions:
REMARK  status: ('A' for Active; 'I' for Inactive)
REMARK    1  A    between atoms: C_1  and  C_2
REMARK    2  A    between atoms: C_2  and  C_3
REMARK    3  A    between atoms: C_3  and  C_4
REMARK    4  A    between atoms: C_3  and  S_5
REMARK    5  A    between atoms: S_5  and  S_6
REMARK    6  A    between atoms: S_6  and  C_7
REMARK                            x       y       z     vdW  Elec       q    Type
REMARK                         _______ _______ _______ _____ _____    ______ ____
ROOT
ATOM      1  S   UNL     1       9.885  -2.412  23.816  0.00  0.00    -0.019 S 
ENDROOT
BRANCH   1   2
ATOM      2  C   UNL     1       9.760  -0.908  22.984  0.00  0.00    +0.177 A 
ATOM      3  N   UNL     1       9.040  -0.795  21.832  0.00  0.00    -0.339 N 
ATOM      4  H   UNL     1       8.516  -1.541  21.398  0.00  0.00    +0.167 HD
ATOM      5  C   UNL     1       9.222   0.479  21.367  0.00  0.00    +0.104 A 
ATOM      6  C   UNL     1      10.039   1.084  22.293  0.00  0.00    +0.131 A 
ATOM      7  N   UNL     1      10.364   0.214  23.299  0.00  0.00    -0.230 NA
ENDBRANCH   1   2
BRANCH   1   8
ATOM      8  S   UNL     1       8.036  -3.181  23.329  0.00  0.00    -0.082 S 
BRANCH   8   9
ATOM      9  C   UNL     1       8.051  -4.877  24.060  0.00  0.00    +0.055 C 
ATOM     10  C   UNL     1       6.639  -5.155  24.581  0.00  0.00    +0.020 C 
BRANCH   9  12
ATOM     11  C   UNL     1       8.581  -4.781  26.552  0.00  0.00    +0.005 C 
ATOM     12  C   UNL     1       9.122  -5.035  25.150  0.00  0.00    +0.011 C 
ENDBRANCH   9  12
ENDBRANCH   8   9
ENDBRANCH   1   8
TORSDOF 4
ENDMDL
MODEL 9
REMARK VINA RESULT:      -3.7      1.805      2.277
REMARK  Name = 
REMARK  6 active torsions:
REMARK  status: ('A' for Active; 'I' for Inactive)
REMARK    1  A    between atoms: C_1  and  C_2
REMARK    2  A    between atoms: C_2  and  C_3
REMARK    3  A    between atoms: C_3  and  C_4
REMARK    4  A    between atoms: C_3  and  S_5
REMARK    5  A    between atoms: S_5  and  S_6
REMARK    6  A    between atoms: S_6  and  C_7
REMARK                            x       y       z     vdW  Elec       q    Type
REMARK                         _______ _______ _______ _____ _____    ______ ____
ROOT
ATOM      1  S   UNL     1       8.056  -2.654  22.731  0.00  0.00    -0.019 S 
ENDROOT
BRANCH   1   2
ATOM      2  C   UNL     1       7.337  -3.828  23.768  0.00  0.00    +0.177 A 
ATOM      3  N   UNL     1       6.225  -4.519  23.389  0.00  0.00    -0.339 N 
ATOM      4  H   UNL     1       5.761  -4.430  22.496  0.00  0.00    +0.167 HD
ATOM      5  C   UNL     1       5.843  -5.284  24.457  0.00  0.00    +0.104 A 
ATOM      6  C   UNL     1       6.776  -5.024  25.434  0.00  0.00    +0.131 A 
ATOM      7  N   UNL     1       7.706  -4.120  24.992  0.00  0.00    -0.230 NA
ENDBRANCH   1   2
BRANCH   1   8
ATOM      8  S   UNL     1       9.785  -2.323  23.803  0.00  0.00    -0.082 S 
BRANCH   8   9
ATOM      9  C   UNL     1      10.426  -0.724  23.136  0.00  0.00    +0.055 C 
ATOM     10  C   UNL     1      10.498   0.256  24.309  0.00  0.00    +0.020 C 
BRANCH   9  12
ATOM     11  C   UNL     1       9.702   1.316  21.790  0.00  0.00    +0.005 C 
ATOM     12  C   UNL     1       9.573  -0.191  21.975  0.00  0.00    +0.011 C 
ENDBRANCH   9  12
ENDBRANCH   8   9
ENDBRANCH   1   8
TORSDOF 4
ENDMDL
