MODEL 1
REMARK VINA RESULT:      -5.7      0.000      0.000
REMARK  Name = 
REMARK  10 active torsions:
REMARK  status: ('A' for Active; 'I' for Inactive)
REMARK    1  A    between atoms: C_2  and  C_3
REMARK    2  A    between atoms: C_2  and  C_10
REMARK    3  A    between atoms: C_2  and  C_18
REMARK    4  A    between atoms: C_3  and  C_4
REMARK    5  A    between atoms: C_10  and  C_11
REMARK    6  A    between atoms: C_11  and  O_12
REMARK    7  A    between atoms: C_11  and  O_13
REMARK    8  A    between atoms: C_11  and  C_14
REMARK    9  A    between atoms: C_14  and  N_15
REMARK   10  A    between atoms: C_18  and  O_19
REMARK                            x       y       z     vdW  Elec       q    Type
REMARK                         _______ _______ _______ _____ _____    ______ ____
ROOT
ATOM      1  C   UNL     1       9.024  -2.956  23.703  0.00  0.00    +0.109 C 
ENDROOT
BRANCH   1   2
ATOM      2  C   UNL     1      10.034  -1.839  23.533  0.00  0.00    +0.308 C 
ATOM      3  O   UNL     1      10.233  -0.968  24.373  0.00  0.00    -0.251 OA
BRANCH   2   4
ATOM      4  O   UNL     1      10.701  -1.880  22.359  0.00  0.00    -0.480 OA
ATOM      5  H   UNL     1      10.455  -2.631  21.786  0.00  0.00    +0.295 HD
ENDBRANCH   2   4
ENDBRANCH   1   2
BRANCH   1   6
ATOM      6  C   UNL     1       8.665  -3.165  25.191  0.00  0.00    +0.114 C 
BRANCH   6   7
ATOM      7  C   UNL     1       8.855  -4.615  25.696  0.00  0.00    +0.305 C 
BRANCH   7   8
ATOM      8  O   UNL     1       9.483  -4.646  26.975  0.00  0.00    -0.501 OA
ATOM      9  H   UNL     1       9.191  -5.435  27.475  0.00  0.00    +0.288 HD
ENDBRANCH   7   8
BRANCH   7  10
ATOM     10  O   UNL     1       9.754  -5.271  24.809  0.00  0.00    -0.501 OA
ATOM     11  H   UNL     1      10.235  -5.955  25.317  0.00  0.00    +0.288 HD
ENDBRANCH   7  10
BRANCH   7  12
ATOM     12  C   UNL     1       7.541  -5.374  25.911  0.00  0.00    +0.516 C 
BRANCH  12  13
ATOM     13  N   UNL     1       7.041  -5.220  27.303  0.00  0.00    +0.046 N 
ATOM     14  O   UNL     1       7.252  -6.164  28.074  0.00  0.00    +0.035 OA
ATOM     15  O   UNL     1       6.431  -4.184  27.595  0.00  0.00    -0.582 OA
ENDBRANCH  12  13
ENDBRANCH   7  12
ENDBRANCH   6   7
ENDBRANCH   1   6
BRANCH   1  16
ATOM     16  C   UNL     1       7.786  -2.697  22.818  0.00  0.00    +0.050 C 
BRANCH  16  17
ATOM     17  C   UNL     1       6.766  -3.810  22.756  0.00  0.00    -0.047 A 
ATOM     18  C   UNL     1       5.460  -3.621  23.228  0.00  0.00    +0.003 A 
ATOM     19  C   UNL     1       4.521  -4.652  23.144  0.00  0.00    +0.000 A 
ATOM     20  C   UNL     1       4.878  -5.883  22.598  0.00  0.00    +0.000 A 
ATOM     21  C   UNL     1       6.176  -6.085  22.134  0.00  0.00    +0.000 A 
ATOM     22  C   UNL     1       7.115  -5.056  22.216  0.00  0.00    +0.003 A 
ENDBRANCH  16  17
ENDBRANCH   1  16
TORSDOF 10
ENDMDL
MODEL 2
REMARK VINA RESULT:      -5.7      2.276      4.660
REMARK  Name = 
REMARK  10 active torsions:
REMARK  status: ('A' for Active; 'I' for Inactive)
REMARK    1  A    between atoms: C_2  and  C_3
REMARK    2  A    between atoms: C_2  and  C_10
REMARK    3  A    between atoms: C_2  and  C_18
REMARK    4  A    between atoms: C_3  and  C_4
REMARK    5  A    between atoms: C_10  and  C_11
REMARK    6  A    between atoms: C_11  and  O_12
REMARK    7  A    between atoms: C_11  and  O_13
REMARK    8  A    between atoms: C_11  and  C_14
REMARK    9  A    between atoms: C_14  and  N_15
REMARK   10  A    between atoms: C_18  and  O_19
REMARK                            x       y       z     vdW  Elec       q    Type
REMARK                         _______ _______ _______ _____ _____    ______ ____
ROOT
ATOM      1  C   UNL     1       9.017  -2.661  24.177  0.00  0.00    +0.109 C 
ENDROOT
BRANCH   1   2
ATOM      2  C   UNL     1       7.735  -2.677  23.369  0.00  0.00    +0.308 C 
ATOM      3  O   UNL     1       7.667  -3.069  22.208  0.00  0.00    -0.251 OA
BRANCH   2   4
ATOM      4  O   UNL     1       6.660  -2.210  24.041  0.00  0.00    -0.480 OA
ATOM      5  H   UNL     1       5.962  -1.838  23.469  0.00  0.00    +0.295 HD
ENDBRANCH   2   4
ENDBRANCH   1   2
BRANCH   1   6
ATOM      6  C   UNL     1       9.337  -4.060  24.749  0.00  0.00    +0.114 C 
BRANCH   6   7
ATOM      7  C   UNL     1       8.606  -4.392  26.071  0.00  0.00    +0.305 C 
BRANCH   7   8
ATOM      8  O   UNL     1       8.003  -3.235  26.643  0.00  0.00    -0.501 OA
ATOM      9  H   UNL     1       8.671  -2.527  26.753  0.00  0.00    +0.288 HD
ENDBRANCH   7   8
BRANCH   7  10
ATOM     10  O   UNL     1       9.582  -4.824  27.012  0.00  0.00    -0.501 OA
ATOM     11  H   UNL     1       9.648  -5.799  26.955  0.00  0.00    +0.288 HD
ENDBRANCH   7  10
BRANCH   7  12
ATOM     12  C   UNL     1       7.439  -5.372  25.904  0.00  0.00    +0.516 C 
BRANCH  12  13
ATOM     13  N   UNL     1       6.633  -5.480  27.149  0.00  0.00    +0.046 N 
ATOM     14  O   UNL     1       5.476  -5.043  27.098  0.00  0.00    +0.035 OA
ATOM     15  O   UNL     1       7.167  -5.967  28.152  0.00  0.00    -0.582 OA
ENDBRANCH  12  13
ENDBRANCH   7  12
ENDBRANCH   6   7
ENDBRANCH   1   6
BRANCH   1  16
ATOM     16  C   UNL     1      10.173  -2.079  23.335  0.00  0.00    +0.050 C 
BRANCH  16  17
ATOM     17  C   UNL     1      10.193  -0.576  23.180  0.00  0.00    -0.047 A 
ATOM     18  C   UNL     1       9.829   0.030  21.970  0.00  0.00    +0.003 A 
ATOM     19  C   UNL     1       9.830   1.422  21.848  0.00  0.00    +0.000 A 
ATOM     20  C   UNL     1      10.203   2.221  22.927  0.00  0.00    +0.000 A 
ATOM     21  C   UNL     1      10.575   1.628  24.131  0.00  0.00    +0.000 A 
ATOM     22  C   UNL     1      10.573   0.239  24.256  0.00  0.00    +0.003 A 
ENDBRANCH  16  17
ENDBRANCH   1  16
TORSDOF 10
ENDMDL
MODEL 3
REMARK VINA RESULT:      -5.7      2.913      5.254
REMARK  Name = 
REMARK  10 active torsions:
REMARK  status: ('A' for Active; 'I' for Inactive)
REMARK    1  A    between atoms: C_2  and  C_3
REMARK    2  A    between atoms: C_2  and  C_10
REMARK    3  A    between atoms: C_2  and  C_18
REMARK    4  A    between atoms: C_3  and  C_4
REMARK    5  A    between atoms: C_10  and  C_11
REMARK    6  A    between atoms: C_11  and  O_12
REMARK    7  A    between atoms: C_11  and  O_13
REMARK    8  A    between atoms: C_11  and  C_14
REMARK    9  A    between atoms: C_14  and  N_15
REMARK   10  A    between atoms: C_18  and  O_19
REMARK                            x       y       z     vdW  Elec       q    Type
REMARK                         _______ _______ _______ _____ _____    ______ ____
ROOT
ATOM      1  C   UNL     1       8.797  -3.602  24.080  0.00  0.00    +0.109 C 
ENDROOT
BRANCH   1   2
ATOM      2  C   UNL     1       9.009  -4.833  24.939  0.00  0.00    +0.308 C 
ATOM      3  O   UNL     1       8.111  -5.393  25.559  0.00  0.00    -0.251 OA
BRANCH   2   4
ATOM      4  O   UNL     1      10.290  -5.262  24.970  0.00  0.00    -0.480 OA
ATOM      5  H   UNL     1      10.390  -6.204  25.206  0.00  0.00    +0.295 HD
ENDBRANCH   2   4
ENDBRANCH   1   2
BRANCH   1   6
ATOM      6  C   UNL     1       7.374  -3.028  24.266  0.00  0.00    +0.114 C 
BRANCH   6   7
ATOM      7  C   UNL     1       6.338  -3.543  23.240  0.00  0.00    +0.305 C 
BRANCH   7   8
ATOM      8  O   UNL     1       5.401  -2.529  22.888  0.00  0.00    -0.501 OA
ATOM      9  H   UNL     1       4.662  -2.916  22.376  0.00  0.00    +0.288 HD
ENDBRANCH   7   8
BRANCH   7  10
ATOM     10  O   UNL     1       5.577  -4.570  23.867  0.00  0.00    -0.501 OA
ATOM     11  H   UNL     1       4.701  -4.200  24.099  0.00  0.00    +0.288 HD
ENDBRANCH   7  10
BRANCH   7  12
ATOM     12  C   UNL     1       6.950  -3.963  21.899  0.00  0.00    +0.516 C 
BRANCH  12  13
ATOM     13  N   UNL     1       6.698  -5.400  21.610  0.00  0.00    +0.046 N 
ATOM     14  O   UNL     1       7.500  -6.210  22.090  0.00  0.00    +0.035 OA
ATOM     15  O   UNL     1       5.732  -5.693  20.895  0.00  0.00    -0.582 OA
ENDBRANCH  12  13
ENDBRANCH   7  12
ENDBRANCH   6   7
ENDBRANCH   1   6
BRANCH   1  16
ATOM     16  C   UNL     1       9.904  -2.562  24.354  0.00  0.00    +0.050 C 
BRANCH  16  17
ATOM     17  C   UNL     1       9.859  -1.306  23.513  0.00  0.00    -0.047 A 
ATOM     18  C   UNL     1      10.135  -0.052  24.075  0.00  0.00    +0.003 A 
ATOM     19  C   UNL     1      10.113   1.098  23.282  0.00  0.00    +0.000 A 
ATOM     20  C   UNL     1       9.807   1.009  21.925  0.00  0.00    +0.000 A 
ATOM     21  C   UNL     1       9.522  -0.231  21.360  0.00  0.00    +0.000 A 
ATOM     22  C   UNL     1       9.545  -1.381  22.149  0.00  0.00    +0.003 A 
ENDBRANCH  16  17
ENDBRANCH   1  16
TORSDOF 10
ENDMDL
MODEL 4
REMARK VINA RESULT:      -5.7      2.872      5.312
REMARK  Name = 
REMARK  10 active torsions:
REMARK  status: ('A' for Active; 'I' for Inactive)
REMARK    1  A    between atoms: C_2  and  C_3
REMARK    2  A    between atoms: C_2  and  C_10
REMARK    3  A    between atoms: C_2  and  C_18
REMARK    4  A    between atoms: C_3  and  C_4
REMARK    5  A    between atoms: C_10  and  C_11
REMARK    6  A    between atoms: C_11  and  O_12
REMARK    7  A    between atoms: C_11  and  O_13
REMARK    8  A    between atoms: C_11  and  C_14
REMARK    9  A    between atoms: C_14  and  N_15
REMARK   10  A    between atoms: C_18  and  O_19
REMARK                            x       y       z     vdW  Elec       q    Type
REMARK                         _______ _______ _______ _____ _____    ______ ____
ROOT
ATOM      1  C   UNL     1       8.917  -3.035  23.873  0.00  0.00    +0.109 C 
ENDROOT
BRANCH   1   2
ATOM      2  C   UNL     1       9.135  -4.174  24.849  0.00  0.00    +0.308 C 
ATOM      3  O   UNL     1      10.128  -4.893  24.845  0.00  0.00    -0.251 OA
BRANCH   2   4
ATOM      4  O   UNL     1       8.125  -4.336  25.732  0.00  0.00    -0.480 OA
ATOM      5  H   UNL     1       7.281  -3.932  25.452  0.00  0.00    +0.295 HD
ENDBRANCH   2   4
ENDBRANCH   1   2
BRANCH   1   6
ATOM      6  C   UNL     1       7.771  -2.109  24.338  0.00  0.00    +0.114 C 
BRANCH   6   7
ATOM      7  C   UNL     1       6.524  -2.127  23.424  0.00  0.00    +0.305 C 
BRANCH   7   8
ATOM      8  O   UNL     1       6.773  -2.831  22.210  0.00  0.00    -0.501 OA
ATOM      9  H   UNL     1       7.607  -2.518  21.804  0.00  0.00    +0.288 HD
ENDBRANCH   7   8
BRANCH   7  10
ATOM     10  O   UNL     1       6.245  -0.785  23.041  0.00  0.00    -0.501 OA
ATOM     11  H   UNL     1       6.774  -0.191  23.611  0.00  0.00    +0.288 HD
ENDBRANCH   7  10
BRANCH   7  12
ATOM     12  C   UNL     1       5.319  -2.855  24.032  0.00  0.00    +0.516 C 
BRANCH  12  13
ATOM     13  N   UNL     1       5.167  -4.223  23.471  0.00  0.00    +0.046 N 
ATOM     14  O   UNL     1       5.876  -5.107  23.967  0.00  0.00    +0.035 OA
ATOM     15  O   UNL     1       4.371  -4.388  22.538  0.00  0.00    -0.582 OA
ENDBRANCH  12  13
ENDBRANCH   7  12
ENDBRANCH   6   7
ENDBRANCH   1   6
BRANCH   1  16
ATOM     16  C   UNL     1      10.240  -2.276  23.632  0.00  0.00    +0.050 C 
BRANCH  16  17
ATOM     17  C   UNL     1      10.111  -0.844  23.167  0.00  0.00    -0.047 A 
ATOM     18  C   UNL     1       9.592  -0.540  21.901  0.00  0.00    +0.003 A 
ATOM     19  C   UNL     1       9.457   0.789  21.493  0.00  0.00    +0.000 A 
ATOM     20  C   UNL     1       9.846   1.826  22.339  0.00  0.00    +0.000 A 
ATOM     21  C   UNL     1      10.370   1.534  23.595  0.00  0.00    +0.000 A 
ATOM     22  C   UNL     1      10.505   0.208  24.006  0.00  0.00    +0.003 A 
ENDBRANCH  16  17
ENDBRANCH   1  16
TORSDOF 10
ENDMDL
MODEL 5
REMARK VINA RESULT:      -5.5      2.538      4.790
REMARK  Name = 
REMARK  10 active torsions:
REMARK  status: ('A' for Active; 'I' for Inactive)
REMARK    1  A    between atoms: C_2  and  C_3
REMARK    2  A    between atoms: C_2  and  C_10
REMARK    3  A    between atoms: C_2  and  C_18
REMARK    4  A    between atoms: C_3  and  C_4
REMARK    5  A    between atoms: C_10  and  C_11
REMARK    6  A    between atoms: C_11  and  O_12
REMARK    7  A    between atoms: C_11  and  O_13
REMARK    8  A    between atoms: C_11  and  C_14
REMARK    9  A    between atoms: C_14  and  N_15
REMARK   10  A    between atoms: C_18  and  O_19
REMARK                            x       y       z     vdW  Elec       q    Type
REMARK                         _______ _______ _______ _____ _____    ______ ____
ROOT
ATOM      1  C   UNL     1       7.962  -2.249  23.178  0.00  0.00    +0.109 C 
ENDROOT
BRANCH   1   2
ATOM      2  C   UNL     1       6.535  -1.888  22.819  0.00  0.00    +0.308 C 
ATOM      3  O   UNL     1       5.788  -2.621  22.179  0.00  0.00    -0.251 OA
BRANCH   2   4
ATOM      4  O   UNL     1       6.151  -0.671  23.262  0.00  0.00    -0.480 OA
ATOM      5  H   UNL     1       6.292   0.051  22.620  0.00  0.00    +0.295 HD
ENDBRANCH   2   4
ENDBRANCH   1   2
BRANCH   1   6
ATOM      6  C   UNL     1       8.150  -3.780  23.257  0.00  0.00    +0.114 C 
BRANCH   6   7
ATOM      7  C   UNL     1       8.275  -4.336  24.695  0.00  0.00    +0.305 C 
BRANCH   7   8
ATOM      8  O   UNL     1       8.952  -3.423  25.553  0.00  0.00    -0.501 OA
ATOM      9  H   UNL     1       8.359  -3.137  26.278  0.00  0.00    +0.288 HD
ENDBRANCH   7   8
BRANCH   7  10
ATOM     10  O   UNL     1       9.095  -5.498  24.644  0.00  0.00    -0.501 OA
ATOM     11  H   UNL     1       8.668  -6.194  25.183  0.00  0.00    +0.288 HD
ENDBRANCH   7  10
BRANCH   7  12
ATOM     12  C   UNL     1       6.927  -4.566  25.389  0.00  0.00    +0.516 C 
BRANCH  12  13
ATOM     13  N   UNL     1       7.064  -5.468  26.564  0.00  0.00    +0.046 N 
ATOM     14  O   UNL     1       8.023  -5.255  27.316  0.00  0.00    +0.035 OA
ATOM     15  O   UNL     1       6.239  -6.379  26.701  0.00  0.00    -0.582 OA
ENDBRANCH  12  13
ENDBRANCH   7  12
ENDBRANCH   6   7
ENDBRANCH   1   6
BRANCH   1  16
ATOM     16  C   UNL     1       8.947  -1.574  22.200  0.00  0.00    +0.050 C 
BRANCH  16  17
ATOM     17  C   UNL     1       9.545  -0.263  22.655  0.00  0.00    -0.047 A 
ATOM     18  C   UNL     1      10.052  -0.113  23.954  0.00  0.00    +0.003 A 
ATOM     19  C   UNL     1      10.623   1.097  24.355  0.00  0.00    +0.000 A 
ATOM     20  C   UNL     1      10.686   2.170  23.469  0.00  0.00    +0.000 A 
ATOM     21  C   UNL     1      10.177   2.035  22.180  0.00  0.00    +0.000 A 
ATOM     22  C   UNL     1       9.608   0.827  21.776  0.00  0.00    +0.003 A 
ENDBRANCH  16  17
ENDBRANCH   1  16
TORSDOF 10
ENDMDL
MODEL 6
REMARK VINA RESULT:      -5.3      1.981      4.052
REMARK  Name = 
REMARK  10 active torsions:
REMARK  status: ('A' for Active; 'I' for Inactive)
REMARK    1  A    between atoms: C_2  and  C_3
REMARK    2  A    between atoms: C_2  and  C_10
REMARK    3  A    between atoms: C_2  and  C_18
REMARK    4  A    between atoms: C_3  and  C_4
REMARK    5  A    between atoms: C_10  and  C_11
REMARK    6  A    between atoms: C_11  and  O_12
REMARK    7  A    between atoms: C_11  and  O_13
REMARK    8  A    between atoms: C_11  and  C_14
REMARK    9  A    between atoms: C_14  and  N_15
REMARK   10  A    between atoms: C_18  and  O_19
REMARK                            x       y       z     vdW  Elec       q    Type
REMARK                         _______ _______ _______ _____ _____    ______ ____
ROOT
ATOM      1  C   UNL     1       6.840  -4.160  23.639  0.00  0.00    +0.109 C 
ENDROOT
BRANCH   1   2
ATOM      2  C   UNL     1       6.631  -4.700  22.238  0.00  0.00    +0.308 C 
ATOM      3  O   UNL     1       7.322  -5.581  21.738  0.00  0.00    -0.251 OA
BRANCH   2   4
ATOM      4  O   UNL     1       5.609  -4.115  21.575  0.00  0.00    -0.480 OA
ATOM      5  H   UNL     1       5.123  -4.716  20.979  0.00  0.00    +0.295 HD
ENDBRANCH   2   4
ENDBRANCH   1   2
BRANCH   1   6
ATOM      6  C   UNL     1       8.167  -4.670  24.244  0.00  0.00    +0.114 C 
BRANCH   6   7
ATOM      7  C   UNL     1       8.073  -5.088  25.730  0.00  0.00    +0.305 C 
BRANCH   7   8
ATOM      8  O   UNL     1       8.420  -4.015  26.600  0.00  0.00    -0.501 OA
ATOM      9  H   UNL     1       9.266  -4.207  27.053  0.00  0.00    +0.288 HD
ENDBRANCH   7   8
BRANCH   7  10
ATOM     10  O   UNL     1       9.046  -6.101  25.961  0.00  0.00    -0.501 OA
ATOM     11  H   UNL     1       9.588  -6.190  25.151  0.00  0.00    +0.288 HD
ENDBRANCH   7  10
BRANCH   7  12
ATOM     12  C   UNL     1       6.660  -5.483  26.174  0.00  0.00    +0.516 C 
BRANCH  12  13
ATOM     13  N   UNL     1       6.511  -5.410  27.652  0.00  0.00    +0.046 N 
ATOM     14  O   UNL     1       5.796  -4.500  28.092  0.00  0.00    +0.035 OA
ATOM     15  O   UNL     1       7.123  -6.232  28.344  0.00  0.00    -0.582 OA
ENDBRANCH  12  13
ENDBRANCH   7  12
ENDBRANCH   6   7
ENDBRANCH   1   6
BRANCH   1  16
ATOM     16  C   UNL     1       6.735  -2.619  23.640  0.00  0.00    +0.050 C 
BRANCH  16  17
ATOM     17  C   UNL     1       8.025  -1.863  23.426  0.00  0.00    -0.047 A 
ATOM     18  C   UNL     1       8.612  -1.781  22.156  0.00  0.00    +0.003 A 
ATOM     19  C   UNL     1       9.794  -1.060  21.968  0.00  0.00    +0.000 A 
ATOM     20  C   UNL     1      10.405  -0.422  23.046  0.00  0.00    +0.000 A 
ATOM     21  C   UNL     1       9.835  -0.505  24.314  0.00  0.00    +0.000 A 
ATOM     22  C   UNL     1       8.654  -1.223  24.504  0.00  0.00    +0.003 A 
ENDBRANCH  16  17
ENDBRANCH   1  16
TORSDOF 10
ENDMDL
MODEL 7
REMARK VINA RESULT:      -5.3      2.550      4.712
REMARK  Name = 
REMARK  10 active torsions:
REMARK  status: ('A' for Active; 'I' for Inactive)
REMARK    1  A    between atoms: C_2  and  C_3
REMARK    2  A    between atoms: C_2  and  C_10
REMARK    3  A    between atoms: C_2  and  C_18
REMARK    4  A    between atoms: C_3  and  C_4
REMARK    5  A    between atoms: C_10  and  C_11
REMARK    6  A    between atoms: C_11  and  O_12
REMARK    7  A    between atoms: C_11  and  O_13
REMARK    8  A    between atoms: C_11  and  C_14
REMARK    9  A    between atoms: C_14  and  N_15
REMARK   10  A    between atoms: C_18  and  O_19
REMARK                            x       y       z     vdW  Elec       q    Type
REMARK                         _______ _______ _______ _____ _____    ______ ____
ROOT
ATOM      1  C   UNL     1       8.685  -3.001  24.352  0.00  0.00    +0.109 C 
ENDROOT
BRANCH   1   2
ATOM      2  C   UNL     1       8.538  -2.511  25.778  0.00  0.00    +0.308 C 
ATOM      3  O   UNL     1       8.540  -1.326  26.094  0.00  0.00    -0.251 OA
BRANCH   2   4
ATOM      4  O   UNL     1       8.410  -3.504  26.686  0.00  0.00    -0.480 OA
ATOM      5  H   UNL     1       7.517  -3.896  26.727  0.00  0.00    +0.295 HD
ENDBRANCH   2   4
ENDBRANCH   1   2
BRANCH   1   6
ATOM      6  C   UNL     1       9.998  -2.492  23.717  0.00  0.00    +0.114 C 
BRANCH   6   7
ATOM      7  C   UNL     1       9.846  -1.194  22.889  0.00  0.00    +0.305 C 
BRANCH   7   8
ATOM      8  O   UNL     1       8.493  -0.750  22.853  0.00  0.00    -0.501 OA
ATOM      9  H   UNL     1       7.916  -1.456  22.498  0.00  0.00    +0.288 HD
ENDBRANCH   7   8
BRANCH   7  10
ATOM     10  O   UNL     1      10.189  -1.494  21.541  0.00  0.00    -0.501 OA
ATOM     11  H   UNL     1      10.823  -0.815  21.231  0.00  0.00    +0.288 HD
ENDBRANCH   7  10
BRANCH   7  12
ATOM     12  C   UNL     1      10.612   0.002  23.466  0.00  0.00    +0.516 C 
BRANCH  12  13
ATOM     13  N   UNL     1      10.016   1.294  23.033  0.00  0.00    +0.046 N 
ATOM     14  O   UNL     1      10.116   1.574  21.832  0.00  0.00    +0.035 OA
ATOM     15  O   UNL     1       9.489   2.012  23.891  0.00  0.00    -0.582 OA
ENDBRANCH  12  13
ENDBRANCH   7  12
ENDBRANCH   6   7
ENDBRANCH   1   6
BRANCH   1  16
ATOM     16  C   UNL     1       8.551  -4.539  24.298  0.00  0.00    +0.050 C 
BRANCH  16  17
ATOM     17  C   UNL     1       7.286  -5.075  23.669  0.00  0.00    -0.047 A 
ATOM     18  C   UNL     1       6.114  -5.229  24.423  0.00  0.00    +0.003 A 
ATOM     19  C   UNL     1       4.945  -5.704  23.824  0.00  0.00    +0.000 A 
ATOM     20  C   UNL     1       4.936  -6.038  22.471  0.00  0.00    +0.000 A 
ATOM     21  C   UNL     1       6.097  -5.896  21.715  0.00  0.00    +0.000 A 
ATOM     22  C   UNL     1       7.265  -5.420  22.310  0.00  0.00    +0.003 A 
ENDBRANCH  16  17
ENDBRANCH   1  16
TORSDOF 10
ENDMDL
MODEL 8
REMARK VINA RESULT:      -5.2      2.814      5.059
REMARK  Name = 
REMARK  10 active torsions:
REMARK  status: ('A' for Active; 'I' for Inactive)
REMARK    1  A    between atoms: C_2  and  C_3
REMARK    2  A    between atoms: C_2  and  C_10
REMARK    3  A    between atoms: C_2  and  C_18
REMARK    4  A    between atoms: C_3  and  C_4
REMARK    5  A    between atoms: C_10  and  C_11
REMARK    6  A    between atoms: C_11  and  O_12
REMARK    7  A    between atoms: C_11  and  O_13
REMARK    8  A    between atoms: C_11  and  C_14
REMARK    9  A    between atoms: C_14  and  N_15
REMARK   10  A    between atoms: C_18  and  O_19
REMARK                            x       y       z     vdW  Elec       q    Type
REMARK                         _______ _______ _______ _____ _____    ______ ____
ROOT
ATOM      1  C   UNL     1       8.430  -3.596  25.031  0.00  0.00    +0.109 C 
ENDROOT
BRANCH   1   2
ATOM      2  C   UNL     1       9.339  -4.676  25.583  0.00  0.00    +0.308 C 
ATOM      3  O   UNL     1      10.391  -5.017  25.053  0.00  0.00    -0.251 OA
BRANCH   2   4
ATOM      4  O   UNL     1       8.881  -5.244  26.720  0.00  0.00    -0.480 OA
ATOM      5  H   UNL     1       8.018  -5.691  26.625  0.00  0.00    +0.295 HD
ENDBRANCH   2   4
ENDBRANCH   1   2
BRANCH   1   6
ATOM      6  C   UNL     1       6.977  -3.780  25.523  0.00  0.00    +0.114 C 
BRANCH   6   7
ATOM      7  C   UNL     1       6.053  -4.518  24.525  0.00  0.00    +0.305 C 
BRANCH   7   8
ATOM      8  O   UNL     1       4.825  -3.821  24.334  0.00  0.00    -0.501 OA
ATOM      9  H   UNL     1       4.072  -4.442  24.397  0.00  0.00    +0.288 HD
ENDBRANCH   7   8
BRANCH   7  10
ATOM     10  O   UNL     1       5.699  -5.770  25.103  0.00  0.00    -0.501 OA
ATOM     11  H   UNL     1       6.145  -5.840  25.972  0.00  0.00    +0.288 HD
ENDBRANCH   7  10
BRANCH   7  12
ATOM     12  C   UNL     1       6.636  -4.637  23.113  0.00  0.00    +0.516 C 
BRANCH  12  13
ATOM     13  N   UNL     1       5.565  -4.703  22.083  0.00  0.00    +0.046 N 
ATOM     14  O   UNL     1       5.482  -3.742  21.309  0.00  0.00    +0.035 OA
ATOM     15  O   UNL     1       4.815  -5.687  22.080  0.00  0.00    -0.582 OA
ENDBRANCH  12  13
ENDBRANCH   7  12
ENDBRANCH   6   7
ENDBRANCH   1   6
BRANCH   1  16
ATOM     16  C   UNL     1       9.000  -2.198  25.356  0.00  0.00    +0.050 C 
BRANCH  16  17
ATOM     17  C   UNL     1       9.316  -1.316  24.171  0.00  0.00    -0.047 A 
ATOM     18  C   UNL     1       9.819  -0.020  24.350  0.00  0.00    +0.003 A 
ATOM     19  C   UNL     1      10.129   0.777  23.246  0.00  0.00    +0.000 A 
ATOM     20  C   UNL     1       9.932   0.293  21.954  0.00  0.00    +0.000 A 
ATOM     21  C   UNL     1       9.425  -0.990  21.765  0.00  0.00    +0.000 A 
ATOM     22  C   UNL     1       9.116  -1.788  22.867  0.00  0.00    +0.003 A 
ENDBRANCH  16  17
ENDBRANCH   1  16
TORSDOF 10
ENDMDL
MODEL 9
REMARK VINA RESULT:      -5.2      3.277      5.084
REMARK  Name = 
REMARK  10 active torsions:
REMARK  status: ('A' for Active; 'I' for Inactive)
REMARK    1  A    between atoms: C_2  and  C_3
REMARK    2  A    between atoms: C_2  and  C_10
REMARK    3  A    between atoms: C_2  and  C_18
REMARK    4  A    between atoms: C_3  and  C_4
REMARK    5  A    between atoms: C_10  and  C_11
REMARK    6  A    between atoms: C_11  and  O_12
REMARK    7  A    between atoms: C_11  and  O_13
REMARK    8  A    between atoms: C_11  and  C_14
REMARK    9  A    between atoms: C_14  and  N_15
REMARK   10  A    between atoms: C_18  and  O_19
REMARK                            x       y       z     vdW  Elec       q    Type
REMARK                         _______ _______ _______ _____ _____    ______ ____
ROOT
ATOM      1  C   UNL     1       7.626  -3.402  22.644  0.00  0.00    +0.109 C 
ENDROOT
BRANCH   1   2
ATOM      2  C   UNL     1       6.251  -2.946  22.199  0.00  0.00    +0.308 C 
ATOM      3  O   UNL     1       5.502  -3.623  21.504  0.00  0.00    -0.251 OA
BRANCH   2   4
ATOM      4  O   UNL     1       5.919  -1.710  22.634  0.00  0.00    -0.480 OA
ATOM      5  H   UNL     1       6.358  -0.985  22.150  0.00  0.00    +0.295 HD
ENDBRANCH   2   4
ENDBRANCH   1   2
BRANCH   1   6
ATOM      6  C   UNL     1       8.224  -2.437  23.694  0.00  0.00    +0.114 C 
BRANCH   6   7
ATOM      7  C   UNL     1       9.503  -1.702  23.231  0.00  0.00    +0.305 C 
BRANCH   7   8
ATOM      8  O   UNL     1      10.607  -2.595  23.112  0.00  0.00    -0.501 OA
ATOM      9  H   UNL     1      10.708  -2.885  22.183  0.00  0.00    +0.288 HD
ENDBRANCH   7   8
BRANCH   7  10
ATOM     10  O   UNL     1       9.865  -0.774  24.248  0.00  0.00    -0.501 OA
ATOM     11  H   UNL     1      10.271   0.005  23.817  0.00  0.00    +0.288 HD
ENDBRANCH   7  10
BRANCH   7  12
ATOM     12  C   UNL     1       9.386  -1.071  21.838  0.00  0.00    +0.516 C 
BRANCH  12  13
ATOM     13  N   UNL     1       9.036   0.372  21.919  0.00  0.00    +0.046 N 
ATOM     14  O   UNL     1       9.958   1.176  21.736  0.00  0.00    +0.035 OA
ATOM     15  O   UNL     1       7.868   0.676  22.188  0.00  0.00    -0.582 OA
ENDBRANCH  12  13
ENDBRANCH   7  12
ENDBRANCH   6   7
ENDBRANCH   1   6
BRANCH   1  16
ATOM     16  C   UNL     1       7.573  -4.864  23.137  0.00  0.00    +0.050 C 
BRANCH  16  17
ATOM     17  C   UNL     1       7.227  -5.064  24.594  0.00  0.00    -0.047 A 
ATOM     18  C   UNL     1       5.894  -5.192  25.009  0.00  0.00    +0.003 A 
ATOM     19  C   UNL     1       5.590  -5.399  26.356  0.00  0.00    +0.000 A 
ATOM     20  C   UNL     1       6.610  -5.471  27.303  0.00  0.00    +0.000 A 
ATOM     21  C   UNL     1       7.937  -5.336  26.903  0.00  0.00    +0.000 A 
ATOM     22  C   UNL     1       8.243  -5.130  25.557  0.00  0.00    +0.003 A 
ENDBRANCH  16  17
ENDBRANCH   1  16
TORSDOF 10
ENDMDL
