MODEL 1
REMARK VINA RESULT:      -5.4      0.000      0.000
REMARK  Name = 
REMARK  7 active torsions:
REMARK  status: ('A' for Active; 'I' for Inactive)
REMARK    1  A    between atoms: C_1  and  C_2
REMARK    2  A    between atoms: C_2  and  N_4
REMARK    3  A    between atoms: C_2  and  C_5
REMARK    4  A    between atoms: C_5  and  O_7
REMARK    5  A    between atoms: C_5  and  C_8
REMARK    6  A    between atoms: C_10  and  O_11
REMARK    7  A    between atoms: C_12  and  O_13
REMARK                            x       y       z     vdW  Elec       q    Type
REMARK                         _______ _______ _______ _____ _____    ______ ____
ROOT
ATOM      1  C   UNL     1      10.592   3.829  23.366  0.00  0.00    -0.014 A 
ATOM      2  C   UNL     1       9.978   4.915  24.017  0.00  0.00    +0.010 A 
ATOM      3  C   UNL     1      10.729   6.026  24.413  0.00  0.00    +0.049 A 
ATOM      4  C   UNL     1      12.089   6.047  24.157  0.00  0.00    +0.158 A 
ATOM      5  C   UNL     1      12.708   4.994  23.490  0.00  0.00    +0.159 A 
ATOM      6  C   UNL     1      11.969   3.889  23.087  0.00  0.00    +0.055 A 
ENDROOT
BRANCH   4   7
ATOM      7  O   UNL     1      12.833   7.108  24.590  0.00  0.00    -0.503 OA
ATOM      8  H   UNL     1      13.474   7.266  23.867  0.00  0.00    +0.292 HD
ENDBRANCH   4   7
BRANCH   5   9
ATOM      9  O   UNL     1      14.057   5.074  23.278  0.00  0.00    -0.503 OA
ATOM     10  H   UNL     1      14.261   5.974  22.976  0.00  0.00    +0.292 HD
ENDBRANCH   5   9
BRANCH   1  11
ATOM     11  C   UNL     1       9.783   2.576  23.081  0.00  0.00    +0.161 C 
BRANCH  11  13
ATOM     12  C   UNL     1      10.257   0.042  23.088  0.00  0.00    +0.026 C 
ATOM     13  C   UNL     1      10.311   1.349  23.887  0.00  0.00    +0.081 C 
BRANCH  13  14
ATOM     14  N   UNL     1       9.533   1.170  25.129  0.00  0.00    -0.325 NA
ATOM     15  H   UNL     1       9.213   0.198  25.153  0.00  0.00    +0.119 HD
ATOM     16  H   UNL     1      10.146   1.286  25.934  0.00  0.00    +0.119 HD
ENDBRANCH  13  14
ENDBRANCH  11  13
BRANCH  11  17
ATOM     17  O   UNL     1       9.781   2.287  21.676  0.00  0.00    -0.386 OA
ATOM     18  H   UNL     1      10.230   3.036  21.250  0.00  0.00    +0.210 HD
ENDBRANCH  11  17
ENDBRANCH   1  11
TORSDOF 6
ENDMDL
MODEL 2
REMARK VINA RESULT:      -5.2      5.490      8.582
REMARK  Name = 
REMARK  7 active torsions:
REMARK  status: ('A' for Active; 'I' for Inactive)
REMARK    1  A    between atoms: C_1  and  C_2
REMARK    2  A    between atoms: C_2  and  N_4
REMARK    3  A    between atoms: C_2  and  C_5
REMARK    4  A    between atoms: C_5  and  O_7
REMARK    5  A    between atoms: C_5  and  C_8
REMARK    6  A    between atoms: C_10  and  O_11
REMARK    7  A    between atoms: C_12  and  O_13
REMARK                            x       y       z     vdW  Elec       q    Type
REMARK                         _______ _______ _______ _____ _____    ______ ____
ROOT
ATOM      1  C   UNL     1       8.522  -2.749  24.716  0.00  0.00    -0.014 A 
ATOM      2  C   UNL     1       7.529  -2.671  25.711  0.00  0.00    +0.010 A 
ATOM      3  C   UNL     1       7.370  -3.701  26.642  0.00  0.00    +0.049 A 
ATOM      4  C   UNL     1       8.203  -4.805  26.576  0.00  0.00    +0.158 A 
ATOM      5  C   UNL     1       9.209  -4.886  25.617  0.00  0.00    +0.159 A 
ATOM      6  C   UNL     1       9.379  -3.864  24.692  0.00  0.00    +0.055 A 
ENDROOT
BRANCH   4   7
ATOM      7  O   UNL     1       8.015  -5.836  27.452  0.00  0.00    -0.503 OA
ATOM      8  H   UNL     1       7.388  -6.432  26.994  0.00  0.00    +0.292 HD
ENDBRANCH   4   7
BRANCH   5   9
ATOM      9  O   UNL     1       9.990  -6.008  25.602  0.00  0.00    -0.503 OA
ATOM     10  H   UNL     1      10.384  -6.112  26.483  0.00  0.00    +0.292 HD
ENDBRANCH   5   9
BRANCH   1  11
ATOM     11  C   UNL     1       8.576  -1.689  23.631  0.00  0.00    +0.161 C 
BRANCH  11  13
ATOM     12  C   UNL     1      10.529  -0.006  23.563  0.00  0.00    +0.026 C 
ATOM     13  C   UNL     1      10.039  -1.405  23.169  0.00  0.00    +0.081 C 
BRANCH  13  14
ATOM     14  N   UNL     1      10.159  -1.547  21.705  0.00  0.00    -0.325 NA
ATOM     15  H   UNL     1      10.414  -2.519  21.510  0.00  0.00    +0.119 HD
ATOM     16  H   UNL     1       9.248  -1.402  21.274  0.00  0.00    +0.119 HD
ENDBRANCH  13  14
ENDBRANCH  11  13
BRANCH  11  17
ATOM     17  O   UNL     1       7.950  -0.478  24.077  0.00  0.00    -0.386 OA
ATOM     18  H   UNL     1       8.269  -0.333  24.984  0.00  0.00    +0.210 HD
ENDBRANCH  11  17
ENDBRANCH   1  11
TORSDOF 6
ENDMDL
MODEL 3
REMARK VINA RESULT:      -5.1      4.163      5.796
REMARK  Name = 
REMARK  7 active torsions:
REMARK  status: ('A' for Active; 'I' for Inactive)
REMARK    1  A    between atoms: C_1  and  C_2
REMARK    2  A    between atoms: C_2  and  N_4
REMARK    3  A    between atoms: C_2  and  C_5
REMARK    4  A    between atoms: C_5  and  O_7
REMARK    5  A    between atoms: C_5  and  C_8
REMARK    6  A    between atoms: C_10  and  O_11
REMARK    7  A    between atoms: C_12  and  O_13
REMARK                            x       y       z     vdW  Elec       q    Type
REMARK                         _______ _______ _______ _____ _____    ______ ____
ROOT
ATOM      1  C   UNL     1       9.628  -1.557  23.444  0.00  0.00    -0.014 A 
ATOM      2  C   UNL     1       9.320  -1.429  22.076  0.00  0.00    +0.010 A 
ATOM      3  C   UNL     1       9.483  -0.206  21.420  0.00  0.00    +0.049 A 
ATOM      4  C   UNL     1       9.951   0.885  22.133  0.00  0.00    +0.158 A 
ATOM      5  C   UNL     1      10.287   0.770  23.479  0.00  0.00    +0.159 A 
ATOM      6  C   UNL     1      10.136  -0.444  24.137  0.00  0.00    +0.055 A 
ENDROOT
BRANCH   4   7
ATOM      7  O   UNL     1      10.061   2.094  21.506  0.00  0.00    -0.503 OA
ATOM      8  H   UNL     1      10.273   2.722  22.226  0.00  0.00    +0.292 HD
ENDBRANCH   4   7
BRANCH   5   9
ATOM      9  O   UNL     1      10.735   1.889  24.125  0.00  0.00    -0.503 OA
ATOM     10  H   UNL     1      11.427   2.295  23.579  0.00  0.00    +0.292 HD
ENDBRANCH   5   9
BRANCH   1  11
ATOM     11  C   UNL     1       9.304  -2.853  24.163  0.00  0.00    +0.161 C 
BRANCH  11  13
ATOM     12  C   UNL     1       6.760  -3.232  23.976  0.00  0.00    +0.026 C 
ATOM     13  C   UNL     1       8.147  -3.633  23.462  0.00  0.00    +0.081 C 
BRANCH  13  14
ATOM     14  N   UNL     1       8.313  -5.088  23.649  0.00  0.00    -0.325 NA
ATOM     15  H   UNL     1       8.520  -5.494  22.733  0.00  0.00    +0.119 HD
ATOM     16  H   UNL     1       9.131  -5.265  24.229  0.00  0.00    +0.119 HD
ENDBRANCH  13  14
ENDBRANCH  11  13
BRANCH  11  17
ATOM     17  O   UNL     1       8.973  -2.599  25.535  0.00  0.00    -0.386 OA
ATOM     18  H   UNL     1       9.622  -3.097  26.061  0.00  0.00    +0.210 HD
ENDBRANCH  11  17
ENDBRANCH   1  11
TORSDOF 6
ENDMDL
MODEL 4
REMARK VINA RESULT:      -5.0      3.501      6.088
REMARK  Name = 
REMARK  7 active torsions:
REMARK  status: ('A' for Active; 'I' for Inactive)
REMARK    1  A    between atoms: C_1  and  C_2
REMARK    2  A    between atoms: C_2  and  N_4
REMARK    3  A    between atoms: C_2  and  C_5
REMARK    4  A    between atoms: C_5  and  O_7
REMARK    5  A    between atoms: C_5  and  C_8
REMARK    6  A    between atoms: C_10  and  O_11
REMARK    7  A    between atoms: C_12  and  O_13
REMARK                            x       y       z     vdW  Elec       q    Type
REMARK                         _______ _______ _______ _____ _____    ______ ____
ROOT
ATOM      1  C   UNL     1       9.660   0.688  23.164  0.00  0.00    -0.014 A 
ATOM      2  C   UNL     1      10.146  -0.237  22.222  0.00  0.00    +0.010 A 
ATOM      3  C   UNL     1      10.227  -1.598  22.534  0.00  0.00    +0.049 A 
ATOM      4  C   UNL     1       9.823  -2.028  23.786  0.00  0.00    +0.158 A 
ATOM      5  C   UNL     1       9.314  -1.131  24.721  0.00  0.00    +0.159 A 
ATOM      6  C   UNL     1       9.223   0.221  24.417  0.00  0.00    +0.055 A 
ENDROOT
BRANCH   4   7
ATOM      7  O   UNL     1       9.951  -3.349  24.111  0.00  0.00    -0.503 OA
ATOM      8  H   UNL     1      10.724  -3.377  24.711  0.00  0.00    +0.292 HD
ENDBRANCH   4   7
BRANCH   5   9
ATOM      9  O   UNL     1       8.942  -1.621  25.943  0.00  0.00    -0.503 OA
ATOM     10  H   UNL     1       9.602  -2.280  26.215  0.00  0.00    +0.292 HD
ENDBRANCH   5   9
BRANCH   1  11
ATOM     11  C   UNL     1       9.721   2.172  22.853  0.00  0.00    +0.161 C 
BRANCH  11  13
ATOM     12  C   UNL     1       7.341   2.256  21.863  0.00  0.00    +0.026 C 
ATOM     13  C   UNL     1       8.308   2.834  22.903  0.00  0.00    +0.081 C 
BRANCH  13  14
ATOM     14  N   UNL     1       8.410   4.291  22.687  0.00  0.00    -0.325 NA
ATOM     15  H   UNL     1       7.535   4.599  22.253  0.00  0.00    +0.119 HD
ATOM     16  H   UNL     1       8.461   4.765  23.587  0.00  0.00    +0.119 HD
ENDBRANCH  13  14
ENDBRANCH  11  13
BRANCH  11  17
ATOM     17  O   UNL     1      10.331   2.394  21.574  0.00  0.00    -0.386 OA
ATOM     18  H   UNL     1       9.730   2.987  21.093  0.00  0.00    +0.210 HD
ENDBRANCH  11  17
ENDBRANCH   1  11
TORSDOF 6
ENDMDL
MODEL 5
REMARK VINA RESULT:      -4.9      3.459      5.069
REMARK  Name = 
REMARK  7 active torsions:
REMARK  status: ('A' for Active; 'I' for Inactive)
REMARK    1  A    between atoms: C_1  and  C_2
REMARK    2  A    between atoms: C_2  and  N_4
REMARK    3  A    between atoms: C_2  and  C_5
REMARK    4  A    between atoms: C_5  and  O_7
REMARK    5  A    between atoms: C_5  and  C_8
REMARK    6  A    between atoms: C_10  and  O_11
REMARK    7  A    between atoms: C_12  and  O_13
REMARK                            x       y       z     vdW  Elec       q    Type
REMARK                         _______ _______ _______ _____ _____    ______ ____
ROOT
ATOM      1  C   UNL     1       9.678  -0.931  23.201  0.00  0.00    -0.014 A 
ATOM      2  C   UNL     1      10.214  -0.524  24.437  0.00  0.00    +0.010 A 
ATOM      3  C   UNL     1      10.634   0.795  24.631  0.00  0.00    +0.049 A 
ATOM      4  C   UNL     1      10.518   1.701  23.591  0.00  0.00    +0.158 A 
ATOM      5  C   UNL     1       9.965   1.323  22.371  0.00  0.00    +0.159 A 
ATOM      6  C   UNL     1       9.538   0.016  22.171  0.00  0.00    +0.055 A 
ENDROOT
BRANCH   4   7
ATOM      7  O   UNL     1      10.976   2.976  23.763  0.00  0.00    -0.503 OA
ATOM      8  H   UNL     1      11.939   2.871  23.902  0.00  0.00    +0.292 HD
ENDBRANCH   4   7
BRANCH   5   9
ATOM      9  O   UNL     1       9.889   2.264  21.382  0.00  0.00    -0.503 OA
ATOM     10  H   UNL     1       9.811   1.802  20.532  0.00  0.00    +0.292 HD
ENDBRANCH   5   9
BRANCH   1  11
ATOM     11  C   UNL     1       9.368  -2.399  22.970  0.00  0.00    +0.161 C 
BRANCH  11  13
ATOM     12  C   UNL     1       7.017  -2.122  23.994  0.00  0.00    +0.026 C 
ATOM     13  C   UNL     1       7.835  -2.650  22.810  0.00  0.00    +0.081 C 
BRANCH  13  14
ATOM     14  N   UNL     1       7.559  -4.092  22.657  0.00  0.00    -0.325 NA
ATOM     15  H   UNL     1       7.190  -4.236  21.714  0.00  0.00    +0.119 HD
ATOM     16  H   UNL     1       8.433  -4.613  22.701  0.00  0.00    +0.119 HD
ENDBRANCH  13  14
ENDBRANCH  11  13
BRANCH  11  17
ATOM     17  O   UNL     1       9.896  -3.200  24.036  0.00  0.00    -0.386 OA
ATOM     18  H   UNL     1       9.551  -2.810  24.857  0.00  0.00    +0.210 HD
ENDBRANCH  11  17
ENDBRANCH   1  11
TORSDOF 6
ENDMDL
MODEL 6
REMARK VINA RESULT:      -4.9      3.406      6.381
REMARK  Name = 
REMARK  7 active torsions:
REMARK  status: ('A' for Active; 'I' for Inactive)
REMARK    1  A    between atoms: C_1  and  C_2
REMARK    2  A    between atoms: C_2  and  N_4
REMARK    3  A    between atoms: C_2  and  C_5
REMARK    4  A    between atoms: C_5  and  O_7
REMARK    5  A    between atoms: C_5  and  C_8
REMARK    6  A    between atoms: C_10  and  O_11
REMARK    7  A    between atoms: C_12  and  O_13
REMARK                            x       y       z     vdW  Elec       q    Type
REMARK                         _______ _______ _______ _____ _____    ______ ____
ROOT
ATOM      1  C   UNL     1       9.410   0.217  22.741  0.00  0.00    -0.014 A 
ATOM      2  C   UNL     1       8.022   0.045  22.573  0.00  0.00    +0.010 A 
ATOM      3  C   UNL     1       7.418  -1.184  22.850  0.00  0.00    +0.049 A 
ATOM      4  C   UNL     1       8.200  -2.237  23.292  0.00  0.00    +0.158 A 
ATOM      5  C   UNL     1       9.569  -2.078  23.490  0.00  0.00    +0.159 A 
ATOM      6  C   UNL     1      10.178  -0.858  23.224  0.00  0.00    +0.055 A 
ENDROOT
BRANCH   4   7
ATOM      7  O   UNL     1       7.619  -3.454  23.513  0.00  0.00    -0.503 OA
ATOM      8  H   UNL     1       6.822  -3.448  22.944  0.00  0.00    +0.292 HD
ENDBRANCH   4   7
BRANCH   5   9
ATOM      9  O   UNL     1      10.285  -3.161  23.918  0.00  0.00    -0.503 OA
ATOM     10  H   UNL     1      10.562  -3.667  23.137  0.00  0.00    +0.292 HD
ENDBRANCH   5   9
BRANCH   1  11
ATOM     11  C   UNL     1      10.060   1.513  22.294  0.00  0.00    +0.161 C 
BRANCH  11  13
ATOM     12  C   UNL     1       9.225   2.848  24.336  0.00  0.00    +0.026 C 
ATOM     13  C   UNL     1      10.441   2.419  23.506  0.00  0.00    +0.081 C 
BRANCH  13  14
ATOM     14  N   UNL     1      11.143   3.633  23.045  0.00  0.00    -0.325 NA
ATOM     15  H   UNL     1      11.869   3.848  23.735  0.00  0.00    +0.119 HD
ATOM     16  H   UNL     1      11.631   3.435  22.174  0.00  0.00    +0.119 HD
ENDBRANCH  13  14
ENDBRANCH  11  13
BRANCH  11  17
ATOM     17  O   UNL     1       9.201   2.222  21.390  0.00  0.00    -0.386 OA
ATOM     18  H   UNL     1       8.902   3.011  21.873  0.00  0.00    +0.210 HD
ENDBRANCH  11  17
ENDBRANCH   1  11
TORSDOF 6
ENDMDL
MODEL 7
REMARK VINA RESULT:      -4.7      5.304      7.123
REMARK  Name = 
REMARK  7 active torsions:
REMARK  status: ('A' for Active; 'I' for Inactive)
REMARK    1  A    between atoms: C_1  and  C_2
REMARK    2  A    between atoms: C_2  and  N_4
REMARK    3  A    between atoms: C_2  and  C_5
REMARK    4  A    between atoms: C_5  and  O_7
REMARK    5  A    between atoms: C_5  and  C_8
REMARK    6  A    between atoms: C_10  and  O_11
REMARK    7  A    between atoms: C_12  and  O_13
REMARK                            x       y       z     vdW  Elec       q    Type
REMARK                         _______ _______ _______ _____ _____    ______ ____
ROOT
ATOM      1  C   UNL     1       8.409  -2.702  24.740  0.00  0.00    -0.014 A 
ATOM      2  C   UNL     1       8.701  -1.587  25.547  0.00  0.00    +0.010 A 
ATOM      3  C   UNL     1       9.439  -0.513  25.040  0.00  0.00    +0.049 A 
ATOM      4  C   UNL     1       9.882  -0.558  23.729  0.00  0.00    +0.158 A 
ATOM      5  C   UNL     1       9.579  -1.641  22.908  0.00  0.00    +0.159 A 
ATOM      6  C   UNL     1       8.841  -2.709  23.402  0.00  0.00    +0.055 A 
ENDROOT
BRANCH   4   7
ATOM      7  O   UNL     1      10.647   0.466  23.248  0.00  0.00    -0.503 OA
ATOM      8  H   UNL     1      10.148   0.800  22.475  0.00  0.00    +0.292 HD
ENDBRANCH   4   7
BRANCH   5   9
ATOM      9  O   UNL     1      10.057  -1.627  21.627  0.00  0.00    -0.503 OA
ATOM     10  H   UNL     1       9.313  -1.439  21.031  0.00  0.00    +0.292 HD
ENDBRANCH   5   9
BRANCH   1  11
ATOM     11  C   UNL     1       7.737  -3.914  25.358  0.00  0.00    +0.161 C 
BRANCH  11  13
ATOM     12  C   UNL     1       9.938  -5.212  25.705  0.00  0.00    +0.026 C 
ATOM     13  C   UNL     1       8.675  -4.648  26.367  0.00  0.00    +0.081 C 
BRANCH  13  14
ATOM     14  N   UNL     1       7.960  -5.756  27.030  0.00  0.00    -0.325 NA
ATOM     15  H   UNL     1       7.000  -5.445  27.197  0.00  0.00    +0.119 HD
ATOM     16  H   UNL     1       7.895  -6.548  26.393  0.00  0.00    +0.119 HD
ENDBRANCH  13  14
ENDBRANCH  11  13
BRANCH  11  17
ATOM     17  O   UNL     1       7.295  -4.821  24.338  0.00  0.00    -0.386 OA
ATOM     18  H   UNL     1       7.017  -5.628  24.803  0.00  0.00    +0.210 HD
ENDBRANCH  11  17
ENDBRANCH   1  11
TORSDOF 6
ENDMDL
MODEL 8
REMARK VINA RESULT:      -4.7      4.932      8.161
REMARK  Name = 
REMARK  7 active torsions:
REMARK  status: ('A' for Active; 'I' for Inactive)
REMARK    1  A    between atoms: C_1  and  C_2
REMARK    2  A    between atoms: C_2  and  N_4
REMARK    3  A    between atoms: C_2  and  C_5
REMARK    4  A    between atoms: C_5  and  O_7
REMARK    5  A    between atoms: C_5  and  C_8
REMARK    6  A    between atoms: C_10  and  O_11
REMARK    7  A    between atoms: C_12  and  O_13
REMARK                            x       y       z     vdW  Elec       q    Type
REMARK                         _______ _______ _______ _____ _____    ______ ____
ROOT
ATOM      1  C   UNL     1       9.295  -2.435  23.506  0.00  0.00    -0.014 A 
ATOM      2  C   UNL     1       7.939  -2.477  23.131  0.00  0.00    +0.010 A 
ATOM      3  C   UNL     1       7.088  -3.461  23.643  0.00  0.00    +0.049 A 
ATOM      4  C   UNL     1       7.596  -4.400  24.525  0.00  0.00    +0.158 A 
ATOM      5  C   UNL     1       8.927  -4.357  24.928  0.00  0.00    +0.159 A 
ATOM      6  C   UNL     1       9.778  -3.378  24.430  0.00  0.00    +0.055 A 
ENDROOT
BRANCH   4   7
ATOM      7  O   UNL     1       6.778  -5.393  24.985  0.00  0.00    -0.503 OA
ATOM      8  H   UNL     1       6.358  -5.012  25.783  0.00  0.00    +0.292 HD
ENDBRANCH   4   7
BRANCH   5   9
ATOM      9  O   UNL     1       9.366  -5.319  25.794  0.00  0.00    -0.503 OA
ATOM     10  H   UNL     1       8.615  -5.592  26.346  0.00  0.00    +0.292 HD
ENDBRANCH   5   9
BRANCH   1  11
ATOM     11  C   UNL     1      10.226  -1.450  22.824  0.00  0.00    +0.161 C 
BRANCH  11  13
ATOM     12  C   UNL     1       9.924   0.989  22.043  0.00  0.00    +0.026 C 
ATOM     13  C   UNL     1       9.914   0.023  23.234  0.00  0.00    +0.081 C 
BRANCH  13  14
ATOM     14  N   UNL     1      10.890   0.503  24.232  0.00  0.00    -0.325 NA
ATOM     15  H   UNL     1      11.269  -0.319  24.711  0.00  0.00    +0.119 HD
ATOM     16  H   UNL     1      11.677   0.940  23.756  0.00  0.00    +0.119 HD
ENDBRANCH  13  14
ENDBRANCH  11  13
BRANCH  11  17
ATOM     17  O   UNL     1      10.159  -1.596  21.399  0.00  0.00    -0.386 OA
ATOM     18  H   UNL     1      10.367  -0.719  21.032  0.00  0.00    +0.210 HD
ENDBRANCH  11  17
ENDBRANCH   1  11
TORSDOF 6
ENDMDL
MODEL 9
REMARK VINA RESULT:      -4.7      4.604      6.294
REMARK  Name = 
REMARK  7 active torsions:
REMARK  status: ('A' for Active; 'I' for Inactive)
REMARK    1  A    between atoms: C_1  and  C_2
REMARK    2  A    between atoms: C_2  and  N_4
REMARK    3  A    between atoms: C_2  and  C_5
REMARK    4  A    between atoms: C_5  and  O_7
REMARK    5  A    between atoms: C_5  and  C_8
REMARK    6  A    between atoms: C_10  and  O_11
REMARK    7  A    between atoms: C_12  and  O_13
REMARK                            x       y       z     vdW  Elec       q    Type
REMARK                         _______ _______ _______ _____ _____    ______ ____
ROOT
ATOM      1  C   UNL     1       7.769  -1.255  22.685  0.00  0.00    -0.014 A 
ATOM      2  C   UNL     1       8.966  -1.373  21.953  0.00  0.00    +0.010 A 
ATOM      3  C   UNL     1       9.664  -0.234  21.541  0.00  0.00    +0.049 A 
ATOM      4  C   UNL     1       9.163   1.017  21.859  0.00  0.00    +0.158 A 
ATOM      5  C   UNL     1       7.996   1.152  22.605  0.00  0.00    +0.159 A 
ATOM      6  C   UNL     1       7.300   0.026  23.026  0.00  0.00    +0.055 A 
ENDROOT
BRANCH   4   7
ATOM      7  O   UNL     1       9.816   2.130  21.411  0.00  0.00    -0.503 OA
ATOM      8  H   UNL     1       9.327   2.390  20.604  0.00  0.00    +0.292 HD
ENDBRANCH   4   7
BRANCH   5   9
ATOM      9  O   UNL     1       7.552   2.416  22.876  0.00  0.00    -0.503 OA
ATOM     10  H   UNL     1       7.609   2.936  22.058  0.00  0.00    +0.292 HD
ENDBRANCH   5   9
BRANCH   1  11
ATOM     11  C   UNL     1       6.958  -2.500  22.991  0.00  0.00    +0.161 C 
BRANCH  11  13
ATOM     12  C   UNL     1       6.787  -4.844  21.929  0.00  0.00    +0.026 C 
ATOM     13  C   UNL     1       7.710  -3.802  22.571  0.00  0.00    +0.081 C 
BRANCH  13  14
ATOM     14  N   UNL     1       8.371  -4.419  23.738  0.00  0.00    -0.325 NA
ATOM     15  H   UNL     1       8.048  -5.388  23.797  0.00  0.00    +0.119 HD
ATOM     16  H   UNL     1       9.375  -4.465  23.575  0.00  0.00    +0.119 HD
ENDBRANCH  13  14
ENDBRANCH  11  13
BRANCH  11  17
ATOM     17  O   UNL     1       5.676  -2.437  22.351  0.00  0.00    -0.386 OA
ATOM     18  H   UNL     1       5.035  -2.761  23.007  0.00  0.00    +0.210 HD
ENDBRANCH  11  17
ENDBRANCH   1  11
TORSDOF 6
ENDMDL
