MODEL 1
REMARK VINA RESULT:      -7.6      0.000      0.000
REMARK  Name = 
REMARK  3 active torsions:
REMARK  status: ('A' for Active; 'I' for Inactive)
REMARK    1  A    between atoms: C_1  and  N_2
REMARK    2  A    between atoms: N_5  and  C_6
REMARK    3  A    between atoms: C_6  and  C_7
REMARK                            x       y       z     vdW  Elec       q    Type
REMARK                         _______ _______ _______ _____ _____    ______ ____
ROOT
ATOM      1  C   UNL     1       8.300  -4.504  25.577  0.00  0.00    +0.248 C 
ATOM      2  N   UNL     1       6.962  -4.839  25.266  0.00  0.00    -0.262 N 
ATOM      3  C   UNL     1       6.624  -5.142  23.884  0.00  0.00    +0.164 A 
ATOM      4  N   UNL     1       7.627  -5.161  22.970  0.00  0.00    -0.236 NA
ATOM      5  C   UNL     1       7.347  -5.517  21.686  0.00  0.00    +0.113 A 
ATOM      6  C   UNL     1       6.091  -5.848  21.219  0.00  0.00    +0.022 A 
ATOM      7  C   UNL     1       5.051  -5.813  22.127  0.00  0.00    +0.031 A 
ATOM      8  C   UNL     1       5.320  -5.458  23.450  0.00  0.00    +0.085 A 
ATOM      9  N   UNL     1       4.246  -5.586  24.349  0.00  0.00    -0.319 N 
ATOM     10  H   UNL     1       4.218  -4.750  24.932  0.00  0.00    +0.169 HD
ATOM     11  C   UNL     1       4.479  -6.685  25.159  0.00  0.00    +0.258 A 
ATOM     12  O   UNL     1       4.134  -7.830  24.914  0.00  0.00    -0.267 OA
ATOM     13  C   UNL     1       5.173  -6.314  26.392  0.00  0.00    +0.063 A 
ATOM     14  C   UNL     1       4.651  -6.878  27.570  0.00  0.00    +0.015 A 
ATOM     15  C   UNL     1       4.959  -6.316  28.799  0.00  0.00    +0.001 A 
ATOM     16  C   UNL     1       5.756  -5.182  28.837  0.00  0.00    +0.002 A 
ATOM     17  C   UNL     1       6.343  -4.699  27.661  0.00  0.00    +0.027 A 
ATOM     18  C   UNL     1       6.144  -5.297  26.402  0.00  0.00    +0.064 A 
ATOM     19  O   UNL     1       8.916  -5.014  26.522  0.00  0.00    -0.271 OA
ENDROOT
BRANCH   1  20
ATOM     20  C   UNL     1       8.982  -3.325  24.838  0.00  0.00    +0.184 C 
BRANCH  20  25
ATOM     21  C   UNL     1       8.607   1.439  23.757  0.00  0.00    +0.105 C 
ATOM     22  N   UNL     1       9.477   0.287  23.514  0.00  0.00    -0.303 NA
ATOM     23  C   UNL     1       8.765  -0.799  22.813  0.00  0.00    +0.099 C 
ATOM     24  C   UNL     1       7.733  -1.580  23.673  0.00  0.00    +0.100 C 
ATOM     25  N   UNL     1       8.211  -2.062  24.992  0.00  0.00    -0.291 NA
ATOM     26  C   UNL     1       8.980  -0.979  25.645  0.00  0.00    +0.100 C 
ATOM     27  C   UNL     1      10.021  -0.247  24.773  0.00  0.00    +0.099 C 
ENDBRANCH  20  25
ENDBRANCH   1  20
TORSDOF 2
ENDMDL
MODEL 2
REMARK VINA RESULT:      -6.8      1.598      1.669
REMARK  Name = 
REMARK  3 active torsions:
REMARK  status: ('A' for Active; 'I' for Inactive)
REMARK    1  A    between atoms: C_1  and  N_2
REMARK    2  A    between atoms: N_5  and  C_6
REMARK    3  A    between atoms: C_6  and  C_7
REMARK                            x       y       z     vdW  Elec       q    Type
REMARK                         _______ _______ _______ _____ _____    ______ ____
ROOT
ATOM      1  C   UNL     1       7.831  -3.318  25.565  0.00  0.00    +0.248 C 
ATOM      2  N   UNL     1       6.553  -3.664  25.070  0.00  0.00    -0.262 N 
ATOM      3  C   UNL     1       6.471  -4.493  23.877  0.00  0.00    +0.164 A 
ATOM      4  N   UNL     1       7.628  -4.956  23.339  0.00  0.00    -0.236 NA
ATOM      5  C   UNL     1       7.571  -5.795  22.270  0.00  0.00    +0.113 A 
ATOM      6  C   UNL     1       6.406  -6.209  21.655  0.00  0.00    +0.022 A 
ATOM      7  C   UNL     1       5.217  -5.731  22.173  0.00  0.00    +0.031 A 
ATOM      8  C   UNL     1       5.255  -4.876  23.276  0.00  0.00    +0.085 A 
ATOM      9  N   UNL     1       4.008  -4.547  23.837  0.00  0.00    -0.319 N 
ATOM     10  H   UNL     1       3.997  -3.544  24.022  0.00  0.00    +0.169 HD
ATOM     11  C   UNL     1       3.878  -5.221  25.041  0.00  0.00    +0.258 A 
ATOM     12  O   UNL     1       3.407  -6.339  25.178  0.00  0.00    -0.267 OA
ATOM     13  C   UNL     1       4.347  -4.416  26.169  0.00  0.00    +0.063 A 
ATOM     14  C   UNL     1       3.500  -4.402  27.292  0.00  0.00    +0.015 A 
ATOM     15  C   UNL     1       3.629  -3.400  28.241  0.00  0.00    +0.001 A 
ATOM     16  C   UNL     1       4.577  -2.408  28.044  0.00  0.00    +0.002 A 
ATOM     17  C   UNL     1       5.473  -2.498  26.971  0.00  0.00    +0.027 A 
ATOM     18  C   UNL     1       5.449  -3.552  26.038  0.00  0.00    +0.064 A 
ATOM     19  O   UNL     1       8.140  -3.426  26.759  0.00  0.00    -0.271 OA
ENDROOT
BRANCH   1  20
ATOM     20  C   UNL     1       8.842  -2.601  24.634  0.00  0.00    +0.184 C 
BRANCH  20  25
ATOM     21  C   UNL     1       9.487   1.321  21.767  0.00  0.00    +0.105 C 
ATOM     22  N   UNL     1      10.116   0.040  22.094  0.00  0.00    -0.303 NA
ATOM     23  C   UNL     1       9.232  -1.101  21.783  0.00  0.00    +0.099 C 
ATOM     24  C   UNL     1       8.025  -1.286  22.745  0.00  0.00    +0.100 C 
ATOM     25  N   UNL     1       8.335  -1.272  24.195  0.00  0.00    -0.291 NA
ATOM     26  C   UNL     1       9.276  -0.163  24.470  0.00  0.00    +0.100 C 
ATOM     27  C   UNL     1      10.483  -0.028  23.518  0.00  0.00    +0.099 C 
ENDBRANCH  20  25
ENDBRANCH   1  20
TORSDOF 2
ENDMDL
MODEL 3
REMARK VINA RESULT:      -6.8      3.092      7.549
REMARK  Name = 
REMARK  3 active torsions:
REMARK  status: ('A' for Active; 'I' for Inactive)
REMARK    1  A    between atoms: C_1  and  N_2
REMARK    2  A    between atoms: N_5  and  C_6
REMARK    3  A    between atoms: C_6  and  C_7
REMARK                            x       y       z     vdW  Elec       q    Type
REMARK                         _______ _______ _______ _____ _____    ______ ____
ROOT
ATOM      1  C   UNL     1       8.397  -1.527  24.727  0.00  0.00    +0.248 C 
ATOM      2  N   UNL     1       7.774  -0.258  24.696  0.00  0.00    -0.262 N 
ATOM      3  C   UNL     1       6.747   0.035  25.685  0.00  0.00    +0.164 A 
ATOM      4  N   UNL     1       6.490  -0.898  26.636  0.00  0.00    -0.236 NA
ATOM      5  C   UNL     1       5.589  -0.614  27.616  0.00  0.00    +0.113 A 
ATOM      6  C   UNL     1       4.879   0.567  27.713  0.00  0.00    +0.022 A 
ATOM      7  C   UNL     1       5.109   1.522  26.742  0.00  0.00    +0.031 A 
ATOM      8  C   UNL     1       6.036   1.252  25.734  0.00  0.00    +0.085 A 
ATOM      9  N   UNL     1       6.326   2.321  24.867  0.00  0.00    -0.319 N 
ATOM     10  H   UNL     1       6.327   1.964  23.912  0.00  0.00    +0.169 HD
ATOM     11  C   UNL     1       7.593   2.796  25.165  0.00  0.00    +0.258 A 
ATOM     12  O   UNL     1       7.847   3.666  25.982  0.00  0.00    -0.267 OA
ATOM     13  C   UNL     1       8.622   2.151  24.351  0.00  0.00    +0.063 A 
ATOM     14  C   UNL     1       9.576   3.017  23.787  0.00  0.00    +0.015 A 
ATOM     15  C   UNL     1      10.342   2.594  22.712  0.00  0.00    +0.001 A 
ATOM     16  C   UNL     1      10.128   1.327  22.193  0.00  0.00    +0.002 A 
ATOM     17  C   UNL     1       9.243   0.449  22.832  0.00  0.00    +0.027 A 
ATOM     18  C   UNL     1       8.518   0.795  23.987  0.00  0.00    +0.064 A 
ATOM     19  O   UNL     1       9.625  -1.672  24.669  0.00  0.00    -0.271 OA
ENDROOT
BRANCH   1  20
ATOM     20  C   UNL     1       7.527  -2.807  24.643  0.00  0.00    +0.184 C 
BRANCH  20  25
ATOM     21  C   UNL     1       6.154  -5.666  20.907  0.00  0.00    +0.105 C 
ATOM     22  N   UNL     1       5.582  -4.844  21.976  0.00  0.00    -0.303 NA
ATOM     23  C   UNL     1       5.986  -3.430  21.856  0.00  0.00    +0.099 C 
ATOM     24  C   UNL     1       7.466  -3.129  22.223  0.00  0.00    +0.100 C 
ATOM     25  N   UNL     1       7.946  -3.680  23.513  0.00  0.00    -0.291 NA
ATOM     26  C   UNL     1       7.470  -5.076  23.640  0.00  0.00    +0.100 C 
ATOM     27  C   UNL     1       5.987  -5.335  23.303  0.00  0.00    +0.099 C 
ENDBRANCH  20  25
ENDBRANCH   1  20
TORSDOF 2
ENDMDL
MODEL 4
REMARK VINA RESULT:      -6.5      3.040      7.288
REMARK  Name = 
REMARK  3 active torsions:
REMARK  status: ('A' for Active; 'I' for Inactive)
REMARK    1  A    between atoms: C_1  and  N_2
REMARK    2  A    between atoms: N_5  and  C_6
REMARK    3  A    between atoms: C_6  and  C_7
REMARK                            x       y       z     vdW  Elec       q    Type
REMARK                         _______ _______ _______ _____ _____    ______ ____
ROOT
ATOM      1  C   UNL     1       6.142  -0.706  25.227  0.00  0.00    +0.248 C 
ATOM      2  N   UNL     1       7.403  -0.068  25.168  0.00  0.00    -0.262 N 
ATOM      3  C   UNL     1       8.383  -0.556  24.210  0.00  0.00    +0.164 A 
ATOM      4  N   UNL     1       8.013  -1.553  23.367  0.00  0.00    -0.236 NA
ATOM      5  C   UNL     1       8.887  -1.972  22.412  0.00  0.00    +0.113 A 
ATOM      6  C   UNL     1      10.162  -1.470  22.238  0.00  0.00    +0.022 A 
ATOM      7  C   UNL     1      10.567  -0.469  23.099  0.00  0.00    +0.031 A 
ATOM      8  C   UNL     1       9.681  -0.020  24.080  0.00  0.00    +0.085 A 
ATOM      9  N   UNL     1      10.106   1.095  24.824  0.00  0.00    -0.319 N 
ATOM     10  H   UNL     1       9.907   0.916  25.808  0.00  0.00    +0.169 HD
ATOM     11  C   UNL     1       9.373   2.198  24.417  0.00  0.00    +0.258 A 
ATOM     12  O   UNL     1       9.678   2.954  23.508  0.00  0.00    -0.267 OA
ATOM     13  C   UNL     1       8.176   2.389  25.236  0.00  0.00    +0.063 A 
ATOM     14  C   UNL     1       7.943   3.709  25.664  0.00  0.00    +0.015 A 
ATOM     15  C   UNL     1       7.094   3.947  26.733  0.00  0.00    +0.001 A 
ATOM     16  C   UNL     1       6.514   2.869  27.383  0.00  0.00    +0.002 A 
ATOM     17  C   UNL     1       6.683   1.574  26.878  0.00  0.00    +0.027 A 
ATOM     18  C   UNL     1       7.452   1.290  25.733  0.00  0.00    +0.064 A 
ATOM     19  O   UNL     1       5.074  -0.080  25.235  0.00  0.00    -0.271 OA
ENDROOT
BRANCH   1  20
ATOM     20  C   UNL     1       6.071  -2.233  25.479  0.00  0.00    +0.184 C 
BRANCH  20  25
ATOM     21  C   UNL     1       3.926  -6.245  23.657  0.00  0.00    +0.105 C 
ATOM     22  N   UNL     1       5.190  -5.806  24.252  0.00  0.00    -0.303 NA
ATOM     23  C   UNL     1       5.002  -5.294  25.623  0.00  0.00    +0.099 C 
ATOM     24  C   UNL     1       4.309  -3.906  25.724  0.00  0.00    +0.100 C 
ATOM     25  N   UNL     1       4.859  -2.835  24.858  0.00  0.00    -0.291 NA
ATOM     26  C   UNL     1       5.104  -3.392  23.509  0.00  0.00    +0.100 C 
ATOM     27  C   UNL     1       5.825  -4.754  23.442  0.00  0.00    +0.099 C 
ENDBRANCH  20  25
ENDBRANCH   1  20
TORSDOF 2
ENDMDL
MODEL 5
REMARK VINA RESULT:      -6.4      3.718      6.168
REMARK  Name = 
REMARK  3 active torsions:
REMARK  status: ('A' for Active; 'I' for Inactive)
REMARK    1  A    between atoms: C_1  and  N_2
REMARK    2  A    between atoms: N_5  and  C_6
REMARK    3  A    between atoms: C_6  and  C_7
REMARK                            x       y       z     vdW  Elec       q    Type
REMARK                         _______ _______ _______ _____ _____    ______ ____
ROOT
ATOM      1  C   UNL     1       7.602   0.301  26.274  0.00  0.00    +0.248 C 
ATOM      2  N   UNL     1       7.943  -0.345  25.064  0.00  0.00    -0.262 N 
ATOM      3  C   UNL     1       8.589   0.434  24.018  0.00  0.00    +0.164 A 
ATOM      4  N   UNL     1       8.900   1.728  24.284  0.00  0.00    -0.236 NA
ATOM      5  C   UNL     1       9.573   2.453  23.350  0.00  0.00    +0.113 A 
ATOM      6  C   UNL     1       9.957   1.977  22.112  0.00  0.00    +0.022 A 
ATOM      7  C   UNL     1       9.631   0.669  21.812  0.00  0.00    +0.031 A 
ATOM      8  C   UNL     1       8.948  -0.094  22.761  0.00  0.00    +0.085 A 
ATOM      9  N   UNL     1       8.779  -1.454  22.447  0.00  0.00    -0.319 N 
ATOM     10  H   UNL     1       7.817  -1.713  22.663  0.00  0.00    +0.169 HD
ATOM     11  C   UNL     1       9.631  -2.198  23.246  0.00  0.00    +0.258 A 
ATOM     12  O   UNL     1      10.782  -2.495  22.969  0.00  0.00    -0.267 OA
ATOM     13  C   UNL     1       8.977  -2.633  24.480  0.00  0.00    +0.063 A 
ATOM     14  C   UNL     1       9.179  -3.981  24.827  0.00  0.00    +0.015 A 
ATOM     15  C   UNL     1       8.323  -4.598  25.726  0.00  0.00    +0.001 A 
ATOM     16  C   UNL     1       7.259  -3.876  26.244  0.00  0.00    +0.002 A 
ATOM     17  C   UNL     1       7.137  -2.509  25.961  0.00  0.00    +0.027 A 
ATOM     18  C   UNL     1       8.040  -1.813  25.136  0.00  0.00    +0.064 A 
ATOM     19  O   UNL     1       7.868  -0.174  27.386  0.00  0.00    -0.271 OA
ENDROOT
BRANCH   1  20
ATOM     20  C   UNL     1       6.698   1.559  26.238  0.00  0.00    +0.184 C 
BRANCH  20  25
ATOM     21  C   UNL     1       2.365   3.294  24.744  0.00  0.00    +0.105 C 
ATOM     22  N   UNL     1       3.613   3.742  25.365  0.00  0.00    -0.303 NA
ATOM     23  C   UNL     1       4.777   3.505  24.490  0.00  0.00    +0.099 C 
ATOM     24  C   UNL     1       5.213   2.020  24.354  0.00  0.00    +0.100 C 
ATOM     25  N   UNL     1       5.375   1.266  25.621  0.00  0.00    -0.291 NA
ATOM     26  C   UNL     1       4.231   1.575  26.508  0.00  0.00    +0.100 C 
ATOM     27  C   UNL     1       3.846   3.062  26.649  0.00  0.00    +0.099 C 
ENDBRANCH  20  25
ENDBRANCH   1  20
TORSDOF 2
ENDMDL
MODEL 6
REMARK VINA RESULT:      -6.4      2.224      2.602
REMARK  Name = 
REMARK  3 active torsions:
REMARK  status: ('A' for Active; 'I' for Inactive)
REMARK    1  A    between atoms: C_1  and  N_2
REMARK    2  A    between atoms: N_5  and  C_6
REMARK    3  A    between atoms: C_6  and  C_7
REMARK                            x       y       z     vdW  Elec       q    Type
REMARK                         _______ _______ _______ _____ _____    ______ ____
ROOT
ATOM      1  C   UNL     1       5.373  -2.680  25.234  0.00  0.00    +0.248 C 
ATOM      2  N   UNL     1       4.777  -3.740  24.513  0.00  0.00    -0.262 N 
ATOM      3  C   UNL     1       5.606  -4.511  23.598  0.00  0.00    +0.164 A 
ATOM      4  N   UNL     1       6.931  -4.221  23.537  0.00  0.00    -0.236 NA
ATOM      5  C   UNL     1       7.739  -4.979  22.747  0.00  0.00    +0.113 A 
ATOM      6  C   UNL     1       7.310  -6.032  21.964  0.00  0.00    +0.022 A 
ATOM      7  C   UNL     1       5.961  -6.330  21.993  0.00  0.00    +0.031 A 
ATOM      8  C   UNL     1       5.118  -5.568  22.805  0.00  0.00    +0.085 A 
ATOM      9  N   UNL     1       3.788  -6.018  22.897  0.00  0.00    -0.319 N 
ATOM     10  H   UNL     1       3.172  -5.210  22.806  0.00  0.00    +0.169 HD
ATOM     11  C   UNL     1       3.602  -6.581  24.149  0.00  0.00    +0.258 A 
ATOM     12  O   UNL     1       3.795  -7.752  24.434  0.00  0.00    -0.267 OA
ATOM     13  C   UNL     1       3.102  -5.603  25.116  0.00  0.00    +0.063 A 
ATOM     14  C   UNL     1       2.035  -6.042  25.920  0.00  0.00    +0.015 A 
ATOM     15  C   UNL     1       1.239  -5.116  26.577  0.00  0.00    +0.001 A 
ATOM     16  C   UNL     1       1.497  -3.766  26.400  0.00  0.00    +0.002 A 
ATOM     17  C   UNL     1       2.624  -3.357  25.676  0.00  0.00    +0.027 A 
ATOM     18  C   UNL     1       3.521  -4.261  25.076  0.00  0.00    +0.064 A 
ATOM     19  O   UNL     1       5.218  -2.528  26.453  0.00  0.00    -0.271 OA
ENDROOT
BRANCH   1  20
ATOM     20  C   UNL     1       6.101  -1.548  24.465  0.00  0.00    +0.184 C 
BRANCH  20  25
ATOM     21  C   UNL     1      10.577   0.408  24.848  0.00  0.00    +0.105 C 
ATOM     22  N   UNL     1       9.717  -0.275  23.880  0.00  0.00    -0.303 NA
ATOM     23  C   UNL     1       8.481   0.485  23.611  0.00  0.00    +0.099 C 
ATOM     24  C   UNL     1       7.435   0.476  24.760  0.00  0.00    +0.100 C 
ATOM     25  N   UNL     1       7.095  -0.852  25.327  0.00  0.00    -0.291 NA
ATOM     26  C   UNL     1       8.345  -1.621  25.521  0.00  0.00    +0.100 C 
ATOM     27  C   UNL     1       9.347  -1.620  24.348  0.00  0.00    +0.099 C 
ENDBRANCH  20  25
ENDBRANCH   1  20
TORSDOF 2
ENDMDL
MODEL 7
REMARK VINA RESULT:      -6.3      2.056      4.347
REMARK  Name = 
REMARK  3 active torsions:
REMARK  status: ('A' for Active; 'I' for Inactive)
REMARK    1  A    between atoms: C_1  and  N_2
REMARK    2  A    between atoms: N_5  and  C_6
REMARK    3  A    between atoms: C_6  and  C_7
REMARK                            x       y       z     vdW  Elec       q    Type
REMARK                         _______ _______ _______ _____ _____    ______ ____
ROOT
ATOM      1  C   UNL     1       6.801  -1.886  23.758  0.00  0.00    +0.248 C 
ATOM      2  N   UNL     1       6.508  -3.050  24.506  0.00  0.00    -0.262 N 
ATOM      3  C   UNL     1       5.889  -2.897  25.814  0.00  0.00    +0.164 A 
ATOM      4  N   UNL     1       5.554  -1.646  26.221  0.00  0.00    -0.236 NA
ATOM      5  C   UNL     1       4.904  -1.487  27.406  0.00  0.00    +0.113 A 
ATOM      6  C   UNL     1       4.568  -2.517  28.262  0.00  0.00    +0.022 A 
ATOM      7  C   UNL     1       4.919  -3.797  27.878  0.00  0.00    +0.031 A 
ATOM      8  C   UNL     1       5.579  -3.980  26.661  0.00  0.00    +0.085 A 
ATOM      9  N   UNL     1       5.774  -5.316  26.267  0.00  0.00    -0.319 N 
ATOM     10  H   UNL     1       6.732  -5.411  25.929  0.00  0.00    +0.169 HD
ATOM     11  C   UNL     1       4.905  -5.598  25.226  0.00  0.00    +0.258 A 
ATOM     12  O   UNL     1       3.768  -6.023  25.350  0.00  0.00    -0.267 OA
ATOM     13  C   UNL     1       5.522  -5.358  23.922  0.00  0.00    +0.063 A 
ATOM     14  C   UNL     1       5.324  -6.371  22.966  0.00  0.00    +0.015 A 
ATOM     15  C   UNL     1       6.157  -6.448  21.860  0.00  0.00    +0.001 A 
ATOM     16  C   UNL     1       7.193  -5.536  21.736  0.00  0.00    +0.002 A 
ATOM     17  C   UNL     1       7.308  -4.479  22.647  0.00  0.00    +0.027 A 
ATOM     18  C   UNL     1       6.426  -4.297  23.728  0.00  0.00    +0.064 A 
ATOM     19  O   UNL     1       6.503  -1.765  22.562  0.00  0.00    -0.271 OA
ENDROOT
BRANCH   1  20
ATOM     20  C   UNL     1       7.691  -0.782  24.383  0.00  0.00    +0.184 C 
BRANCH  20  25
ATOM     21  C   UNL     1      10.653   2.983  23.350  0.00  0.00    +0.105 C 
ATOM     22  N   UNL     1      10.190   2.183  24.485  0.00  0.00    -0.303 NA
ATOM     23  C   UNL     1      10.547   0.759  24.334  0.00  0.00    +0.099 C 
ATOM     24  C   UNL     1       9.727  -0.021  23.268  0.00  0.00    +0.100 C 
ATOM     25  N   UNL     1       8.252   0.123  23.342  0.00  0.00    -0.291 NA
ATOM     26  C   UNL     1       7.924   1.549  23.563  0.00  0.00    +0.100 C 
ATOM     27  C   UNL     1       8.732   2.285  24.652  0.00  0.00    +0.099 C 
ENDBRANCH  20  25
ENDBRANCH   1  20
TORSDOF 2
ENDMDL
MODEL 8
REMARK VINA RESULT:      -6.2      2.736      7.167
REMARK  Name = 
REMARK  3 active torsions:
REMARK  status: ('A' for Active; 'I' for Inactive)
REMARK    1  A    between atoms: C_1  and  N_2
REMARK    2  A    between atoms: N_5  and  C_6
REMARK    3  A    between atoms: C_6  and  C_7
REMARK                            x       y       z     vdW  Elec       q    Type
REMARK                         _______ _______ _______ _____ _____    ______ ____
ROOT
ATOM      1  C   UNL     1       7.575  -3.123  24.650  0.00  0.00    +0.248 C 
ATOM      2  N   UNL     1       7.088  -1.820  24.402  0.00  0.00    -0.262 N 
ATOM      3  C   UNL     1       6.193  -1.215  25.377  0.00  0.00    +0.164 A 
ATOM      4  N   UNL     1       5.929  -1.904  26.516  0.00  0.00    -0.236 NA
ATOM      5  C   UNL     1       5.158  -1.325  27.477  0.00  0.00    +0.113 A 
ATOM      6  C   UNL     1       4.588  -0.072  27.377  0.00  0.00    +0.022 A 
ATOM      7  C   UNL     1       4.825   0.638  26.216  0.00  0.00    +0.031 A 
ATOM      8  C   UNL     1       5.621   0.064  25.223  0.00  0.00    +0.085 A 
ATOM      9  N   UNL     1       5.940   0.898  24.136  0.00  0.00    -0.319 N 
ATOM     10  H   UNL     1       5.815   0.363  23.277  0.00  0.00    +0.169 HD
ATOM     11  C   UNL     1       7.271   1.266  24.241  0.00  0.00    +0.258 A 
ATOM     12  O   UNL     1       7.690   2.243  24.841  0.00  0.00    -0.267 OA
ATOM     13  C   UNL     1       8.147   0.353  23.508  0.00  0.00    +0.063 A 
ATOM     14  C   UNL     1       9.131   0.969  22.713  0.00  0.00    +0.015 A 
ATOM     15  C   UNL     1       9.746   0.253  21.698  0.00  0.00    +0.001 A 
ATOM     16  C   UNL     1       9.353  -1.056  21.467  0.00  0.00    +0.002 A 
ATOM     17  C   UNL     1       8.444  -1.678  22.334  0.00  0.00    +0.027 A 
ATOM     18  C   UNL     1       7.870  -1.025  23.440  0.00  0.00    +0.064 A 
ATOM     19  O   UNL     1       8.771  -3.425  24.538  0.00  0.00    -0.271 OA
ENDROOT
BRANCH   1  20
ATOM     20  C   UNL     1       6.572  -4.280  24.893  0.00  0.00    +0.184 C 
BRANCH  20  25
ATOM     21  C   UNL     1       2.559  -6.385  23.029  0.00  0.00    +0.105 C 
ATOM     22  N   UNL     1       3.264  -6.216  24.301  0.00  0.00    -0.303 NA
ATOM     23  C   UNL     1       3.375  -4.795  24.682  0.00  0.00    +0.099 C 
ATOM     24  C   UNL     1       4.388  -3.962  23.848  0.00  0.00    +0.100 C 
ATOM     25  N   UNL     1       5.742  -4.546  23.687  0.00  0.00    -0.291 NA
ATOM     26  C   UNL     1       5.604  -5.986  23.373  0.00  0.00    +0.100 C 
ATOM     27  C   UNL     1       4.617  -6.793  24.243  0.00  0.00    +0.099 C 
ENDBRANCH  20  25
ENDBRANCH   1  20
TORSDOF 2
ENDMDL
MODEL 9
REMARK VINA RESULT:      -6.2      3.271      7.573
REMARK  Name = 
REMARK  3 active torsions:
REMARK  status: ('A' for Active; 'I' for Inactive)
REMARK    1  A    between atoms: C_1  and  N_2
REMARK    2  A    between atoms: N_5  and  C_6
REMARK    3  A    between atoms: C_6  and  C_7
REMARK                            x       y       z     vdW  Elec       q    Type
REMARK                         _______ _______ _______ _____ _____    ______ ____
ROOT
ATOM      1  C   UNL     1       8.312  -0.976  25.677  0.00  0.00    +0.248 C 
ATOM      2  N   UNL     1       7.396  -0.158  24.978  0.00  0.00    -0.262 N 
ATOM      3  C   UNL     1       6.355   0.523  25.734  0.00  0.00    +0.164 A 
ATOM      4  N   UNL     1       6.361   0.397  27.086  0.00  0.00    -0.236 NA
ATOM      5  C   UNL     1       5.445   1.087  27.819  0.00  0.00    +0.113 A 
ATOM      6  C   UNL     1       4.470   1.907  27.288  0.00  0.00    +0.022 A 
ATOM      7  C   UNL     1       4.432   2.032  25.912  0.00  0.00    +0.031 A 
ATOM      8  C   UNL     1       5.369   1.339  25.144  0.00  0.00    +0.085 A 
ATOM      9  N   UNL     1       5.364   1.626  23.767  0.00  0.00    -0.319 N 
ATOM     10  H   UNL     1       5.427   0.745  23.258  0.00  0.00    +0.169 HD
ATOM     11  C   UNL     1       6.482   2.389  23.474  0.00  0.00    +0.258 A 
ATOM     12  O   UNL     1       6.537   3.608  23.513  0.00  0.00    -0.267 OA
ATOM     13  C   UNL     1       7.616   1.559  23.069  0.00  0.00    +0.063 A 
ATOM     14  C   UNL     1       8.313   2.004  21.930  0.00  0.00    +0.015 A 
ATOM     15  C   UNL     1       9.131   1.127  21.235  0.00  0.00    +0.001 A 
ATOM     16  C   UNL     1       9.220  -0.188  21.662  0.00  0.00    +0.002 A 
ATOM     17  C   UNL     1       8.596  -0.582  22.853  0.00  0.00    +0.027 A 
ATOM     18  C   UNL     1       7.839   0.297  23.650  0.00  0.00    +0.064 A 
ATOM     19  O   UNL     1       9.537  -0.911  25.503  0.00  0.00    -0.271 OA
ENDROOT
BRANCH   1  20
ATOM     20  C   UNL     1       7.782  -2.133  26.561  0.00  0.00    +0.184 C 
BRANCH  20  25
ATOM     21  C   UNL     1       5.395  -6.391  26.128  0.00  0.00    +0.105 C 
ATOM     22  N   UNL     1       6.476  -5.770  26.896  0.00  0.00    -0.303 NA
ATOM     23  C   UNL     1       6.001  -4.608  27.671  0.00  0.00    +0.099 C 
ATOM     24  C   UNL     1       5.676  -3.339  26.834  0.00  0.00    +0.100 C 
ATOM     25  N   UNL     1       6.716  -2.908  25.869  0.00  0.00    -0.291 NA
ATOM     26  C   UNL     1       7.226  -4.100  25.154  0.00  0.00    +0.100 C 
ATOM     27  C   UNL     1       7.572  -5.330  26.018  0.00  0.00    +0.099 C 
ENDBRANCH  20  25
ENDBRANCH   1  20
TORSDOF 2
ENDMDL
