MODEL 1
REMARK VINA RESULT:      -7.2      0.000      0.000
REMARK  Name = 
REMARK  16 active torsions:
REMARK  status: ('A' for Active; 'I' for Inactive)
REMARK    1  A    between atoms: C_2  and  O_38
REMARK    2  A    between atoms: N_3  and  C_4
REMARK    3  A    between atoms: C_4  and  C_6
REMARK    4  A    between atoms: C_4  and  C_13
REMARK    5  A    between atoms: C_6  and  C_7
REMARK    6  A    between atoms: N_15  and  C_16
REMARK    7  A    between atoms: C_16  and  C_18
REMARK    8  A    between atoms: C_16  and  C_26
REMARK    9  A    between atoms: C_18  and  C_19
REMARK   10  A    between atoms: C_19  and  C_20
REMARK   11  A    between atoms: C_26  and  C_27
REMARK   12  A    between atoms: C_27  and  S_28
REMARK   13  A    between atoms: S_28  and  O_31
REMARK   14  A    between atoms: O_31  and  C_32
REMARK   15  A    between atoms: O_38  and  C_39
REMARK   16  A    between atoms: C_39  and  C_40
REMARK                            x       y       z     vdW  Elec       q    Type
REMARK                         _______ _______ _______ _____ _____    ______ ____
ROOT
ATOM      1  C   UNL     1       6.146  -1.739  25.611  0.00  0.00    +0.234 C 
ATOM      2  N   UNL     1       6.443  -3.032  25.958  0.00  0.00    -0.311 N 
ATOM      3  H   UNL     1       5.660  -3.639  25.742  0.00  0.00    +0.149 HD
ATOM      4  O   UNL     1       4.990  -1.538  25.228  0.00  0.00    -0.274 OA
ENDROOT
BRANCH   2   5
ATOM      5  C   UNL     1       7.671  -3.645  26.449  0.00  0.00    +0.075 C 
BRANCH   5   6
ATOM      6  C   UNL     1       8.687  -3.890  25.316  0.00  0.00    +0.027 C 
BRANCH   6   7
ATOM      7  C   UNL     1       8.498  -5.205  24.547  0.00  0.00    +0.037 C 
BRANCH   7   8
ATOM      8  C   UNL     1       7.655  -5.017  23.309  0.00  0.00    -0.047 A 
ATOM      9  C   UNL     1       7.169  -6.127  22.606  0.00  0.00    +0.003 A 
ATOM     10  C   UNL     1       6.363  -5.955  21.481  0.00  0.00    +0.000 A 
ATOM     11  C   UNL     1       6.049  -4.672  21.039  0.00  0.00    +0.000 A 
ATOM     12  C   UNL     1       6.544  -3.560  21.717  0.00  0.00    +0.000 A 
ATOM     13  C   UNL     1       7.344  -3.731  22.848  0.00  0.00    +0.003 A 
ENDBRANCH   7   8
ENDBRANCH   6   7
ENDBRANCH   5   6
BRANCH   5  14
ATOM     14  C   UNL     1       7.352  -4.961  27.194  0.00  0.00    +0.048 C 
BRANCH  14  15
ATOM     15  C   UNL     1       6.065  -4.956  28.020  0.00  0.00    +0.212 C 
BRANCH  15  16
ATOM     16  S   UNL     1       5.104  -6.426  27.756  0.00  0.00    +0.121 S 
ATOM     17  O   UNL     1       3.701  -6.098  27.890  0.00  0.00    -0.137 OA
ATOM     18  O   UNL     1       5.697  -7.493  28.535  0.00  0.00    -0.137 OA
BRANCH  16  19
ATOM     19  O   UNL     1       5.448  -6.649  26.176  0.00  0.00    -0.346 OA
BRANCH  19  20
ATOM     20  C   UNL     1       4.491  -6.434  25.212  0.00  0.00    +0.156 A 
ATOM     21  C   UNL     1       4.396  -5.128  24.725  0.00  0.00    +0.048 A 
ATOM     22  C   UNL     1       3.464  -4.817  23.731  0.00  0.00    +0.004 A 
ATOM     23  C   UNL     1       2.624  -5.807  23.226  0.00  0.00    +0.000 A 
ATOM     24  C   UNL     1       2.708  -7.106  23.713  0.00  0.00    +0.004 A 
ATOM     25  C   UNL     1       3.640  -7.418  24.705  0.00  0.00    +0.048 A 
ENDBRANCH  19  20
ENDBRANCH  16  19
ENDBRANCH  15  16
ENDBRANCH  14  15
ENDBRANCH   5  14
ENDBRANCH   2   5
BRANCH   1  26
ATOM     26  C   UNL     1       7.213  -0.612  25.702  0.00  0.00    +0.166 C 
BRANCH  26  29
ATOM     27  O   UNL     1       7.255   1.242  28.824  0.00  0.00    -0.226 OA
ATOM     28  C   UNL     1       7.066   0.985  27.644  0.00  0.00    +0.401 C 
ATOM     29  N   UNL     1       7.388  -0.229  27.109  0.00  0.00    -0.269 N 
ATOM     30  H   UNL     1       7.781  -0.894  27.759  0.00  0.00    +0.153 HD
BRANCH  28  31
ATOM     31  O   UNL     1       6.539   1.816  26.729  0.00  0.00    -0.446 OA
BRANCH  31  32
ATOM     32  C   UNL     1       7.236   3.021  26.411  0.00  0.00    +0.269 C 
BRANCH  32  33
ATOM     33  C   UNL     1       7.073   3.268  24.934  0.00  0.00    -0.010 A 
ATOM     34  C   UNL     1       7.784   4.295  24.303  0.00  0.00    +0.007 A 
ATOM     35  C   UNL     1       7.665   4.493  22.926  0.00  0.00    +0.000 A 
ATOM     36  C   UNL     1       6.833   3.670  22.169  0.00  0.00    +0.000 A 
ATOM     37  C   UNL     1       6.112   2.651  22.787  0.00  0.00    +0.000 A 
ATOM     38  C   UNL     1       6.229   2.453  24.164  0.00  0.00    +0.007 A 
ENDBRANCH  32  33
ENDBRANCH  31  32
ENDBRANCH  28  31
ENDBRANCH  26  29
BRANCH  26  39
ATOM     39  C   UNL     1       8.566  -0.950  25.023  0.00  0.00    +0.067 C 
BRANCH  39  40
ATOM     40  C   UNL     1       9.022   0.056  23.995  0.00  0.00    -0.045 A 
ATOM     41  C   UNL     1       9.874   1.104  24.378  0.00  0.00    +0.004 A 
ATOM     42  C   UNL     1      10.411   1.964  23.425  0.00  0.00    +0.000 A 
ATOM     43  C   UNL     1      10.092   1.792  22.079  0.00  0.00    +0.000 A 
ATOM     44  C   UNL     1       9.206   0.787  21.695  0.00  0.00    +0.000 A 
ATOM     45  C   UNL     1       8.661  -0.070  22.652  0.00  0.00    +0.004 A 
ENDBRANCH  39  40
ENDBRANCH  26  39
ENDBRANCH   1  26
TORSDOF 16
ENDMDL
MODEL 2
REMARK VINA RESULT:      -7.2      2.778      7.354
REMARK  Name = 
REMARK  16 active torsions:
REMARK  status: ('A' for Active; 'I' for Inactive)
REMARK    1  A    between atoms: C_2  and  O_38
REMARK    2  A    between atoms: N_3  and  C_4
REMARK    3  A    between atoms: C_4  and  C_6
REMARK    4  A    between atoms: C_4  and  C_13
REMARK    5  A    between atoms: C_6  and  C_7
REMARK    6  A    between atoms: N_15  and  C_16
REMARK    7  A    between atoms: C_16  and  C_18
REMARK    8  A    between atoms: C_16  and  C_26
REMARK    9  A    between atoms: C_18  and  C_19
REMARK   10  A    between atoms: C_19  and  C_20
REMARK   11  A    between atoms: C_26  and  C_27
REMARK   12  A    between atoms: C_27  and  S_28
REMARK   13  A    between atoms: S_28  and  O_31
REMARK   14  A    between atoms: O_31  and  C_32
REMARK   15  A    between atoms: O_38  and  C_39
REMARK   16  A    between atoms: C_39  and  C_40
REMARK                            x       y       z     vdW  Elec       q    Type
REMARK                         _______ _______ _______ _____ _____    ______ ____
ROOT
ATOM      1  C   UNL     1       8.680  -4.752  24.794  0.00  0.00    +0.234 C 
ATOM      2  N   UNL     1       8.342  -4.285  23.550  0.00  0.00    -0.311 N 
ATOM      3  H   UNL     1       8.876  -4.769  22.838  0.00  0.00    +0.149 HD
ATOM      4  O   UNL     1       9.616  -5.556  24.828  0.00  0.00    -0.274 OA
ENDROOT
BRANCH   2   5
ATOM      5  C   UNL     1       7.317  -3.343  23.115  0.00  0.00    +0.075 C 
BRANCH   5   6
ATOM      6  C   UNL     1       6.153  -4.049  22.392  0.00  0.00    +0.027 C 
BRANCH   6   7
ATOM      7  C   UNL     1       4.768  -3.811  23.006  0.00  0.00    +0.037 C 
BRANCH   7   8
ATOM      8  C   UNL     1       4.191  -5.074  23.601  0.00  0.00    -0.047 A 
ATOM      9  C   UNL     1       2.885  -5.473  23.288  0.00  0.00    +0.003 A 
ATOM     10  C   UNL     1       2.363  -6.656  23.810  0.00  0.00    +0.000 A 
ATOM     11  C   UNL     1       3.135  -7.442  24.663  0.00  0.00    +0.000 A 
ATOM     12  C   UNL     1       4.427  -7.044  24.998  0.00  0.00    +0.000 A 
ATOM     13  C   UNL     1       4.955  -5.864  24.470  0.00  0.00    +0.003 A 
ENDBRANCH   7   8
ENDBRANCH   6   7
ENDBRANCH   5   6
BRANCH   5  14
ATOM     14  C   UNL     1       7.941  -2.250  22.216  0.00  0.00    +0.048 C 
BRANCH  14  15
ATOM     15  C   UNL     1       8.338  -0.957  22.928  0.00  0.00    +0.212 C 
BRANCH  15  16
ATOM     16  S   UNL     1      10.099  -0.730  22.954  0.00  0.00    +0.121 S 
ATOM     17  O   UNL     1      10.718  -1.781  22.174  0.00  0.00    -0.137 OA
ATOM     18  O   UNL     1      10.498  -0.488  24.325  0.00  0.00    -0.137 OA
BRANCH  16  19
ATOM     19  O   UNL     1      10.167   0.666  22.112  0.00  0.00    -0.346 OA
BRANCH  19  20
ATOM     20  C   UNL     1       9.399   1.746  22.478  0.00  0.00    +0.156 A 
ATOM     21  C   UNL     1       9.823   2.439  23.615  0.00  0.00    +0.048 A 
ATOM     22  C   UNL     1       9.116   3.561  24.055  0.00  0.00    +0.004 A 
ATOM     23  C   UNL     1       7.983   3.989  23.364  0.00  0.00    +0.000 A 
ATOM     24  C   UNL     1       7.552   3.297  22.239  0.00  0.00    +0.004 A 
ATOM     25  C   UNL     1       8.259   2.177  21.797  0.00  0.00    +0.048 A 
ENDBRANCH  19  20
ENDBRANCH  16  19
ENDBRANCH  15  16
ENDBRANCH  14  15
ENDBRANCH   5  14
ENDBRANCH   2   5
BRANCH   1  26
ATOM     26  C   UNL     1       7.921  -4.287  26.067  0.00  0.00    +0.166 C 
BRANCH  26  29
ATOM     27  O   UNL     1       6.888  -6.611  28.658  0.00  0.00    -0.226 OA
ATOM     28  C   UNL     1       6.840  -5.687  27.860  0.00  0.00    +0.401 C 
ATOM     29  N   UNL     1       7.889  -5.388  27.037  0.00  0.00    -0.269 N 
ATOM     30  H   UNL     1       8.693  -5.990  27.131  0.00  0.00    +0.153 HD
BRANCH  28  31
ATOM     31  O   UNL     1       5.800  -4.856  27.675  0.00  0.00    -0.446 OA
BRANCH  31  32
ATOM     32  C   UNL     1       4.647  -5.001  28.504  0.00  0.00    +0.269 C 
BRANCH  32  33
ATOM     33  C   UNL     1       3.440  -4.650  27.674  0.00  0.00    -0.010 A 
ATOM     34  C   UNL     1       2.306  -5.470  27.687  0.00  0.00    +0.007 A 
ATOM     35  C   UNL     1       1.172  -5.119  26.952  0.00  0.00    +0.000 A 
ATOM     36  C   UNL     1       1.162  -3.948  26.196  0.00  0.00    +0.000 A 
ATOM     37  C   UNL     1       2.288  -3.129  26.167  0.00  0.00    +0.000 A 
ATOM     38  C   UNL     1       3.423  -3.479  26.900  0.00  0.00    +0.007 A 
ENDBRANCH  32  33
ENDBRANCH  31  32
ENDBRANCH  28  31
ENDBRANCH  26  29
BRANCH  26  39
ATOM     39  C   UNL     1       8.463  -2.978  26.698  0.00  0.00    +0.067 C 
BRANCH  39  40
ATOM     40  C   UNL     1       7.627  -1.753  26.423  0.00  0.00    -0.045 A 
ATOM     41  C   UNL     1       8.172  -0.477  26.636  0.00  0.00    +0.004 A 
ATOM     42  C   UNL     1       7.467   0.664  26.267  0.00  0.00    +0.000 A 
ATOM     43  C   UNL     1       6.204   0.543  25.691  0.00  0.00    +0.000 A 
ATOM     44  C   UNL     1       5.634  -0.718  25.522  0.00  0.00    +0.000 A 
ATOM     45  C   UNL     1       6.336  -1.862  25.901  0.00  0.00    +0.004 A 
ENDBRANCH  39  40
ENDBRANCH  26  39
ENDBRANCH   1  26
TORSDOF 16
ENDMDL
MODEL 3
REMARK VINA RESULT:      -7.1      2.129      6.567
REMARK  Name = 
REMARK  16 active torsions:
REMARK  status: ('A' for Active; 'I' for Inactive)
REMARK    1  A    between atoms: C_2  and  O_38
REMARK    2  A    between atoms: N_3  and  C_4
REMARK    3  A    between atoms: C_4  and  C_6
REMARK    4  A    between atoms: C_4  and  C_13
REMARK    5  A    between atoms: C_6  and  C_7
REMARK    6  A    between atoms: N_15  and  C_16
REMARK    7  A    between atoms: C_16  and  C_18
REMARK    8  A    between atoms: C_16  and  C_26
REMARK    9  A    between atoms: C_18  and  C_19
REMARK   10  A    between atoms: C_19  and  C_20
REMARK   11  A    between atoms: C_26  and  C_27
REMARK   12  A    between atoms: C_27  and  S_28
REMARK   13  A    between atoms: S_28  and  O_31
REMARK   14  A    between atoms: O_31  and  C_32
REMARK   15  A    between atoms: O_38  and  C_39
REMARK   16  A    between atoms: C_39  and  C_40
REMARK                            x       y       z     vdW  Elec       q    Type
REMARK                         _______ _______ _______ _____ _____    ______ ____
ROOT
ATOM      1  C   UNL     1       6.467  -5.369  27.642  0.00  0.00    +0.234 C 
ATOM      2  N   UNL     1       5.617  -4.462  28.221  0.00  0.00    -0.311 N 
ATOM      3  H   UNL     1       5.538  -4.643  29.215  0.00  0.00    +0.149 HD
ATOM      4  O   UNL     1       6.869  -6.274  28.381  0.00  0.00    -0.274 OA
ENDROOT
BRANCH   2   5
ATOM      5  C   UNL     1       4.946  -3.285  27.683  0.00  0.00    +0.075 C 
BRANCH   5   6
ATOM      6  C   UNL     1       3.848  -3.659  26.668  0.00  0.00    +0.027 C 
BRANCH   6   7
ATOM      7  C   UNL     1       3.004  -4.883  27.047  0.00  0.00    +0.037 C 
BRANCH   7   8
ATOM      8  C   UNL     1       2.689  -5.743  25.847  0.00  0.00    -0.047 A 
ATOM      9  C   UNL     1       2.315  -5.156  24.631  0.00  0.00    +0.003 A 
ATOM     10  C   UNL     1       2.055  -5.948  23.513  0.00  0.00    +0.000 A 
ATOM     11  C   UNL     1       2.150  -7.334  23.604  0.00  0.00    +0.000 A 
ATOM     12  C   UNL     1       2.499  -7.931  24.814  0.00  0.00    +0.000 A 
ATOM     13  C   UNL     1       2.768  -7.140  25.932  0.00  0.00    +0.003 A 
ENDBRANCH   7   8
ENDBRANCH   6   7
ENDBRANCH   5   6
BRANCH   5  14
ATOM     14  C   UNL     1       5.977  -2.324  27.048  0.00  0.00    +0.048 C 
BRANCH  14  15
ATOM     15  C   UNL     1       5.674  -0.834  27.204  0.00  0.00    +0.212 C 
BRANCH  15  16
ATOM     16  S   UNL     1       5.420  -0.042  25.635  0.00  0.00    +0.121 S 
ATOM     17  O   UNL     1       4.446   1.016  25.797  0.00  0.00    -0.137 OA
ATOM     18  O   UNL     1       5.237  -1.076  24.638  0.00  0.00    -0.137 OA
BRANCH  16  19
ATOM     19  O   UNL     1       6.901   0.623  25.467  0.00  0.00    -0.346 OA
BRANCH  19  20
ATOM     20  C   UNL     1       7.165   1.502  24.444  0.00  0.00    +0.156 A 
ATOM     21  C   UNL     1       7.989   2.584  24.764  0.00  0.00    +0.048 A 
ATOM     22  C   UNL     1       8.326   3.521  23.784  0.00  0.00    +0.004 A 
ATOM     23  C   UNL     1       7.839   3.382  22.485  0.00  0.00    +0.000 A 
ATOM     24  C   UNL     1       7.011   2.312  22.164  0.00  0.00    +0.004 A 
ATOM     25  C   UNL     1       6.675   1.375  23.142  0.00  0.00    +0.048 A 
ENDBRANCH  19  20
ENDBRANCH  16  19
ENDBRANCH  15  16
ENDBRANCH  14  15
ENDBRANCH   5  14
ENDBRANCH   2   5
BRANCH   1  26
ATOM     26  C   UNL     1       6.885  -5.249  26.151  0.00  0.00    +0.166 C 
BRANCH  26  29
ATOM     27  O   UNL     1      10.400  -5.131  25.248  0.00  0.00    -0.226 OA
ATOM     28  C   UNL     1       9.223  -4.811  25.322  0.00  0.00    +0.401 C 
ATOM     29  N   UNL     1       8.317  -5.551  26.027  0.00  0.00    -0.269 N 
ATOM     30  H   UNL     1       8.693  -6.368  26.485  0.00  0.00    +0.153 HD
BRANCH  28  31
ATOM     31  O   UNL     1       8.659  -3.735  24.748  0.00  0.00    -0.446 OA
BRANCH  31  32
ATOM     32  C   UNL     1       9.001  -2.436  25.233  0.00  0.00    +0.269 C 
BRANCH  32  33
ATOM     33  C   UNL     1       9.342  -1.579  24.042  0.00  0.00    -0.010 A 
ATOM     34  C   UNL     1       8.824  -1.882  22.777  0.00  0.00    +0.007 A 
ATOM     35  C   UNL     1       9.105  -1.060  21.684  0.00  0.00    +0.000 A 
ATOM     36  C   UNL     1       9.906   0.069  21.843  0.00  0.00    +0.000 A 
ATOM     37  C   UNL     1      10.435   0.376  23.095  0.00  0.00    +0.000 A 
ATOM     38  C   UNL     1      10.157  -0.446  24.188  0.00  0.00    +0.007 A 
ENDBRANCH  32  33
ENDBRANCH  31  32
ENDBRANCH  28  31
ENDBRANCH  26  29
BRANCH  26  39
ATOM     39  C   UNL     1       6.031  -6.096  25.172  0.00  0.00    +0.067 C 
BRANCH  39  40
ATOM     40  C   UNL     1       5.935  -5.537  23.774  0.00  0.00    -0.045 A 
ATOM     41  C   UNL     1       5.564  -4.197  23.585  0.00  0.00    +0.004 A 
ATOM     42  C   UNL     1       5.596  -3.626  22.317  0.00  0.00    +0.000 A 
ATOM     43  C   UNL     1       5.989  -4.392  21.221  0.00  0.00    +0.000 A 
ATOM     44  C   UNL     1       6.309  -5.738  21.391  0.00  0.00    +0.000 A 
ATOM     45  C   UNL     1       6.268  -6.314  22.661  0.00  0.00    +0.004 A 
ENDBRANCH  39  40
ENDBRANCH  26  39
ENDBRANCH   1  26
TORSDOF 16
ENDMDL
MODEL 4
REMARK VINA RESULT:      -7.0      2.060      5.182
REMARK  Name = 
REMARK  16 active torsions:
REMARK  status: ('A' for Active; 'I' for Inactive)
REMARK    1  A    between atoms: C_2  and  O_38
REMARK    2  A    between atoms: N_3  and  C_4
REMARK    3  A    between atoms: C_4  and  C_6
REMARK    4  A    between atoms: C_4  and  C_13
REMARK    5  A    between atoms: C_6  and  C_7
REMARK    6  A    between atoms: N_15  and  C_16
REMARK    7  A    between atoms: C_16  and  C_18
REMARK    8  A    between atoms: C_16  and  C_26
REMARK    9  A    between atoms: C_18  and  C_19
REMARK   10  A    between atoms: C_19  and  C_20
REMARK   11  A    between atoms: C_26  and  C_27
REMARK   12  A    between atoms: C_27  and  S_28
REMARK   13  A    between atoms: S_28  and  O_31
REMARK   14  A    between atoms: O_31  and  C_32
REMARK   15  A    between atoms: O_38  and  C_39
REMARK   16  A    between atoms: C_39  and  C_40
REMARK                            x       y       z     vdW  Elec       q    Type
REMARK                         _______ _______ _______ _____ _____    ______ ____
ROOT
ATOM      1  C   UNL     1       7.705  -1.149  26.690  0.00  0.00    +0.234 C 
ATOM      2  N   UNL     1       6.600  -1.567  27.386  0.00  0.00    -0.311 N 
ATOM      3  H   UNL     1       6.701  -1.341  28.369  0.00  0.00    +0.149 HD
ATOM      4  O   UNL     1       8.631  -0.702  27.372  0.00  0.00    -0.274 OA
ENDROOT
BRANCH   2   5
ATOM      5  C   UNL     1       5.337  -2.144  26.942  0.00  0.00    +0.075 C 
BRANCH   5   6
ATOM      6  C   UNL     1       4.158  -1.169  27.136  0.00  0.00    +0.027 C 
BRANCH   6   7
ATOM      7  C   UNL     1       4.410  -0.038  28.140  0.00  0.00    +0.037 C 
BRANCH   7   8
ATOM      8  C   UNL     1       4.384   1.319  27.479  0.00  0.00    -0.047 A 
ATOM      9  C   UNL     1       3.771   1.488  26.230  0.00  0.00    +0.003 A 
ATOM     10  C   UNL     1       3.716   2.747  25.633  0.00  0.00    +0.000 A 
ATOM     11  C   UNL     1       4.289   3.846  26.270  0.00  0.00    +0.000 A 
ATOM     12  C   UNL     1       4.921   3.686  27.502  0.00  0.00    +0.000 A 
ATOM     13  C   UNL     1       4.969   2.427  28.105  0.00  0.00    +0.003 A 
ENDBRANCH   7   8
ENDBRANCH   6   7
ENDBRANCH   5   6
BRANCH   5  14
ATOM     14  C   UNL     1       5.072  -3.480  27.672  0.00  0.00    +0.048 C 
BRANCH  14  15
ATOM     15  C   UNL     1       4.316  -4.535  26.864  0.00  0.00    +0.212 C 
BRANCH  15  16
ATOM     16  S   UNL     1       5.407  -5.775  26.211  0.00  0.00    +0.121 S 
ATOM     17  O   UNL     1       5.240  -6.994  26.974  0.00  0.00    -0.137 OA
ATOM     18  O   UNL     1       6.714  -5.175  26.043  0.00  0.00    -0.137 OA
BRANCH  16  19
ATOM     19  O   UNL     1       4.701  -5.962  24.752  0.00  0.00    -0.346 OA
BRANCH  19  20
ATOM     20  C   UNL     1       5.180  -5.295  23.649  0.00  0.00    +0.156 A 
ATOM     21  C   UNL     1       5.949  -6.053  22.762  0.00  0.00    +0.048 A 
ATOM     22  C   UNL     1       6.465  -5.466  21.604  0.00  0.00    +0.004 A 
ATOM     23  C   UNL     1       6.218  -4.121  21.332  0.00  0.00    +0.000 A 
ATOM     24  C   UNL     1       5.462  -3.360  22.216  0.00  0.00    +0.004 A 
ATOM     25  C   UNL     1       4.945  -3.947  23.373  0.00  0.00    +0.048 A 
ENDBRANCH  19  20
ENDBRANCH  16  19
ENDBRANCH  15  16
ENDBRANCH  14  15
ENDBRANCH   5  14
ENDBRANCH   2   5
BRANCH   1  26
ATOM     26  C   UNL     1       7.767  -1.241  25.140  0.00  0.00    +0.166 C 
BRANCH  26  29
ATOM     27  O   UNL     1       8.929  -4.405  23.787  0.00  0.00    -0.226 OA
ATOM     28  C   UNL     1       8.923  -3.224  24.100  0.00  0.00    +0.401 C 
ATOM     29  N   UNL     1       7.863  -2.653  24.746  0.00  0.00    -0.269 N 
ATOM     30  H   UNL     1       7.098  -3.279  24.951  0.00  0.00    +0.153 HD
BRANCH  28  31
ATOM     31  O   UNL     1       9.908  -2.340  23.868  0.00  0.00    -0.446 OA
BRANCH  31  32
ATOM     32  C   UNL     1      10.011  -1.747  22.573  0.00  0.00    +0.269 C 
BRANCH  32  33
ATOM     33  C   UNL     1      10.155  -0.260  22.760  0.00  0.00    -0.010 A 
ATOM     34  C   UNL     1      10.686   0.258  23.947  0.00  0.00    +0.007 A 
ATOM     35  C   UNL     1      10.860   1.635  24.101  0.00  0.00    +0.000 A 
ATOM     36  C   UNL     1      10.504   2.506  23.073  0.00  0.00    +0.000 A 
ATOM     37  C   UNL     1       9.965   2.003  21.891  0.00  0.00    +0.000 A 
ATOM     38  C   UNL     1       9.788   0.628  21.736  0.00  0.00    +0.007 A 
ENDBRANCH  32  33
ENDBRANCH  31  32
ENDBRANCH  28  31
ENDBRANCH  26  29
BRANCH  26  39
ATOM     39  C   UNL     1       6.611  -0.515  24.404  0.00  0.00    +0.067 C 
BRANCH  39  40
ATOM     40  C   UNL     1       6.845   0.955  24.160  0.00  0.00    -0.045 A 
ATOM     41  C   UNL     1       6.419   1.536  22.956  0.00  0.00    +0.004 A 
ATOM     42  C   UNL     1       6.507   2.912  22.764  0.00  0.00    +0.000 A 
ATOM     43  C   UNL     1       7.033   3.720  23.771  0.00  0.00    +0.000 A 
ATOM     44  C   UNL     1       7.506   3.146  24.949  0.00  0.00    +0.000 A 
ATOM     45  C   UNL     1       7.427   1.766  25.138  0.00  0.00    +0.004 A 
ENDBRANCH  39  40
ENDBRANCH  26  39
ENDBRANCH   1  26
TORSDOF 16
ENDMDL
MODEL 5
REMARK VINA RESULT:      -7.0      2.874      7.108
REMARK  Name = 
REMARK  16 active torsions:
REMARK  status: ('A' for Active; 'I' for Inactive)
REMARK    1  A    between atoms: C_2  and  O_38
REMARK    2  A    between atoms: N_3  and  C_4
REMARK    3  A    between atoms: C_4  and  C_6
REMARK    4  A    between atoms: C_4  and  C_13
REMARK    5  A    between atoms: C_6  and  C_7
REMARK    6  A    between atoms: N_15  and  C_16
REMARK    7  A    between atoms: C_16  and  C_18
REMARK    8  A    between atoms: C_16  and  C_26
REMARK    9  A    between atoms: C_18  and  C_19
REMARK   10  A    between atoms: C_19  and  C_20
REMARK   11  A    between atoms: C_26  and  C_27
REMARK   12  A    between atoms: C_27  and  S_28
REMARK   13  A    between atoms: S_28  and  O_31
REMARK   14  A    between atoms: O_31  and  C_32
REMARK   15  A    between atoms: O_38  and  C_39
REMARK   16  A    between atoms: C_39  and  C_40
REMARK                            x       y       z     vdW  Elec       q    Type
REMARK                         _______ _______ _______ _____ _____    ______ ____
ROOT
ATOM      1  C   UNL     1       9.517  -3.819  24.783  0.00  0.00    +0.234 C 
ATOM      2  N   UNL     1       9.779  -3.037  23.688  0.00  0.00    -0.311 N 
ATOM      3  H   UNL     1      10.435  -3.506  23.074  0.00  0.00    +0.149 HD
ATOM      4  O   UNL     1      10.187  -4.852  24.878  0.00  0.00    -0.274 OA
ENDROOT
BRANCH   2   5
ATOM      5  C   UNL     1       9.209  -1.771  23.243  0.00  0.00    +0.075 C 
BRANCH   5   6
ATOM      6  C   UNL     1       8.148  -1.971  22.143  0.00  0.00    +0.027 C 
BRANCH   6   7
ATOM      7  C   UNL     1       6.699  -2.038  22.643  0.00  0.00    +0.037 C 
BRANCH   7   8
ATOM      8  C   UNL     1       6.162  -3.448  22.624  0.00  0.00    -0.047 A 
ATOM      9  C   UNL     1       6.924  -4.491  22.081  0.00  0.00    +0.003 A 
ATOM     10  C   UNL     1       6.443  -5.800  22.093  0.00  0.00    +0.000 A 
ATOM     11  C   UNL     1       5.188  -6.076  22.632  0.00  0.00    +0.000 A 
ATOM     12  C   UNL     1       4.411  -5.045  23.154  0.00  0.00    +0.000 A 
ATOM     13  C   UNL     1       4.896  -3.735  23.151  0.00  0.00    +0.003 A 
ENDBRANCH   7   8
ENDBRANCH   6   7
ENDBRANCH   5   6
BRANCH   5  14
ATOM     14  C   UNL     1      10.328  -0.820  22.762  0.00  0.00    +0.048 C 
BRANCH  14  15
ATOM     15  C   UNL     1       9.907   0.632  22.534  0.00  0.00    +0.212 C 
BRANCH  15  16
ATOM     16  S   UNL     1      10.396   1.682  23.881  0.00  0.00    +0.121 S 
ATOM     17  O   UNL     1      10.300   3.062  23.458  0.00  0.00    -0.137 OA
ATOM     18  O   UNL     1      11.627   1.156  24.432  0.00  0.00    -0.137 OA
BRANCH  16  19
ATOM     19  O   UNL     1       9.160   1.351  24.895  0.00  0.00    -0.346 OA
BRANCH  19  20
ATOM     20  C   UNL     1       7.933   1.947  24.724  0.00  0.00    +0.156 A 
ATOM     21  C   UNL     1       7.648   3.015  25.578  0.00  0.00    +0.048 A 
ATOM     22  C   UNL     1       6.431   3.695  25.468  0.00  0.00    +0.004 A 
ATOM     23  C   UNL     1       5.497   3.306  24.510  0.00  0.00    +0.000 A 
ATOM     24  C   UNL     1       5.772   2.237  23.664  0.00  0.00    +0.004 A 
ATOM     25  C   UNL     1       6.987   1.559  23.772  0.00  0.00    +0.048 A 
ENDBRANCH  19  20
ENDBRANCH  16  19
ENDBRANCH  15  16
ENDBRANCH  14  15
ENDBRANCH   5  14
ENDBRANCH   2   5
BRANCH   1  26
ATOM     26  C   UNL     1       8.440  -3.414  25.828  0.00  0.00    +0.166 C 
BRANCH  26  29
ATOM     27  O   UNL     1       7.200  -6.026  28.025  0.00  0.00    -0.226 OA
ATOM     28  C   UNL     1       7.215  -5.175  27.147  0.00  0.00    +0.401 C 
ATOM     29  N   UNL     1       8.342  -4.464  26.850  0.00  0.00    -0.269 N 
ATOM     30  H   UNL     1       9.156  -4.700  27.398  0.00  0.00    +0.153 HD
BRANCH  28  31
ATOM     31  O   UNL     1       6.174  -4.818  26.376  0.00  0.00    -0.446 OA
BRANCH  31  32
ATOM     32  C   UNL     1       4.880  -5.341  26.680  0.00  0.00    +0.269 C 
BRANCH  32  33
ATOM     33  C   UNL     1       4.019  -4.192  27.136  0.00  0.00    -0.010 A 
ATOM     34  C   UNL     1       2.925  -3.776  26.369  0.00  0.00    +0.007 A 
ATOM     35  C   UNL     1       2.102  -2.740  26.816  0.00  0.00    +0.000 A 
ATOM     36  C   UNL     1       2.366  -2.111  28.031  0.00  0.00    +0.000 A 
ATOM     37  C   UNL     1       3.457  -2.509  28.799  0.00  0.00    +0.000 A 
ATOM     38  C   UNL     1       4.282  -3.542  28.353  0.00  0.00    +0.007 A 
ENDBRANCH  32  33
ENDBRANCH  31  32
ENDBRANCH  28  31
ENDBRANCH  26  29
BRANCH  26  39
ATOM     39  C   UNL     1       8.650  -2.013  26.459  0.00  0.00    +0.067 C 
BRANCH  39  40
ATOM     40  C   UNL     1       7.400  -1.174  26.560  0.00  0.00    -0.045 A 
ATOM     41  C   UNL     1       6.308  -1.450  25.723  0.00  0.00    +0.004 A 
ATOM     42  C   UNL     1       5.102  -0.776  25.888  0.00  0.00    +0.000 A 
ATOM     43  C   UNL     1       4.978   0.189  26.886  0.00  0.00    +0.000 A 
ATOM     44  C   UNL     1       6.073   0.506  27.688  0.00  0.00    +0.000 A 
ATOM     45  C   UNL     1       7.285  -0.162  27.517  0.00  0.00    +0.004 A 
ENDBRANCH  39  40
ENDBRANCH  26  39
ENDBRANCH   1  26
TORSDOF 16
ENDMDL
MODEL 6
REMARK VINA RESULT:      -7.0      2.413      7.781
REMARK  Name = 
REMARK  16 active torsions:
REMARK  status: ('A' for Active; 'I' for Inactive)
REMARK    1  A    between atoms: C_2  and  O_38
REMARK    2  A    between atoms: N_3  and  C_4
REMARK    3  A    between atoms: C_4  and  C_6
REMARK    4  A    between atoms: C_4  and  C_13
REMARK    5  A    between atoms: C_6  and  C_7
REMARK    6  A    between atoms: N_15  and  C_16
REMARK    7  A    between atoms: C_16  and  C_18
REMARK    8  A    between atoms: C_16  and  C_26
REMARK    9  A    between atoms: C_18  and  C_19
REMARK   10  A    between atoms: C_19  and  C_20
REMARK   11  A    between atoms: C_26  and  C_27
REMARK   12  A    between atoms: C_27  and  S_28
REMARK   13  A    between atoms: S_28  and  O_31
REMARK   14  A    between atoms: O_31  and  C_32
REMARK   15  A    between atoms: O_38  and  C_39
REMARK   16  A    between atoms: C_39  and  C_40
REMARK                            x       y       z     vdW  Elec       q    Type
REMARK                         _______ _______ _______ _____ _____    ______ ____
ROOT
ATOM      1  C   UNL     1       4.401  -2.309  28.221  0.00  0.00    +0.234 C 
ATOM      2  N   UNL     1       4.935  -1.139  27.746  0.00  0.00    -0.311 N 
ATOM      3  H   UNL     1       4.880  -0.417  28.455  0.00  0.00    +0.149 HD
ATOM      4  O   UNL     1       3.866  -2.242  29.332  0.00  0.00    -0.274 OA
ENDROOT
BRANCH   2   5
ATOM      5  C   UNL     1       5.629  -0.826  26.502  0.00  0.00    +0.075 C 
BRANCH   5   6
ATOM      6  C   UNL     1       7.126  -0.538  26.733  0.00  0.00    +0.027 C 
BRANCH   6   7
ATOM      7  C   UNL     1       8.072  -1.690  26.369  0.00  0.00    +0.037 C 
BRANCH   7   8
ATOM      8  C   UNL     1       8.379  -1.720  24.892  0.00  0.00    -0.047 A 
ATOM      9  C   UNL     1       7.505  -1.124  23.972  0.00  0.00    +0.003 A 
ATOM     10  C   UNL     1       7.805  -1.123  22.610  0.00  0.00    +0.000 A 
ATOM     11  C   UNL     1       8.971  -1.732  22.152  0.00  0.00    +0.000 A 
ATOM     12  C   UNL     1       9.836  -2.347  23.054  0.00  0.00    +0.000 A 
ATOM     13  C   UNL     1       9.542  -2.342  24.419  0.00  0.00    +0.003 A 
ENDBRANCH   7   8
ENDBRANCH   6   7
ENDBRANCH   5   6
BRANCH   5  14
ATOM     14  C   UNL     1       4.944   0.363  25.791  0.00  0.00    +0.048 C 
BRANCH  14  15
ATOM     15  C   UNL     1       5.681   1.700  25.881  0.00  0.00    +0.212 C 
BRANCH  15  16
ATOM     16  S   UNL     1       5.670   2.567  24.332  0.00  0.00    +0.121 S 
ATOM     17  O   UNL     1       4.651   3.594  24.378  0.00  0.00    -0.137 OA
ATOM     18  O   UNL     1       5.686   1.583  23.269  0.00  0.00    -0.137 OA
BRANCH  16  19
ATOM     19  O   UNL     1       7.138   3.271  24.447  0.00  0.00    -0.346 OA
BRANCH  19  20
ATOM     20  C   UNL     1       8.254   2.656  23.931  0.00  0.00    +0.156 A 
ATOM     21  C   UNL     1       9.097   2.041  24.860  0.00  0.00    +0.048 A 
ATOM     22  C   UNL     1      10.248   1.376  24.428  0.00  0.00    +0.004 A 
ATOM     23  C   UNL     1      10.560   1.328  23.070  0.00  0.00    +0.000 A 
ATOM     24  C   UNL     1       9.729   1.947  22.143  0.00  0.00    +0.004 A 
ATOM     25  C   UNL     1       8.579   2.610  22.574  0.00  0.00    +0.048 A 
ENDBRANCH  19  20
ENDBRANCH  16  19
ENDBRANCH  15  16
ENDBRANCH  14  15
ENDBRANCH   5  14
ENDBRANCH   2   5
BRANCH   1  26
ATOM     26  C   UNL     1       4.475  -3.625  27.398  0.00  0.00    +0.166 C 
BRANCH  26  29
ATOM     27  O   UNL     1       7.193  -5.890  28.215  0.00  0.00    -0.226 OA
ATOM     28  C   UNL     1       6.517  -5.087  27.589  0.00  0.00    +0.401 C 
ATOM     29  N   UNL     1       5.355  -4.576  28.091  0.00  0.00    -0.269 N 
ATOM     30  H   UNL     1       5.105  -4.901  29.013  0.00  0.00    +0.153 HD
BRANCH  28  31
ATOM     31  O   UNL     1       6.795  -4.605  26.366  0.00  0.00    -0.446 OA
BRANCH  31  32
ATOM     32  C   UNL     1       7.479  -5.443  25.434  0.00  0.00    +0.269 C 
BRANCH  32  33
ATOM     33  C   UNL     1       7.007  -5.072  24.052  0.00  0.00    -0.010 A 
ATOM     34  C   UNL     1       7.603  -5.641  22.921  0.00  0.00    +0.007 A 
ATOM     35  C   UNL     1       7.134  -5.329  21.644  0.00  0.00    +0.000 A 
ATOM     36  C   UNL     1       6.068  -4.446  21.485  0.00  0.00    +0.000 A 
ATOM     37  C   UNL     1       5.472  -3.866  22.602  0.00  0.00    +0.000 A 
ATOM     38  C   UNL     1       5.941  -4.175  23.879  0.00  0.00    +0.007 A 
ENDBRANCH  32  33
ENDBRANCH  31  32
ENDBRANCH  28  31
ENDBRANCH  26  29
BRANCH  26  39
ATOM     39  C   UNL     1       3.098  -4.253  27.063  0.00  0.00    +0.067 C 
BRANCH  39  40
ATOM     40  C   UNL     1       3.049  -4.999  25.752  0.00  0.00    -0.045 A 
ATOM     41  C   UNL     1       3.655  -6.260  25.646  0.00  0.00    +0.004 A 
ATOM     42  C   UNL     1       3.510  -7.020  24.490  0.00  0.00    +0.000 A 
ATOM     43  C   UNL     1       2.767  -6.522  23.422  0.00  0.00    +0.000 A 
ATOM     44  C   UNL     1       2.204  -5.249  23.498  0.00  0.00    +0.000 A 
ATOM     45  C   UNL     1       2.357  -4.483  24.653  0.00  0.00    +0.004 A 
ENDBRANCH  39  40
ENDBRANCH  26  39
ENDBRANCH   1  26
TORSDOF 16
ENDMDL
MODEL 7
REMARK VINA RESULT:      -6.9      1.821      3.878
REMARK  Name = 
REMARK  16 active torsions:
REMARK  status: ('A' for Active; 'I' for Inactive)
REMARK    1  A    between atoms: C_2  and  O_38
REMARK    2  A    between atoms: N_3  and  C_4
REMARK    3  A    between atoms: C_4  and  C_6
REMARK    4  A    between atoms: C_4  and  C_13
REMARK    5  A    between atoms: C_6  and  C_7
REMARK    6  A    between atoms: N_15  and  C_16
REMARK    7  A    between atoms: C_16  and  C_18
REMARK    8  A    between atoms: C_16  and  C_26
REMARK    9  A    between atoms: C_18  and  C_19
REMARK   10  A    between atoms: C_19  and  C_20
REMARK   11  A    between atoms: C_26  and  C_27
REMARK   12  A    between atoms: C_27  and  S_28
REMARK   13  A    between atoms: S_28  and  O_31
REMARK   14  A    between atoms: O_31  and  C_32
REMARK   15  A    between atoms: O_38  and  C_39
REMARK   16  A    between atoms: C_39  and  C_40
REMARK                            x       y       z     vdW  Elec       q    Type
REMARK                         _______ _______ _______ _____ _____    ______ ____
ROOT
ATOM      1  C   UNL     1       5.770  -0.471  25.868  0.00  0.00    +0.234 C 
ATOM      2  N   UNL     1       6.545  -1.530  25.472  0.00  0.00    -0.311 N 
ATOM      3  H   UNL     1       5.959  -2.279  25.121  0.00  0.00    +0.149 HD
ATOM      4  O   UNL     1       4.550  -0.658  25.837  0.00  0.00    -0.274 OA
ENDROOT
BRANCH   2   5
ATOM      5  C   UNL     1       7.991  -1.690  25.377  0.00  0.00    +0.075 C 
BRANCH   5   6
ATOM      6  C   UNL     1       8.435  -2.102  23.959  0.00  0.00    +0.027 C 
BRANCH   6   7
ATOM      7  C   UNL     1       9.904  -1.809  23.629  0.00  0.00    +0.037 C 
BRANCH   7   8
ATOM      8  C   UNL     1      10.124  -0.356  23.283  0.00  0.00    -0.047 A 
ATOM      9  C   UNL     1       9.657   0.164  22.069  0.00  0.00    +0.003 A 
ATOM     10  C   UNL     1       9.831   1.514  21.763  0.00  0.00    +0.000 A 
ATOM     11  C   UNL     1      10.488   2.352  22.660  0.00  0.00    +0.000 A 
ATOM     12  C   UNL     1      10.976   1.842  23.861  0.00  0.00    +0.000 A 
ATOM     13  C   UNL     1      10.796   0.493  24.173  0.00  0.00    +0.003 A 
ENDBRANCH   7   8
ENDBRANCH   6   7
ENDBRANCH   5   6
BRANCH   5  14
ATOM     14  C   UNL     1       8.487  -2.711  26.426  0.00  0.00    +0.048 C 
BRANCH  14  15
ATOM     15  C   UNL     1       8.356  -4.182  26.030  0.00  0.00    +0.212 C 
BRANCH  15  16
ATOM     16  S   UNL     1       6.958  -4.954  26.806  0.00  0.00    +0.121 S 
ATOM     17  O   UNL     1       5.999  -3.931  27.166  0.00  0.00    -0.137 OA
ATOM     18  O   UNL     1       7.455  -5.889  27.793  0.00  0.00    -0.137 OA
BRANCH  16  19
ATOM     19  O   UNL     1       6.396  -5.774  25.511  0.00  0.00    -0.346 OA
BRANCH  19  20
ATOM     20  C   UNL     1       6.243  -5.149  24.296  0.00  0.00    +0.156 A 
ATOM     21  C   UNL     1       7.147  -5.522  23.298  0.00  0.00    +0.048 A 
ATOM     22  C   UNL     1       7.058  -4.953  22.025  0.00  0.00    +0.004 A 
ATOM     23  C   UNL     1       6.071  -4.009  21.748  0.00  0.00    +0.000 A 
ATOM     24  C   UNL     1       5.176  -3.627  22.740  0.00  0.00    +0.004 A 
ATOM     25  C   UNL     1       5.262  -4.196  24.012  0.00  0.00    +0.048 A 
ENDBRANCH  19  20
ENDBRANCH  16  19
ENDBRANCH  15  16
ENDBRANCH  14  15
ENDBRANCH   5  14
ENDBRANCH   2   5
BRANCH   1  26
ATOM     26  C   UNL     1       6.406   0.872  26.321  0.00  0.00    +0.166 C 
BRANCH  26  29
ATOM     27  O   UNL     1       7.123   1.711  29.781  0.00  0.00    -0.226 OA
ATOM     28  C   UNL     1       6.827   1.851  28.604  0.00  0.00    +0.401 C 
ATOM     29  N   UNL     1       6.736   0.789  27.751  0.00  0.00    -0.269 N 
ATOM     30  H   UNL     1       6.919  -0.112  28.166  0.00  0.00    +0.153 HD
BRANCH  28  31
ATOM     31  O   UNL     1       6.562   3.017  27.989  0.00  0.00    -0.446 OA
BRANCH  31  32
ATOM     32  C   UNL     1       5.272   3.606  28.157  0.00  0.00    +0.269 C 
BRANCH  32  33
ATOM     33  C   UNL     1       4.879   4.230  26.843  0.00  0.00    -0.010 A 
ATOM     34  C   UNL     1       4.102   3.517  25.923  0.00  0.00    +0.007 A 
ATOM     35  C   UNL     1       3.703   4.113  24.725  0.00  0.00    +0.000 A 
ATOM     36  C   UNL     1       4.076   5.424  24.436  0.00  0.00    +0.000 A 
ATOM     37  C   UNL     1       4.858   6.140  25.339  0.00  0.00    +0.000 A 
ATOM     38  C   UNL     1       5.260   5.545  26.535  0.00  0.00    +0.007 A 
ENDBRANCH  32  33
ENDBRANCH  31  32
ENDBRANCH  28  31
ENDBRANCH  26  29
BRANCH  26  39
ATOM     39  C   UNL     1       7.624   1.326  25.475  0.00  0.00    +0.067 C 
BRANCH  39  40
ATOM     40  C   UNL     1       7.315   2.387  24.447  0.00  0.00    -0.045 A 
ATOM     41  C   UNL     1       7.837   3.680  24.604  0.00  0.00    +0.004 A 
ATOM     42  C   UNL     1       7.674   4.635  23.605  0.00  0.00    +0.000 A 
ATOM     43  C   UNL     1       6.978   4.310  22.442  0.00  0.00    +0.000 A 
ATOM     44  C   UNL     1       6.412   3.044  22.300  0.00  0.00    +0.000 A 
ATOM     45  C   UNL     1       6.567   2.089  23.305  0.00  0.00    +0.004 A 
ENDBRANCH  39  40
ENDBRANCH  26  39
ENDBRANCH   1  26
TORSDOF 16
ENDMDL
MODEL 8
REMARK VINA RESULT:      -6.9      1.891      7.500
REMARK  Name = 
REMARK  16 active torsions:
REMARK  status: ('A' for Active; 'I' for Inactive)
REMARK    1  A    between atoms: C_2  and  O_38
REMARK    2  A    between atoms: N_3  and  C_4
REMARK    3  A    between atoms: C_4  and  C_6
REMARK    4  A    between atoms: C_4  and  C_13
REMARK    5  A    between atoms: C_6  and  C_7
REMARK    6  A    between atoms: N_15  and  C_16
REMARK    7  A    between atoms: C_16  and  C_18
REMARK    8  A    between atoms: C_16  and  C_26
REMARK    9  A    between atoms: C_18  and  C_19
REMARK   10  A    between atoms: C_19  and  C_20
REMARK   11  A    between atoms: C_26  and  C_27
REMARK   12  A    between atoms: C_27  and  S_28
REMARK   13  A    between atoms: S_28  and  O_31
REMARK   14  A    between atoms: O_31  and  C_32
REMARK   15  A    between atoms: O_38  and  C_39
REMARK   16  A    between atoms: C_39  and  C_40
REMARK                            x       y       z     vdW  Elec       q    Type
REMARK                         _______ _______ _______ _____ _____    ______ ____
ROOT
ATOM      1  C   UNL     1       9.347  -4.367  25.219  0.00  0.00    +0.234 C 
ATOM      2  N   UNL     1       9.802  -3.137  24.820  0.00  0.00    -0.311 N 
ATOM      3  H   UNL     1      10.798  -3.176  24.637  0.00  0.00    +0.149 HD
ATOM      4  O   UNL     1      10.214  -5.230  25.390  0.00  0.00    -0.274 OA
ENDROOT
BRANCH   2   5
ATOM      5  C   UNL     1       9.100  -1.893  24.528  0.00  0.00    +0.075 C 
BRANCH   5   6
ATOM      6  C   UNL     1       9.449  -1.349  23.129  0.00  0.00    +0.027 C 
BRANCH   6   7
ATOM      7  C   UNL     1      10.270  -0.053  23.123  0.00  0.00    +0.037 C 
BRANCH   7   8
ATOM      8  C   UNL     1       9.409   1.159  22.860  0.00  0.00    -0.047 A 
ATOM      9  C   UNL     1       9.692   2.380  23.487  0.00  0.00    +0.003 A 
ATOM     10  C   UNL     1       8.917   3.508  23.219  0.00  0.00    +0.000 A 
ATOM     11  C   UNL     1       7.842   3.423  22.337  0.00  0.00    +0.000 A 
ATOM     12  C   UNL     1       7.538   2.209  21.726  0.00  0.00    +0.000 A 
ATOM     13  C   UNL     1       8.318   1.080  21.986  0.00  0.00    +0.003 A 
ENDBRANCH   7   8
ENDBRANCH   6   7
ENDBRANCH   5   6
BRANCH   5  14
ATOM     14  C   UNL     1       9.401  -0.839  25.618  0.00  0.00    +0.048 C 
BRANCH  14  15
ATOM     15  C   UNL     1       8.697  -1.056  26.958  0.00  0.00    +0.212 C 
BRANCH  15  16
ATOM     16  S   UNL     1       7.209  -0.094  27.087  0.00  0.00    +0.121 S 
ATOM     17  O   UNL     1       7.237   0.646  28.330  0.00  0.00    -0.137 OA
ATOM     18  O   UNL     1       6.092  -0.953  26.757  0.00  0.00    -0.137 OA
BRANCH  16  19
ATOM     19  O   UNL     1       7.490   0.935  25.851  0.00  0.00    -0.346 OA
BRANCH  19  20
ATOM     20  C   UNL     1       6.536   1.846  25.466  0.00  0.00    +0.156 A 
ATOM     21  C   UNL     1       6.663   3.130  26.002  0.00  0.00    +0.048 A 
ATOM     22  C   UNL     1       5.750   4.129  25.655  0.00  0.00    +0.004 A 
ATOM     23  C   UNL     1       4.706   3.846  24.775  0.00  0.00    +0.000 A 
ATOM     24  C   UNL     1       4.569   2.568  24.246  0.00  0.00    +0.004 A 
ATOM     25  C   UNL     1       5.482   1.570  24.592  0.00  0.00    +0.048 A 
ENDBRANCH  19  20
ENDBRANCH  16  19
ENDBRANCH  15  16
ENDBRANCH  14  15
ENDBRANCH   5  14
ENDBRANCH   2   5
BRANCH   1  26
ATOM     26  C   UNL     1       7.833  -4.638  25.438  0.00  0.00    +0.166 C 
BRANCH  26  29
ATOM     27  O   UNL     1       6.519  -5.186  28.779  0.00  0.00    -0.226 OA
ATOM     28  C   UNL     1       6.751  -5.367  27.592  0.00  0.00    +0.401 C 
ATOM     29  N   UNL     1       7.522  -4.505  26.868  0.00  0.00    -0.269 N 
ATOM     30  H   UNL     1       7.891  -3.720  27.384  0.00  0.00    +0.153 HD
BRANCH  28  31
ATOM     31  O   UNL     1       6.303  -6.393  26.848  0.00  0.00    -0.446 OA
BRANCH  31  32
ATOM     32  C   UNL     1       4.915  -6.725  26.898  0.00  0.00    +0.269 C 
BRANCH  32  33
ATOM     33  C   UNL     1       4.262  -6.150  25.668  0.00  0.00    -0.010 A 
ATOM     34  C   UNL     1       4.176  -6.903  24.491  0.00  0.00    +0.007 A 
ATOM     35  C   UNL     1       3.531  -6.383  23.367  0.00  0.00    +0.000 A 
ATOM     36  C   UNL     1       2.969  -5.109  23.407  0.00  0.00    +0.000 A 
ATOM     37  C   UNL     1       3.057  -4.346  24.570  0.00  0.00    +0.000 A 
ATOM     38  C   UNL     1       3.703  -4.862  25.693  0.00  0.00    +0.007 A 
ENDBRANCH  32  33
ENDBRANCH  31  32
ENDBRANCH  28  31
ENDBRANCH  26  29
BRANCH  26  39
ATOM     39  C   UNL     1       6.891  -3.772  24.561  0.00  0.00    +0.067 C 
BRANCH  39  40
ATOM     40  C   UNL     1       6.694  -4.284  23.155  0.00  0.00    -0.045 A 
ATOM     41  C   UNL     1       7.132  -5.574  22.817  0.00  0.00    +0.004 A 
ATOM     42  C   UNL     1       6.845  -6.113  21.567  0.00  0.00    +0.000 A 
ATOM     43  C   UNL     1       6.125  -5.365  20.637  0.00  0.00    +0.000 A 
ATOM     44  C   UNL     1       5.730  -4.064  20.946  0.00  0.00    +0.000 A 
ATOM     45  C   UNL     1       6.026  -3.519  22.196  0.00  0.00    +0.004 A 
ENDBRANCH  39  40
ENDBRANCH  26  39
ENDBRANCH   1  26
TORSDOF 16
ENDMDL
MODEL 9
REMARK VINA RESULT:      -6.9      2.030      8.124
REMARK  Name = 
REMARK  16 active torsions:
REMARK  status: ('A' for Active; 'I' for Inactive)
REMARK    1  A    between atoms: C_2  and  O_38
REMARK    2  A    between atoms: N_3  and  C_4
REMARK    3  A    between atoms: C_4  and  C_6
REMARK    4  A    between atoms: C_4  and  C_13
REMARK    5  A    between atoms: C_6  and  C_7
REMARK    6  A    between atoms: N_15  and  C_16
REMARK    7  A    between atoms: C_16  and  C_18
REMARK    8  A    between atoms: C_16  and  C_26
REMARK    9  A    between atoms: C_18  and  C_19
REMARK   10  A    between atoms: C_19  and  C_20
REMARK   11  A    between atoms: C_26  and  C_27
REMARK   12  A    between atoms: C_27  and  S_28
REMARK   13  A    between atoms: S_28  and  O_31
REMARK   14  A    between atoms: O_31  and  C_32
REMARK   15  A    between atoms: O_38  and  C_39
REMARK   16  A    between atoms: C_39  and  C_40
REMARK                            x       y       z     vdW  Elec       q    Type
REMARK                         _______ _______ _______ _____ _____    ______ ____
ROOT
ATOM      1  C   UNL     1       5.126  -2.048  27.507  0.00  0.00    +0.234 C 
ATOM      2  N   UNL     1       5.821  -1.005  26.951  0.00  0.00    -0.311 N 
ATOM      3  H   UNL     1       5.830  -0.215  27.586  0.00  0.00    +0.149 HD
ATOM      4  O   UNL     1       4.562  -1.807  28.578  0.00  0.00    -0.274 OA
ENDROOT
BRANCH   2   5
ATOM      5  C   UNL     1       6.595  -0.904  25.720  0.00  0.00    +0.075 C 
BRANCH   5   6
ATOM      6  C   UNL     1       8.105  -0.768  25.997  0.00  0.00    +0.027 C 
BRANCH   6   7
ATOM      7  C   UNL     1       9.019  -1.226  24.853  0.00  0.00    +0.037 C 
BRANCH   7   8
ATOM      8  C   UNL     1       9.413  -0.080  23.953  0.00  0.00    -0.047 A 
ATOM      9  C   UNL     1      10.297   0.908  24.407  0.00  0.00    +0.003 A 
ATOM     10  C   UNL     1      10.688   1.949  23.565  0.00  0.00    +0.000 A 
ATOM     11  C   UNL     1      10.185   2.022  22.268  0.00  0.00    +0.000 A 
ATOM     12  C   UNL     1       9.288   1.058  21.813  0.00  0.00    +0.000 A 
ATOM     13  C   UNL     1       8.902   0.010  22.651  0.00  0.00    +0.003 A 
ENDBRANCH   7   8
ENDBRANCH   6   7
ENDBRANCH   5   6
BRANCH   5  14
ATOM     14  C   UNL     1       6.085   0.276  24.862  0.00  0.00    +0.048 C 
BRANCH  14  15
ATOM     15  C   UNL     1       5.200   1.288  25.590  0.00  0.00    +0.212 C 
BRANCH  15  16
ATOM     16  S   UNL     1       6.159   2.547  26.395  0.00  0.00    +0.121 S 
ATOM     17  O   UNL     1       6.600   2.049  27.681  0.00  0.00    -0.137 OA
ATOM     18  O   UNL     1       5.435   3.796  26.289  0.00  0.00    -0.137 OA
BRANCH  16  19
ATOM     19  O   UNL     1       7.429   2.564  25.370  0.00  0.00    -0.346 OA
BRANCH  19  20
ATOM     20  C   UNL     1       7.605   3.603  24.487  0.00  0.00    +0.156 A 
ATOM     21  C   UNL     1       8.472   4.617  24.902  0.00  0.00    +0.048 A 
ATOM     22  C   UNL     1       8.727   5.706  24.065  0.00  0.00    +0.004 A 
ATOM     23  C   UNL     1       8.114   5.787  22.815  0.00  0.00    +0.000 A 
ATOM     24  C   UNL     1       7.244   4.785  22.402  0.00  0.00    +0.004 A 
ATOM     25  C   UNL     1       6.989   3.696  23.237  0.00  0.00    +0.048 A 
ENDBRANCH  19  20
ENDBRANCH  16  19
ENDBRANCH  15  16
ENDBRANCH  14  15
ENDBRANCH   5  14
ENDBRANCH   2   5
BRANCH   1  26
ATOM     26  C   UNL     1       5.064  -3.438  26.815  0.00  0.00    +0.166 C 
BRANCH  26  29
ATOM     27  O   UNL     1       7.823  -5.618  27.720  0.00  0.00    -0.226 OA
ATOM     28  C   UNL     1       7.149  -4.827  27.078  0.00  0.00    +0.401 C 
ATOM     29  N   UNL     1       5.944  -4.371  27.531  0.00  0.00    -0.269 N 
ATOM     30  H   UNL     1       5.662  -4.726  28.433  0.00  0.00    +0.153 HD
BRANCH  28  31
ATOM     31  O   UNL     1       7.467  -4.308  25.880  0.00  0.00    -0.446 OA
BRANCH  31  32
ATOM     32  C   UNL     1       8.001  -5.171  24.875  0.00  0.00    +0.269 C 
BRANCH  32  33
ATOM     33  C   UNL     1       7.264  -4.890  23.592  0.00  0.00    -0.010 A 
ATOM     34  C   UNL     1       7.302  -5.807  22.536  0.00  0.00    +0.007 A 
ATOM     35  C   UNL     1       6.582  -5.565  21.364  0.00  0.00    +0.000 A 
ATOM     36  C   UNL     1       5.821  -4.405  21.236  0.00  0.00    +0.000 A 
ATOM     37  C   UNL     1       5.783  -3.479  22.277  0.00  0.00    +0.000 A 
ATOM     38  C   UNL     1       6.504  -3.719  23.447  0.00  0.00    +0.007 A 
ENDBRANCH  32  33
ENDBRANCH  31  32
ENDBRANCH  28  31
ENDBRANCH  26  29
BRANCH  26  39
ATOM     39  C   UNL     1       3.632  -4.011  26.647  0.00  0.00    +0.067 C 
BRANCH  39  40
ATOM     40  C   UNL     1       3.448  -4.901  25.442  0.00  0.00    -0.045 A 
ATOM     41  C   UNL     1       2.604  -4.491  24.398  0.00  0.00    +0.004 A 
ATOM     42  C   UNL     1       2.521  -5.232  23.224  0.00  0.00    +0.000 A 
ATOM     43  C   UNL     1       3.273  -6.398  23.085  0.00  0.00    +0.000 A 
ATOM     44  C   UNL     1       4.074  -6.839  24.136  0.00  0.00    +0.000 A 
ATOM     45  C   UNL     1       4.151  -6.102  25.318  0.00  0.00    +0.004 A 
ENDBRANCH  39  40
ENDBRANCH  26  39
ENDBRANCH   1  26
TORSDOF 16
ENDMDL
