MODEL 1
REMARK VINA RESULT:      -6.3      0.000      0.000
REMARK  Name = 
REMARK  16 active torsions:
REMARK  status: ('A' for Active; 'I' for Inactive)
REMARK    1  A    between atoms: C_1  and  C_2
REMARK    2  A    between atoms: C_2  and  C_3
REMARK    3  A    between atoms: C_3  and  C_4
REMARK    4  A    between atoms: C_4  and  S_5
REMARK    5  A    between atoms: S_5  and  N_8
REMARK    6  A    between atoms: N_8  and  C_9
REMARK    7  A    between atoms: C_9  and  C_11
REMARK    8  A    between atoms: C_9  and  C_29
REMARK    9  A    between atoms: C_11  and  C_12
REMARK   10  A    between atoms: C_15  and  O_16
REMARK   11  A    between atoms: O_16  and  C_17
REMARK   12  A    between atoms: C_17  and  C_18
REMARK   13  A    between atoms: C_18  and  C_19
REMARK   14  A    between atoms: C_19  and  C_20
REMARK   15  A    between atoms: C_20  and  C_21
REMARK   16  A    between atoms: C_29  and  O_30
REMARK                            x       y       z     vdW  Elec       q    Type
REMARK                         _______ _______ _______ _____ _____    ______ ____
ROOT
ATOM      1  C   UNL     1      10.264   1.608  23.346  0.00  0.00    -0.045 A 
ATOM      2  C   UNL     1       9.996   0.863  22.190  0.00  0.00    +0.007 A 
ATOM      3  C   UNL     1       9.918  -0.539  22.249  0.00  0.00    +0.046 A 
ATOM      4  C   UNL     1      10.073  -1.199  23.473  0.00  0.00    +0.121 A 
ATOM      5  C   UNL     1      10.144  -0.433  24.640  0.00  0.00    +0.046 A 
ATOM      6  C   UNL     1      10.233   0.943  24.575  0.00  0.00    +0.007 A 
ENDROOT
BRANCH   1   7
ATOM      7  C   UNL     1      10.601   3.079  23.395  0.00  0.00    +0.067 C 
BRANCH   7   8
ATOM      8  C   UNL     1       9.470   4.102  23.578  0.00  0.00    +0.188 C 
BRANCH   8   9
ATOM      9  N   UNL     1       8.307   4.035  22.552  0.00  0.00    -0.180 NA
ATOM     10  H   UNL     1       8.208   4.988  22.175  0.00  0.00    +0.149 HD
BRANCH   9  11
ATOM     11  S   UNL     1       6.847   3.653  23.341  0.00  0.00    +0.030 S 
ATOM     12  O   UNL     1       7.116   3.672  24.757  0.00  0.00    -0.158 OA
ATOM     13  O   UNL     1       5.864   4.526  22.738  0.00  0.00    -0.158 OA
BRANCH  11  14
ATOM     14  C   UNL     1       6.426   1.945  22.909  0.00  0.00    +0.185 C 
BRANCH  14  15
ATOM     15  C   UNL     1       6.654   1.141  24.196  0.00  0.00    +0.024 C 
BRANCH  15  17
ATOM     16  C   UNL     1       5.570  -0.793  25.309  0.00  0.00    +0.004 C 
ATOM     17  C   UNL     1       6.443  -0.364  24.128  0.00  0.00    -0.002 C 
ENDBRANCH  15  17
ENDBRANCH  14  15
ENDBRANCH  11  14
ENDBRANCH   9  11
ENDBRANCH   8   9
BRANCH   8  18
ATOM     18  C   UNL     1      10.029   5.517  23.648  0.00  0.00    +0.324 C 
ATOM     19  O   UNL     1      11.001   5.858  24.305  0.00  0.00    -0.249 OA
BRANCH  18  20
ATOM     20  O   UNL     1       9.307   6.394  22.899  0.00  0.00    -0.479 OA
ATOM     21  H   UNL     1       8.532   6.693  23.424  0.00  0.00    +0.295 HD
ENDBRANCH  18  20
ENDBRANCH   8  18
ENDBRANCH   7   8
ENDBRANCH   1   7
BRANCH   4  22
ATOM     22  O   UNL     1      10.165  -2.578  23.465  0.00  0.00    -0.492 OA
BRANCH  22  23
ATOM     23  C   UNL     1       8.982  -3.213  23.969  0.00  0.00    +0.229 C 
BRANCH  23  24
ATOM     24  C   UNL     1       9.255  -4.397  24.882  0.00  0.00    +0.041 C 
BRANCH  24  25
ATOM     25  C   UNL     1       7.919  -5.095  25.211  0.00  0.00    +0.004 C 
BRANCH  25  26
ATOM     26  C   UNL     1       6.737  -4.222  24.812  0.00  0.00    +0.004 C 
BRANCH  26  27
ATOM     27  C   UNL     1       5.659  -4.903  23.939  0.00  0.00    -0.009 C 
ATOM     28  C   UNL     1       6.159  -5.937  22.912  0.00  0.00    +0.018 C 
ATOM     29  C   UNL     1       6.737  -5.335  21.627  0.00  0.00    +0.081 C 
ATOM     30  N   UNL     1       5.876  -4.304  21.049  0.00  0.00    -0.316 NA
ATOM     31  H   UNL     1       6.330  -3.906  20.227  0.00  0.00    +0.122 HD
ATOM     32  C   UNL     1       5.602  -3.243  22.014  0.00  0.00    +0.081 C 
ATOM     33  C   UNL     1       4.849  -3.811  23.215  0.00  0.00    +0.018 C 
ENDBRANCH  26  27
ENDBRANCH  25  26
ENDBRANCH  24  25
ENDBRANCH  23  24
ENDBRANCH  22  23
ENDBRANCH   4  22
TORSDOF 15
ENDMDL
MODEL 2
REMARK VINA RESULT:      -6.1      3.618      7.766
REMARK  Name = 
REMARK  16 active torsions:
REMARK  status: ('A' for Active; 'I' for Inactive)
REMARK    1  A    between atoms: C_1  and  C_2
REMARK    2  A    between atoms: C_2  and  C_3
REMARK    3  A    between atoms: C_3  and  C_4
REMARK    4  A    between atoms: C_4  and  S_5
REMARK    5  A    between atoms: S_5  and  N_8
REMARK    6  A    between atoms: N_8  and  C_9
REMARK    7  A    between atoms: C_9  and  C_11
REMARK    8  A    between atoms: C_9  and  C_29
REMARK    9  A    between atoms: C_11  and  C_12
REMARK   10  A    between atoms: C_15  and  O_16
REMARK   11  A    between atoms: O_16  and  C_17
REMARK   12  A    between atoms: C_17  and  C_18
REMARK   13  A    between atoms: C_18  and  C_19
REMARK   14  A    between atoms: C_19  and  C_20
REMARK   15  A    between atoms: C_20  and  C_21
REMARK   16  A    between atoms: C_29  and  O_30
REMARK                            x       y       z     vdW  Elec       q    Type
REMARK                         _______ _______ _______ _____ _____    ______ ____
ROOT
ATOM      1  C   UNL     1       7.791  -2.035  25.929  0.00  0.00    -0.045 A 
ATOM      2  C   UNL     1       7.167  -2.134  24.679  0.00  0.00    +0.007 A 
ATOM      3  C   UNL     1       6.459  -1.041  24.148  0.00  0.00    +0.046 A 
ATOM      4  C   UNL     1       6.404   0.166  24.851  0.00  0.00    +0.121 A 
ATOM      5  C   UNL     1       7.191   0.308  25.998  0.00  0.00    +0.046 A 
ATOM      6  C   UNL     1       7.873  -0.772  26.521  0.00  0.00    +0.007 A 
ENDROOT
BRANCH   1   7
ATOM      7  C   UNL     1       8.380  -3.178  26.719  0.00  0.00    +0.067 C 
BRANCH   7   8
ATOM      8  C   UNL     1       8.158  -4.619  26.233  0.00  0.00    +0.188 C 
BRANCH   8   9
ATOM      9  N   UNL     1       7.839  -5.674  27.326  0.00  0.00    -0.180 NA
ATOM     10  H   UNL     1       8.076  -6.588  26.914  0.00  0.00    +0.149 HD
BRANCH   9  11
ATOM     11  S   UNL     1       6.169  -5.691  27.658  0.00  0.00    +0.030 S 
ATOM     12  O   UNL     1       5.754  -7.072  27.660  0.00  0.00    -0.158 OA
ATOM     13  O   UNL     1       6.018  -4.847  28.823  0.00  0.00    -0.158 OA
BRANCH  11  14
ATOM     14  C   UNL     1       5.330  -4.891  26.267  0.00  0.00    +0.185 C 
BRANCH  14  15
ATOM     15  C   UNL     1       4.297  -3.956  26.910  0.00  0.00    +0.024 C 
BRANCH  15  17
ATOM     16  C   UNL     1       3.925  -1.504  26.974  0.00  0.00    +0.004 C 
ATOM     17  C   UNL     1       3.839  -2.754  26.097  0.00  0.00    -0.002 C 
ENDBRANCH  15  17
ENDBRANCH  14  15
ENDBRANCH  11  14
ENDBRANCH   9  11
ENDBRANCH   8   9
BRANCH   8  18
ATOM     18  C   UNL     1       9.328  -5.085  25.377  0.00  0.00    +0.324 C 
ATOM     19  O   UNL     1       9.968  -4.377  24.613  0.00  0.00    -0.249 OA
BRANCH  18  20
ATOM     20  O   UNL     1       9.587  -6.411  25.537  0.00  0.00    -0.479 OA
ATOM     21  H   UNL     1       9.054  -6.917  24.884  0.00  0.00    +0.295 HD
ENDBRANCH  18  20
ENDBRANCH   8  18
ENDBRANCH   7   8
ENDBRANCH   1   7
BRANCH   4  22
ATOM     22  O   UNL     1       5.559   1.156  24.386  0.00  0.00    -0.492 OA
BRANCH  22  23
ATOM     23  C   UNL     1       6.253   2.370  24.067  0.00  0.00    +0.229 C 
BRANCH  23  24
ATOM     24  C   UNL     1       6.112   2.800  22.615  0.00  0.00    +0.041 C 
BRANCH  24  25
ATOM     25  C   UNL     1       7.506   2.791  21.952  0.00  0.00    +0.004 C 
BRANCH  25  26
ATOM     26  C   UNL     1       8.041   1.371  21.830  0.00  0.00    +0.004 C 
BRANCH  26  27
ATOM     27  C   UNL     1       9.579   1.229  21.789  0.00  0.00    -0.009 C 
ATOM     28  C   UNL     1      10.148  -0.175  22.072  0.00  0.00    +0.018 C 
ATOM     29  C   UNL     1      10.211  -0.552  23.555  0.00  0.00    +0.081 C 
ATOM     30  N   UNL     1      10.805   0.498  24.380  0.00  0.00    -0.316 NA
ATOM     31  H   UNL     1      10.778   0.215  25.360  0.00  0.00    +0.122 HD
ATOM     32  C   UNL     1      10.092   1.762  24.221  0.00  0.00    +0.081 C 
ATOM     33  C   UNL     1      10.194   2.240  22.774  0.00  0.00    +0.018 C 
ENDBRANCH  26  27
ENDBRANCH  25  26
ENDBRANCH  24  25
ENDBRANCH  23  24
ENDBRANCH  22  23
ENDBRANCH   4  22
TORSDOF 15
ENDMDL
MODEL 3
REMARK VINA RESULT:      -6.1      4.237      8.740
REMARK  Name = 
REMARK  16 active torsions:
REMARK  status: ('A' for Active; 'I' for Inactive)
REMARK    1  A    between atoms: C_1  and  C_2
REMARK    2  A    between atoms: C_2  and  C_3
REMARK    3  A    between atoms: C_3  and  C_4
REMARK    4  A    between atoms: C_4  and  S_5
REMARK    5  A    between atoms: S_5  and  N_8
REMARK    6  A    between atoms: N_8  and  C_9
REMARK    7  A    between atoms: C_9  and  C_11
REMARK    8  A    between atoms: C_9  and  C_29
REMARK    9  A    between atoms: C_11  and  C_12
REMARK   10  A    between atoms: C_15  and  O_16
REMARK   11  A    between atoms: O_16  and  C_17
REMARK   12  A    between atoms: C_17  and  C_18
REMARK   13  A    between atoms: C_18  and  C_19
REMARK   14  A    between atoms: C_19  and  C_20
REMARK   15  A    between atoms: C_20  and  C_21
REMARK   16  A    between atoms: C_29  and  O_30
REMARK                            x       y       z     vdW  Elec       q    Type
REMARK                         _______ _______ _______ _____ _____    ______ ____
ROOT
ATOM      1  C   UNL     1       7.012  -4.411  26.416  0.00  0.00    -0.045 A 
ATOM      2  C   UNL     1       6.992  -3.146  25.814  0.00  0.00    +0.007 A 
ATOM      3  C   UNL     1       8.027  -2.753  24.948  0.00  0.00    +0.046 A 
ATOM      4  C   UNL     1       9.068  -3.639  24.653  0.00  0.00    +0.121 A 
ATOM      5  C   UNL     1       8.970  -4.958  25.105  0.00  0.00    +0.046 A 
ATOM      6  C   UNL     1       7.959  -5.335  25.966  0.00  0.00    +0.007 A 
ENDROOT
BRANCH   1   7
ATOM      7  C   UNL     1       6.106  -4.878  27.530  0.00  0.00    +0.067 C 
BRANCH   7   8
ATOM      8  C   UNL     1       5.240  -6.129  27.318  0.00  0.00    +0.188 C 
BRANCH   8   9
ATOM      9  N   UNL     1       3.748  -5.883  26.965  0.00  0.00    -0.180 NA
ATOM     10  H   UNL     1       3.206  -6.504  27.583  0.00  0.00    +0.149 HD
BRANCH   9  11
ATOM     11  S   UNL     1       3.434  -6.370  25.363  0.00  0.00    +0.030 S 
ATOM     12  O   UNL     1       4.197  -7.571  25.131  0.00  0.00    -0.158 OA
ATOM     13  O   UNL     1       1.993  -6.346  25.248  0.00  0.00    -0.158 OA
BRANCH  11  14
ATOM     14  C   UNL     1       4.111  -5.097  24.266  0.00  0.00    +0.185 C 
BRANCH  14  15
ATOM     15  C   UNL     1       5.195  -5.812  23.448  0.00  0.00    +0.024 C 
BRANCH  15  17
ATOM     16  C   UNL     1       7.187  -5.833  21.970  0.00  0.00    +0.004 C 
ATOM     17  C   UNL     1       6.091  -4.951  22.571  0.00  0.00    -0.002 C 
ENDBRANCH  15  17
ENDBRANCH  14  15
ENDBRANCH  11  14
ENDBRANCH   9  11
ENDBRANCH   8   9
BRANCH   8  18
ATOM     18  C   UNL     1       5.351  -7.070  28.510  0.00  0.00    +0.324 C 
ATOM     19  O   UNL     1       6.395  -7.394  29.056  0.00  0.00    -0.249 OA
BRANCH  18  20
ATOM     20  O   UNL     1       4.138  -7.543  28.907  0.00  0.00    -0.479 OA
ATOM     21  H   UNL     1       3.968  -8.396  28.451  0.00  0.00    +0.295 HD
ENDBRANCH  18  20
ENDBRANCH   8  18
ENDBRANCH   7   8
ENDBRANCH   1   7
BRANCH   4  22
ATOM     22  O   UNL     1      10.153  -3.160  23.943  0.00  0.00    -0.492 OA
BRANCH  22  23
ATOM     23  C   UNL     1       9.924  -1.850  23.406  0.00  0.00    +0.229 C 
BRANCH  23  24
ATOM     24  C   UNL     1       9.337  -1.849  22.003  0.00  0.00    +0.041 C 
BRANCH  24  25
ATOM     25  C   UNL     1       9.465  -0.432  21.407  0.00  0.00    +0.004 C 
BRANCH  25  26
ATOM     26  C   UNL     1      10.104   0.523  22.406  0.00  0.00    +0.004 C 
BRANCH  26  27
ATOM     27  C   UNL     1       9.773   2.021  22.217  0.00  0.00    -0.009 C 
ATOM     28  C   UNL     1      10.059   2.945  23.416  0.00  0.00    +0.018 C 
ATOM     29  C   UNL     1       8.996   2.909  24.519  0.00  0.00    +0.081 C 
ATOM     30  N   UNL     1       7.636   3.030  23.997  0.00  0.00    -0.316 NA
ATOM     31  H   UNL     1       6.970   2.952  24.765  0.00  0.00    +0.122 HD
ATOM     32  C   UNL     1       7.356   1.996  23.005  0.00  0.00    +0.081 C 
ATOM     33  C   UNL     1       8.294   2.151  21.810  0.00  0.00    +0.018 C 
ENDBRANCH  26  27
ENDBRANCH  25  26
ENDBRANCH  24  25
ENDBRANCH  23  24
ENDBRANCH  22  23
ENDBRANCH   4  22
TORSDOF 15
ENDMDL
MODEL 4
REMARK VINA RESULT:      -6.0      1.804      2.758
REMARK  Name = 
REMARK  16 active torsions:
REMARK  status: ('A' for Active; 'I' for Inactive)
REMARK    1  A    between atoms: C_1  and  C_2
REMARK    2  A    between atoms: C_2  and  C_3
REMARK    3  A    between atoms: C_3  and  C_4
REMARK    4  A    between atoms: C_4  and  S_5
REMARK    5  A    between atoms: S_5  and  N_8
REMARK    6  A    between atoms: N_8  and  C_9
REMARK    7  A    between atoms: C_9  and  C_11
REMARK    8  A    between atoms: C_9  and  C_29
REMARK    9  A    between atoms: C_11  and  C_12
REMARK   10  A    between atoms: C_15  and  O_16
REMARK   11  A    between atoms: O_16  and  C_17
REMARK   12  A    between atoms: C_17  and  C_18
REMARK   13  A    between atoms: C_18  and  C_19
REMARK   14  A    between atoms: C_19  and  C_20
REMARK   15  A    between atoms: C_20  and  C_21
REMARK   16  A    between atoms: C_29  and  O_30
REMARK                            x       y       z     vdW  Elec       q    Type
REMARK                         _______ _______ _______ _____ _____    ______ ____
ROOT
ATOM      1  C   UNL     1      10.427   1.749  23.392  0.00  0.00    -0.045 A 
ATOM      2  C   UNL     1      10.558   0.891  24.492  0.00  0.00    +0.007 A 
ATOM      3  C   UNL     1      10.161  -0.454  24.397  0.00  0.00    +0.046 A 
ATOM      4  C   UNL     1       9.665  -0.955  23.189  0.00  0.00    +0.121 A 
ATOM      5  C   UNL     1       9.725  -0.141  22.054  0.00  0.00    +0.046 A 
ATOM      6  C   UNL     1      10.102   1.183  22.156  0.00  0.00    +0.007 A 
ENDROOT
BRANCH   1   7
ATOM      7  C   UNL     1      10.591   3.249  23.413  0.00  0.00    +0.067 C 
BRANCH   7   8
ATOM      8  C   UNL     1       9.358   4.135  23.652  0.00  0.00    +0.188 C 
BRANCH   8   9
ATOM      9  N   UNL     1       8.245   4.076  22.572  0.00  0.00    -0.180 NA
ATOM     10  H   UNL     1       8.159   5.033  22.203  0.00  0.00    +0.149 HD
BRANCH   9  11
ATOM     11  S   UNL     1       6.752   3.675  23.286  0.00  0.00    +0.030 S 
ATOM     12  O   UNL     1       6.100   4.916  23.623  0.00  0.00    -0.158 OA
ATOM     13  O   UNL     1       6.155   2.721  22.378  0.00  0.00    -0.158 OA
BRANCH  11  14
ATOM     14  C   UNL     1       7.106   2.826  24.847  0.00  0.00    +0.185 C 
BRANCH  14  15
ATOM     15  C   UNL     1       6.833   1.343  24.563  0.00  0.00    +0.024 C 
BRANCH  15  17
ATOM     16  C   UNL     1       7.136   1.190  27.020  0.00  0.00    +0.004 C 
ATOM     17  C   UNL     1       6.811   0.396  25.753  0.00  0.00    -0.002 C 
ENDBRANCH  15  17
ENDBRANCH  14  15
ENDBRANCH  11  14
ENDBRANCH   9  11
ENDBRANCH   8   9
BRANCH   8  18
ATOM     18  C   UNL     1       9.772   5.579  23.903  0.00  0.00    +0.324 C 
ATOM     19  O   UNL     1       9.264   6.325  24.726  0.00  0.00    -0.249 OA
BRANCH  18  20
ATOM     20  O   UNL     1      10.783   5.974  23.081  0.00  0.00    -0.479 OA
ATOM     21  H   UNL     1      11.493   6.378  23.628  0.00  0.00    +0.295 HD
ENDBRANCH  18  20
ENDBRANCH   8  18
ENDBRANCH   7   8
ENDBRANCH   1   7
BRANCH   4  22
ATOM     22  O   UNL     1       9.124  -2.227  23.182  0.00  0.00    -0.492 OA
BRANCH  22  23
ATOM     23  C   UNL     1       8.007  -2.346  22.291  0.00  0.00    +0.229 C 
BRANCH  23  24
ATOM     24  C   UNL     1       6.699  -1.823  22.864  0.00  0.00    +0.041 C 
BRANCH  24  25
ATOM     25  C   UNL     1       5.842  -3.020  23.328  0.00  0.00    +0.004 C 
BRANCH  25  26
ATOM     26  C   UNL     1       6.257  -3.480  24.719  0.00  0.00    +0.004 C 
BRANCH  26  27
ATOM     27  C   UNL     1       6.598  -4.980  24.861  0.00  0.00    -0.009 C 
ATOM     28  C   UNL     1       5.911  -5.734  26.015  0.00  0.00    +0.018 C 
ATOM     29  C   UNL     1       6.549  -5.518  27.391  0.00  0.00    +0.081 C 
ATOM     30  N   UNL     1       8.002  -5.677  27.371  0.00  0.00    -0.316 NA
ATOM     31  H   UNL     1       8.377  -5.475  28.298  0.00  0.00    +0.122 HD
ATOM     32  C   UNL     1       8.617  -4.784  26.394  0.00  0.00    +0.081 C 
ATOM     33  C   UNL     1       8.126  -5.128  24.989  0.00  0.00    +0.018 C 
ENDBRANCH  26  27
ENDBRANCH  25  26
ENDBRANCH  24  25
ENDBRANCH  23  24
ENDBRANCH  22  23
ENDBRANCH   4  22
TORSDOF 15
ENDMDL
MODEL 5
REMARK VINA RESULT:      -6.0      4.224      9.131
REMARK  Name = 
REMARK  16 active torsions:
REMARK  status: ('A' for Active; 'I' for Inactive)
REMARK    1  A    between atoms: C_1  and  C_2
REMARK    2  A    between atoms: C_2  and  C_3
REMARK    3  A    between atoms: C_3  and  C_4
REMARK    4  A    between atoms: C_4  and  S_5
REMARK    5  A    between atoms: S_5  and  N_8
REMARK    6  A    between atoms: N_8  and  C_9
REMARK    7  A    between atoms: C_9  and  C_11
REMARK    8  A    between atoms: C_9  and  C_29
REMARK    9  A    between atoms: C_11  and  C_12
REMARK   10  A    between atoms: C_15  and  O_16
REMARK   11  A    between atoms: O_16  and  C_17
REMARK   12  A    between atoms: C_17  and  C_18
REMARK   13  A    between atoms: C_18  and  C_19
REMARK   14  A    between atoms: C_19  and  C_20
REMARK   15  A    between atoms: C_20  and  C_21
REMARK   16  A    between atoms: C_29  and  O_30
REMARK                            x       y       z     vdW  Elec       q    Type
REMARK                         _______ _______ _______ _____ _____    ______ ____
ROOT
ATOM      1  C   UNL     1       5.492  -5.382  23.412  0.00  0.00    -0.045 A 
ATOM      2  C   UNL     1       5.031  -4.101  23.744  0.00  0.00    +0.007 A 
ATOM      3  C   UNL     1       5.773  -2.963  23.384  0.00  0.00    +0.046 A 
ATOM      4  C   UNL     1       6.961  -3.101  22.659  0.00  0.00    +0.121 A 
ATOM      5  C   UNL     1       7.302  -4.365  22.170  0.00  0.00    +0.046 A 
ATOM      6  C   UNL     1       6.577  -5.481  22.538  0.00  0.00    +0.007 A 
ENDROOT
BRANCH   1   7
ATOM      7  C   UNL     1       4.931  -6.687  23.925  0.00  0.00    +0.067 C 
BRANCH   7   8
ATOM      8  C   UNL     1       4.236  -6.717  25.295  0.00  0.00    +0.188 C 
BRANCH   8   9
ATOM      9  N   UNL     1       5.154  -6.929  26.530  0.00  0.00    -0.180 NA
ATOM     10  H   UNL     1       4.851  -7.816  26.957  0.00  0.00    +0.149 HD
BRANCH   9  11
ATOM     11  S   UNL     1       4.888  -5.701  27.679  0.00  0.00    +0.030 S 
ATOM     12  O   UNL     1       3.759  -4.930  27.218  0.00  0.00    -0.158 OA
ATOM     13  O   UNL     1       4.876  -6.386  28.953  0.00  0.00    -0.158 OA
BRANCH  11  14
ATOM     14  C   UNL     1       6.326  -4.600  27.642  0.00  0.00    +0.185 C 
BRANCH  14  15
ATOM     15  C   UNL     1       7.309  -5.264  26.668  0.00  0.00    +0.024 C 
BRANCH  15  17
ATOM     16  C   UNL     1       9.355  -5.201  25.267  0.00  0.00    +0.004 C 
ATOM     17  C   UNL     1       8.245  -4.352  25.889  0.00  0.00    -0.002 C 
ENDBRANCH  15  17
ENDBRANCH  14  15
ENDBRANCH  11  14
ENDBRANCH   9  11
ENDBRANCH   8   9
BRANCH   8  18
ATOM     18  C   UNL     1       3.102  -7.733  25.302  0.00  0.00    +0.324 C 
ATOM     19  O   UNL     1       2.791  -8.448  24.361  0.00  0.00    -0.249 OA
BRANCH  18  20
ATOM     20  O   UNL     1       2.438  -7.756  26.490  0.00  0.00    -0.479 OA
ATOM     21  H   UNL     1       1.842  -8.537  26.503  0.00  0.00    +0.295 HD
ENDBRANCH  18  20
ENDBRANCH   8  18
ENDBRANCH   7   8
ENDBRANCH   1   7
BRANCH   4  22
ATOM     22  O   UNL     1       7.749  -1.980  22.476  0.00  0.00    -0.492 OA
BRANCH  22  23
ATOM     23  C   UNL     1       9.121  -2.207  22.828  0.00  0.00    +0.229 C 
BRANCH  23  24
ATOM     24  C   UNL     1      10.096  -1.244  22.169  0.00  0.00    +0.041 C 
BRANCH  24  25
ATOM     25  C   UNL     1       9.298  -0.138  21.449  0.00  0.00    +0.004 C 
BRANCH  25  26
ATOM     26  C   UNL     1       9.747   1.243  21.909  0.00  0.00    +0.004 C 
BRANCH  26  27
ATOM     27  C   UNL     1      10.115   1.372  23.404  0.00  0.00    -0.009 C 
ATOM     28  C   UNL     1       8.963   1.197  24.412  0.00  0.00    +0.018 C 
ATOM     29  C   UNL     1       8.071   2.430  24.585  0.00  0.00    +0.081 C 
ATOM     30  N   UNL     1       8.838   3.659  24.780  0.00  0.00    -0.316 NA
ATOM     31  H   UNL     1       8.198   4.451  24.841  0.00  0.00    +0.122 HD
ATOM     32  C   UNL     1       9.775   3.876  23.682  0.00  0.00    +0.081 C 
ATOM     33  C   UNL     1      10.791   2.737  23.630  0.00  0.00    +0.018 C 
ENDBRANCH  26  27
ENDBRANCH  25  26
ENDBRANCH  24  25
ENDBRANCH  23  24
ENDBRANCH  22  23
ENDBRANCH   4  22
TORSDOF 15
ENDMDL
MODEL 6
REMARK VINA RESULT:      -5.8      3.705      8.122
REMARK  Name = 
REMARK  16 active torsions:
REMARK  status: ('A' for Active; 'I' for Inactive)
REMARK    1  A    between atoms: C_1  and  C_2
REMARK    2  A    between atoms: C_2  and  C_3
REMARK    3  A    between atoms: C_3  and  C_4
REMARK    4  A    between atoms: C_4  and  S_5
REMARK    5  A    between atoms: S_5  and  N_8
REMARK    6  A    between atoms: N_8  and  C_9
REMARK    7  A    between atoms: C_9  and  C_11
REMARK    8  A    between atoms: C_9  and  C_29
REMARK    9  A    between atoms: C_11  and  C_12
REMARK   10  A    between atoms: C_15  and  O_16
REMARK   11  A    between atoms: O_16  and  C_17
REMARK   12  A    between atoms: C_17  and  C_18
REMARK   13  A    between atoms: C_18  and  C_19
REMARK   14  A    between atoms: C_19  and  C_20
REMARK   15  A    between atoms: C_20  and  C_21
REMARK   16  A    between atoms: C_29  and  O_30
REMARK                            x       y       z     vdW  Elec       q    Type
REMARK                         _______ _______ _______ _____ _____    ______ ____
ROOT
ATOM      1  C   UNL     1       8.364  -2.415  25.316  0.00  0.00    -0.045 A 
ATOM      2  C   UNL     1       9.561  -1.832  24.881  0.00  0.00    +0.007 A 
ATOM      3  C   UNL     1       9.602  -1.106  23.678  0.00  0.00    +0.046 A 
ATOM      4  C   UNL     1       8.436  -0.931  22.925  0.00  0.00    +0.121 A 
ATOM      5  C   UNL     1       7.219  -1.350  23.470  0.00  0.00    +0.046 A 
ATOM      6  C   UNL     1       7.187  -2.074  24.645  0.00  0.00    +0.007 A 
ENDROOT
BRANCH   1   7
ATOM      7  C   UNL     1       8.219  -3.403  26.449  0.00  0.00    +0.067 C 
BRANCH   7   8
ATOM      8  C   UNL     1       7.959  -4.882  26.126  0.00  0.00    +0.188 C 
BRANCH   8   9
ATOM      9  N   UNL     1       7.785  -5.834  27.340  0.00  0.00    -0.180 NA
ATOM     10  H   UNL     1       8.005  -6.778  26.993  0.00  0.00    +0.149 HD
BRANCH   9  11
ATOM     11  S   UNL     1       6.159  -5.850  27.847  0.00  0.00    +0.030 S 
ATOM     12  O   UNL     1       5.760  -7.233  27.938  0.00  0.00    -0.158 OA
ATOM     13  O   UNL     1       6.123  -4.968  28.992  0.00  0.00    -0.158 OA
BRANCH  11  14
ATOM     14  C   UNL     1       5.171  -5.103  26.525  0.00  0.00    +0.185 C 
BRANCH  14  15
ATOM     15  C   UNL     1       4.498  -6.286  25.815  0.00  0.00    +0.024 C 
BRANCH  15  17
ATOM     16  C   UNL     1       5.268  -5.209  23.717  0.00  0.00    +0.004 C 
ATOM     17  C   UNL     1       4.882  -6.540  24.365  0.00  0.00    -0.002 C 
ENDBRANCH  15  17
ENDBRANCH  14  15
ENDBRANCH  11  14
ENDBRANCH   9  11
ENDBRANCH   8   9
BRANCH   8  18
ATOM     18  C   UNL     1       9.024  -5.423  25.181  0.00  0.00    +0.324 C 
ATOM     19  O   UNL     1       8.860  -5.654  23.993  0.00  0.00    -0.249 OA
BRANCH  18  20
ATOM     20  O   UNL     1      10.207  -5.649  25.815  0.00  0.00    -0.479 OA
ATOM     21  H   UNL     1      10.917  -5.166  25.337  0.00  0.00    +0.295 HD
ENDBRANCH  18  20
ENDBRANCH   8  18
ENDBRANCH   7   8
ENDBRANCH   1   7
BRANCH   4  22
ATOM     22  O   UNL     1       8.549  -0.366  21.668  0.00  0.00    -0.492 OA
BRANCH  22  23
ATOM     23  C   UNL     1       9.704   0.475  21.543  0.00  0.00    +0.229 C 
BRANCH  23  24
ATOM     24  C   UNL     1       9.460   1.924  21.934  0.00  0.00    +0.041 C 
BRANCH  24  25
ATOM     25  C   UNL     1       7.943   2.203  21.900  0.00  0.00    +0.004 C 
BRANCH  25  26
ATOM     26  C   UNL     1       7.434   2.615  23.275  0.00  0.00    +0.004 C 
BRANCH  26  27
ATOM     27  C   UNL     1       8.456   2.518  24.430  0.00  0.00    -0.009 C 
ATOM     28  C   UNL     1       8.069   1.610  25.614  0.00  0.00    +0.018 C 
ATOM     29  C   UNL     1       7.090   2.240  26.610  0.00  0.00    +0.081 C 
ATOM     30  N   UNL     1       7.482   3.590  27.010  0.00  0.00    -0.316 NA
ATOM     31  H   UNL     1       6.773   3.978  27.633  0.00  0.00    +0.122 HD
ATOM     32  C   UNL     1       7.636   4.462  25.849  0.00  0.00    +0.081 C 
ATOM     33  C   UNL     1       8.752   3.937  24.948  0.00  0.00    +0.018 C 
ENDBRANCH  26  27
ENDBRANCH  25  26
ENDBRANCH  24  25
ENDBRANCH  23  24
ENDBRANCH  22  23
ENDBRANCH   4  22
TORSDOF 15
ENDMDL
MODEL 7
REMARK VINA RESULT:      -5.8      3.777      6.501
REMARK  Name = 
REMARK  16 active torsions:
REMARK  status: ('A' for Active; 'I' for Inactive)
REMARK    1  A    between atoms: C_1  and  C_2
REMARK    2  A    between atoms: C_2  and  C_3
REMARK    3  A    between atoms: C_3  and  C_4
REMARK    4  A    between atoms: C_4  and  S_5
REMARK    5  A    between atoms: S_5  and  N_8
REMARK    6  A    between atoms: N_8  and  C_9
REMARK    7  A    between atoms: C_9  and  C_11
REMARK    8  A    between atoms: C_9  and  C_29
REMARK    9  A    between atoms: C_11  and  C_12
REMARK   10  A    between atoms: C_15  and  O_16
REMARK   11  A    between atoms: O_16  and  C_17
REMARK   12  A    between atoms: C_17  and  C_18
REMARK   13  A    between atoms: C_18  and  C_19
REMARK   14  A    between atoms: C_19  and  C_20
REMARK   15  A    between atoms: C_20  and  C_21
REMARK   16  A    between atoms: C_29  and  O_30
REMARK                            x       y       z     vdW  Elec       q    Type
REMARK                         _______ _______ _______ _____ _____    ______ ____
ROOT
ATOM      1  C   UNL     1       6.616  -3.524  25.275  0.00  0.00    -0.045 A 
ATOM      2  C   UNL     1       5.866  -3.156  26.399  0.00  0.00    +0.007 A 
ATOM      3  C   UNL     1       5.936  -3.915  27.581  0.00  0.00    +0.046 A 
ATOM      4  C   UNL     1       6.785  -5.024  27.653  0.00  0.00    +0.121 A 
ATOM      5  C   UNL     1       7.667  -5.259  26.594  0.00  0.00    +0.046 A 
ATOM      6  C   UNL     1       7.585  -4.520  25.431  0.00  0.00    +0.007 A 
ENDROOT
BRANCH   1   7
ATOM      7  C   UNL     1       6.471  -2.953  23.885  0.00  0.00    +0.067 C 
BRANCH   7   8
ATOM      8  C   UNL     1       7.473  -3.364  22.796  0.00  0.00    +0.188 C 
BRANCH   8   9
ATOM      9  N   UNL     1       8.162  -2.209  22.021  0.00  0.00    -0.180 NA
ATOM     10  H   UNL     1       8.579  -2.640  21.184  0.00  0.00    +0.149 HD
BRANCH   9  11
ATOM     11  S   UNL     1       9.440  -1.562  22.943  0.00  0.00    +0.030 S 
ATOM     12  O   UNL     1       9.971  -2.638  23.741  0.00  0.00    -0.158 OA
ATOM     13  O   UNL     1      10.256  -0.846  21.986  0.00  0.00    -0.158 OA
BRANCH  11  14
ATOM     14  C   UNL     1       8.727  -0.357  24.091  0.00  0.00    +0.185 C 
BRANCH  14  15
ATOM     15  C   UNL     1       9.552  -0.497  25.378  0.00  0.00    +0.024 C 
BRANCH  15  17
ATOM     16  C   UNL     1       7.605   0.096  26.796  0.00  0.00    +0.004 C 
ATOM     17  C   UNL     1       8.802  -0.846  26.655  0.00  0.00    -0.002 C 
ENDBRANCH  15  17
ENDBRANCH  14  15
ENDBRANCH  11  14
ENDBRANCH   9  11
ENDBRANCH   8   9
BRANCH   8  18
ATOM     18  C   UNL     1       6.838  -4.346  21.822  0.00  0.00    +0.324 C 
ATOM     19  O   UNL     1       7.221  -5.489  21.623  0.00  0.00    -0.249 OA
BRANCH  18  20
ATOM     20  O   UNL     1       5.779  -3.803  21.160  0.00  0.00    -0.479 OA
ATOM     21  H   UNL     1       5.196  -3.356  21.812  0.00  0.00    +0.295 HD
ENDBRANCH  18  20
ENDBRANCH   8  18
ENDBRANCH   7   8
ENDBRANCH   1   7
BRANCH   4  22
ATOM     22  O   UNL     1       6.697  -5.844  28.762  0.00  0.00    -0.492 OA
BRANCH  22  23
ATOM     23  C   UNL     1       5.346  -6.018  29.213  0.00  0.00    +0.229 C 
BRANCH  23  24
ATOM     24  C   UNL     1       4.583  -7.106  28.476  0.00  0.00    +0.041 C 
BRANCH  24  25
ATOM     25  C   UNL     1       3.248  -6.524  27.966  0.00  0.00    +0.004 C 
BRANCH  25  26
ATOM     26  C   UNL     1       3.380  -6.040  26.528  0.00  0.00    +0.004 C 
BRANCH  26  27
ATOM     27  C   UNL     1       3.953  -7.061  25.520  0.00  0.00    -0.009 C 
ATOM     28  C   UNL     1       4.697  -6.481  24.302  0.00  0.00    +0.018 C 
ATOM     29  C   UNL     1       3.788  -5.971  23.180  0.00  0.00    +0.081 C 
ATOM     30  N   UNL     1       2.738  -6.924  22.826  0.00  0.00    -0.316 NA
ATOM     31  H   UNL     1       2.136  -6.515  22.111  0.00  0.00    +0.122 HD
ATOM     32  C   UNL     1       1.934  -7.283  23.991  0.00  0.00    +0.081 C 
ATOM     33  C   UNL     1       2.809  -7.971  25.036  0.00  0.00    +0.018 C 
ENDBRANCH  26  27
ENDBRANCH  25  26
ENDBRANCH  24  25
ENDBRANCH  23  24
ENDBRANCH  22  23
ENDBRANCH   4  22
TORSDOF 15
ENDMDL
MODEL 8
REMARK VINA RESULT:      -5.7      3.717      7.316
REMARK  Name = 
REMARK  16 active torsions:
REMARK  status: ('A' for Active; 'I' for Inactive)
REMARK    1  A    between atoms: C_1  and  C_2
REMARK    2  A    between atoms: C_2  and  C_3
REMARK    3  A    between atoms: C_3  and  C_4
REMARK    4  A    between atoms: C_4  and  S_5
REMARK    5  A    between atoms: S_5  and  N_8
REMARK    6  A    between atoms: N_8  and  C_9
REMARK    7  A    between atoms: C_9  and  C_11
REMARK    8  A    between atoms: C_9  and  C_29
REMARK    9  A    between atoms: C_11  and  C_12
REMARK   10  A    between atoms: C_15  and  O_16
REMARK   11  A    between atoms: O_16  and  C_17
REMARK   12  A    between atoms: C_17  and  C_18
REMARK   13  A    between atoms: C_18  and  C_19
REMARK   14  A    between atoms: C_19  and  C_20
REMARK   15  A    between atoms: C_20  and  C_21
REMARK   16  A    between atoms: C_29  and  O_30
REMARK                            x       y       z     vdW  Elec       q    Type
REMARK                         _______ _______ _______ _____ _____    ______ ____
ROOT
ATOM      1  C   UNL     1       6.491  -5.070  23.463  0.00  0.00    -0.045 A 
ATOM      2  C   UNL     1       5.720  -6.073  22.862  0.00  0.00    +0.007 A 
ATOM      3  C   UNL     1       4.317  -5.983  22.851  0.00  0.00    +0.046 A 
ATOM      4  C   UNL     1       3.682  -4.869  23.410  0.00  0.00    +0.121 A 
ATOM      5  C   UNL     1       4.469  -3.792  23.828  0.00  0.00    +0.046 A 
ATOM      6  C   UNL     1       5.845  -3.891  23.849  0.00  0.00    +0.007 A 
ENDROOT
BRANCH   1   7
ATOM      7  C   UNL     1       7.970  -5.141  23.753  0.00  0.00    +0.067 C 
BRANCH   7   8
ATOM      8  C   UNL     1       8.603  -4.101  24.690  0.00  0.00    +0.188 C 
BRANCH   8   9
ATOM      9  N   UNL     1       9.800  -3.295  24.119  0.00  0.00    -0.180 NA
ATOM     10  H   UNL     1      10.526  -3.313  24.849  0.00  0.00    +0.149 HD
BRANCH   9  11
ATOM     11  S   UNL     1       9.358  -1.666  23.891  0.00  0.00    +0.030 S 
ATOM     12  O   UNL     1       7.992  -1.660  23.430  0.00  0.00    -0.158 OA
ATOM     13  O   UNL     1       9.754  -1.004  25.114  0.00  0.00    -0.158 OA
BRANCH  11  14
ATOM     14  C   UNL     1      10.372  -1.011  22.540  0.00  0.00    +0.185 C 
BRANCH  14  15
ATOM     15  C   UNL     1       9.365  -0.516  21.492  0.00  0.00    +0.024 C 
BRANCH  15  17
ATOM     16  C   UNL     1      10.079   1.689  22.377  0.00  0.00    +0.004 C 
ATOM     17  C   UNL     1       9.150   0.986  21.385  0.00  0.00    -0.002 C 
ENDBRANCH  15  17
ENDBRANCH  14  15
ENDBRANCH  11  14
ENDBRANCH   9  11
ENDBRANCH   8   9
BRANCH   8  18
ATOM     18  C   UNL     1       8.982  -4.735  26.022  0.00  0.00    +0.324 C 
ATOM     19  O   UNL     1       8.378  -4.581  27.073  0.00  0.00    -0.249 OA
BRANCH  18  20
ATOM     20  O   UNL     1      10.105  -5.499  25.927  0.00  0.00    -0.479 OA
ATOM     21  H   UNL     1      10.166  -6.069  26.724  0.00  0.00    +0.295 HD
ENDBRANCH  18  20
ENDBRANCH   8  18
ENDBRANCH   7   8
ENDBRANCH   1   7
BRANCH   4  22
ATOM     22  O   UNL     1       2.306  -4.897  23.538  0.00  0.00    -0.492 OA
BRANCH  22  23
ATOM     23  C   UNL     1       1.816  -6.180  23.951  0.00  0.00    +0.229 C 
BRANCH  23  24
ATOM     24  C   UNL     1       1.184  -6.186  25.333  0.00  0.00    +0.041 C 
BRANCH  24  25
ATOM     25  C   UNL     1       2.054  -7.039  26.279  0.00  0.00    +0.004 C 
BRANCH  25  26
ATOM     26  C   UNL     1       2.762  -6.164  27.305  0.00  0.00    +0.004 C 
BRANCH  26  27
ATOM     27  C   UNL     1       4.128  -5.587  26.874  0.00  0.00    -0.009 C 
ATOM     28  C   UNL     1       5.349  -6.512  27.040  0.00  0.00    +0.018 C 
ATOM     29  C   UNL     1       5.900  -6.595  28.467  0.00  0.00    +0.081 C 
ATOM     30  N   UNL     1       6.073  -5.281  29.082  0.00  0.00    -0.316 NA
ATOM     31  H   UNL     1       6.395  -5.396  30.043  0.00  0.00    +0.122 HD
ATOM     32  C   UNL     1       4.824  -4.525  29.077  0.00  0.00    +0.081 C 
ATOM     33  C   UNL     1       4.373  -4.273  27.640  0.00  0.00    +0.018 C 
ENDBRANCH  26  27
ENDBRANCH  25  26
ENDBRANCH  24  25
ENDBRANCH  23  24
ENDBRANCH  22  23
ENDBRANCH   4  22
TORSDOF 15
ENDMDL
MODEL 9
REMARK VINA RESULT:      -5.6      3.291      8.126
REMARK  Name = 
REMARK  16 active torsions:
REMARK  status: ('A' for Active; 'I' for Inactive)
REMARK    1  A    between atoms: C_1  and  C_2
REMARK    2  A    between atoms: C_2  and  C_3
REMARK    3  A    between atoms: C_3  and  C_4
REMARK    4  A    between atoms: C_4  and  S_5
REMARK    5  A    between atoms: S_5  and  N_8
REMARK    6  A    between atoms: N_8  and  C_9
REMARK    7  A    between atoms: C_9  and  C_11
REMARK    8  A    between atoms: C_9  and  C_29
REMARK    9  A    between atoms: C_11  and  C_12
REMARK   10  A    between atoms: C_15  and  O_16
REMARK   11  A    between atoms: O_16  and  C_17
REMARK   12  A    between atoms: C_17  and  C_18
REMARK   13  A    between atoms: C_18  and  C_19
REMARK   14  A    between atoms: C_19  and  C_20
REMARK   15  A    between atoms: C_20  and  C_21
REMARK   16  A    between atoms: C_29  and  O_30
REMARK                            x       y       z     vdW  Elec       q    Type
REMARK                         _______ _______ _______ _____ _____    ______ ____
ROOT
ATOM      1  C   UNL     1       6.149  -2.333  26.651  0.00  0.00    -0.045 A 
ATOM      2  C   UNL     1       7.471  -1.884  26.537  0.00  0.00    +0.007 A 
ATOM      3  C   UNL     1       7.815  -0.577  26.924  0.00  0.00    +0.046 A 
ATOM      4  C   UNL     1       6.843   0.274  27.460  0.00  0.00    +0.121 A 
ATOM      5  C   UNL     1       5.580  -0.253  27.748  0.00  0.00    +0.046 A 
ATOM      6  C   UNL     1       5.244  -1.532  27.354  0.00  0.00    +0.007 A 
ENDROOT
BRANCH   1   7
ATOM      7  C   UNL     1       5.593  -3.610  26.070  0.00  0.00    +0.067 C 
BRANCH   7   8
ATOM      8  C   UNL     1       6.562  -4.684  25.552  0.00  0.00    +0.188 C 
BRANCH   8   9
ATOM      9  N   UNL     1       6.175  -5.379  24.219  0.00  0.00    -0.180 NA
ATOM     10  H   UNL     1       6.104  -6.383  24.435  0.00  0.00    +0.149 HD
BRANCH   9  11
ATOM     11  S   UNL     1       7.424  -5.197  23.075  0.00  0.00    +0.030 S 
ATOM     12  O   UNL     1       8.661  -5.125  23.811  0.00  0.00    -0.158 OA
ATOM     13  O   UNL     1       7.177  -6.232  22.095  0.00  0.00    -0.158 OA
BRANCH  11  14
ATOM     14  C   UNL     1       7.194  -3.590  22.271  0.00  0.00    +0.185 C 
BRANCH  14  15
ATOM     15  C   UNL     1       8.219  -2.662  22.938  0.00  0.00    +0.024 C 
BRANCH  15  17
ATOM     16  C   UNL     1      10.378  -1.475  22.647  0.00  0.00    +0.004 C 
ATOM     17  C   UNL     1       8.995  -1.715  22.036  0.00  0.00    -0.002 C 
ENDBRANCH  15  17
ENDBRANCH  14  15
ENDBRANCH  11  14
ENDBRANCH   9  11
ENDBRANCH   8   9
BRANCH   8  18
ATOM     18  C   UNL     1       6.838  -5.725  26.628  0.00  0.00    +0.324 C 
ATOM     19  O   UNL     1       5.986  -6.383  27.207  0.00  0.00    -0.249 OA
BRANCH  18  20
ATOM     20  O   UNL     1       8.166  -5.842  26.904  0.00  0.00    -0.479 OA
ATOM     21  H   UNL     1       8.405  -6.795  26.900  0.00  0.00    +0.295 HD
ENDBRANCH  18  20
ENDBRANCH   8  18
ENDBRANCH   7   8
ENDBRANCH   1   7
BRANCH   4  22
ATOM     22  O   UNL     1       7.175   1.600  27.665  0.00  0.00    -0.492 OA
BRANCH  22  23
ATOM     23  C   UNL     1       6.042   2.474  27.567  0.00  0.00    +0.229 C 
BRANCH  23  24
ATOM     24  C   UNL     1       6.100   3.432  26.389  0.00  0.00    +0.041 C 
BRANCH  24  25
ATOM     25  C   UNL     1       7.571   3.820  26.129  0.00  0.00    +0.004 C 
BRANCH  25  26
ATOM     26  C   UNL     1       7.948   3.578  24.674  0.00  0.00    +0.004 C 
BRANCH  26  27
ATOM     27  C   UNL     1       8.427   2.151  24.327  0.00  0.00    -0.009 C 
ATOM     28  C   UNL     1       9.938   1.973  24.084  0.00  0.00    +0.018 C 
ATOM     29  C   UNL     1      10.419   2.409  22.696  0.00  0.00    +0.081 C 
ATOM     30  N   UNL     1       9.585   1.879  21.618  0.00  0.00    -0.316 NA
ATOM     31  H   UNL     1       9.920   2.238  20.724  0.00  0.00    +0.122 HD
ATOM     32  C   UNL     1       8.186   2.254  21.798  0.00  0.00    +0.081 C 
ATOM     33  C   UNL     1       7.648   1.654  23.096  0.00  0.00    +0.018 C 
ENDBRANCH  26  27
ENDBRANCH  25  26
ENDBRANCH  24  25
ENDBRANCH  23  24
ENDBRANCH  22  23
ENDBRANCH   4  22
TORSDOF 15
ENDMDL
