MODEL 1
REMARK VINA RESULT:      -7.4      0.000      0.000
REMARK  Name = 
REMARK  14 active torsions:
REMARK  status: ('A' for Active; 'I' for Inactive)
REMARK    1  A    between atoms: C_1  and  C_2
REMARK    2  A    between atoms: N_4  and  C_5
REMARK    3  A    between atoms: C_8  and  O_10
REMARK    4  A    between atoms: C_11  and  C_13
REMARK    5  A    between atoms: C_13  and  O_14
REMARK    6  A    between atoms: O_14  and  P_15
REMARK    7  A    between atoms: P_15  and  O_16
REMARK    8  A    between atoms: P_15  and  O_18
REMARK    9  A    between atoms: O_18  and  P_19
REMARK   10  A    between atoms: P_19  and  O_20
REMARK   11  A    between atoms: P_19  and  O_22
REMARK   12  A    between atoms: O_22  and  P_23
REMARK   13  A    between atoms: P_23  and  O_24
REMARK   14  A    between atoms: P_23  and  O_25
REMARK                            x       y       z     vdW  Elec       q    Type
REMARK                         _______ _______ _______ _____ _____    ______ ____
ROOT
ATOM      1  C   UNL     1       9.292  -2.101  24.522  0.00  0.00    +0.206 C 
ENDROOT
BRANCH   1   4
ATOM      2  C   UNL     1       9.192   1.253  23.372  0.00  0.00    +0.226 C 
ATOM      3  O   UNL     1       9.615   0.360  24.432  0.00  0.00    -0.348 OA
ATOM      4  C   UNL     1       9.988  -0.911  23.822  0.00  0.00    +0.175 C 
ATOM      5  C   UNL     1       9.578  -0.805  22.344  0.00  0.00    +0.150 C 
ATOM      6  C   UNL     1       9.707   0.673  22.067  0.00  0.00    +0.088 C 
BRANCH   2  15
ATOM      7  C   UNL     1      12.616   4.914  23.195  0.00  0.00    +0.051 C 
ATOM      8  C   UNL     1      11.260   4.355  23.492  0.00  0.00    +0.030 A 
ATOM      9  C   UNL     1      10.254   5.313  24.006  0.00  0.00    +0.257 A 
ATOM     10  O   UNL     1      10.515   6.498  24.197  0.00  0.00    -0.267 OA
ATOM     11  N   UNL     1       9.008   4.805  24.220  0.00  0.00    -0.275 N 
ATOM     12  H   UNL     1       8.301   5.450  24.534  0.00  0.00    +0.173 HD
ATOM     13  C   UNL     1       8.615   3.515  24.009  0.00  0.00    +0.331 A 
ATOM     14  O   UNL     1       7.441   3.189  24.162  0.00  0.00    -0.246 OA
ATOM     15  N   UNL     1       9.613   2.628  23.607  0.00  0.00    -0.274 N 
ATOM     16  C   UNL     1      10.891   3.074  23.326  0.00  0.00    +0.101 A 
ENDBRANCH   2  15
BRANCH   5  17
ATOM     17  O   UNL     1      10.365  -1.595  21.475  0.00  0.00    -0.389 OA
ATOM     18  H   UNL     1      10.298  -2.532  21.734  0.00  0.00    +0.210 HD
ENDBRANCH   5  17
ENDBRANCH   1   4
BRANCH   1  19
ATOM     19  O   UNL     1       9.428  -3.358  23.836  0.00  0.00    -0.284 OA
BRANCH  19  20
ATOM     20  P   UNL     1       8.667  -4.651  24.432  0.00  0.00    +0.483 P 
ATOM     21  O   UNL     1       7.496  -4.309  25.288  0.00  0.00    -0.227 OA
BRANCH  20  22
ATOM     22  O   UNL     1       9.844  -5.411  25.210  0.00  0.00    -0.302 OA
ATOM     23  H   UNL     1      10.541  -4.814  25.536  0.00  0.00    +0.222 HD
ENDBRANCH  20  22
BRANCH  20  24
ATOM     24  O   UNL     1       8.392  -5.634  23.174  0.00  0.00    -0.186 OA
BRANCH  24  25
ATOM     25  P   UNL     1       6.755  -5.461  22.641  0.00  0.00    +0.492 P 
ATOM     26  O   UNL     1       7.159  -5.907  21.233  0.00  0.00    -0.226 OA
BRANCH  25  27
ATOM     27  O   UNL     1       6.958  -3.838  22.575  0.00  0.00    -0.302 OA
ATOM     28  H   UNL     1       6.181  -3.474  22.109  0.00  0.00    +0.222 HD
ENDBRANCH  25  27
BRANCH  25  29
ATOM     29  O   UNL     1       5.120  -5.288  22.107  0.00  0.00    -0.186 OA
BRANCH  29  30
ATOM     30  P   UNL     1       4.083  -5.647  23.267  0.00  0.00    +0.481 P 
ATOM     31  O   UNL     1       2.662  -5.325  22.990  0.00  0.00    -0.227 OA
BRANCH  30  32
ATOM     32  O   UNL     1       4.695  -4.870  24.516  0.00  0.00    -0.302 OA
ATOM     33  H   UNL     1       4.432  -3.923  24.575  0.00  0.00    +0.222 HD
ENDBRANCH  30  32
BRANCH  30  34
ATOM     34  O   UNL     1       4.435  -7.166  23.598  0.00  0.00    -0.302 OA
ATOM     35  H   UNL     1       4.019  -7.771  22.962  0.00  0.00    +0.222 HD
ENDBRANCH  30  34
ENDBRANCH  29  30
ENDBRANCH  25  29
ENDBRANCH  24  25
ENDBRANCH  20  24
ENDBRANCH  19  20
ENDBRANCH   1  19
TORSDOF 13
ENDMDL
MODEL 2
REMARK VINA RESULT:      -7.4      1.910      2.638
REMARK  Name = 
REMARK  14 active torsions:
REMARK  status: ('A' for Active; 'I' for Inactive)
REMARK    1  A    between atoms: C_1  and  C_2
REMARK    2  A    between atoms: N_4  and  C_5
REMARK    3  A    between atoms: C_8  and  O_10
REMARK    4  A    between atoms: C_11  and  C_13
REMARK    5  A    between atoms: C_13  and  O_14
REMARK    6  A    between atoms: O_14  and  P_15
REMARK    7  A    between atoms: P_15  and  O_16
REMARK    8  A    between atoms: P_15  and  O_18
REMARK    9  A    between atoms: O_18  and  P_19
REMARK   10  A    between atoms: P_19  and  O_20
REMARK   11  A    between atoms: P_19  and  O_22
REMARK   12  A    between atoms: O_22  and  P_23
REMARK   13  A    between atoms: P_23  and  O_24
REMARK   14  A    between atoms: P_23  and  O_25
REMARK                            x       y       z     vdW  Elec       q    Type
REMARK                         _______ _______ _______ _____ _____    ______ ____
ROOT
ATOM      1  C   UNL     1       9.144  -1.908  24.691  0.00  0.00    +0.206 C 
ENDROOT
BRANCH   1   4
ATOM      2  C   UNL     1       9.288   1.397  23.410  0.00  0.00    +0.226 C 
ATOM      3  O   UNL     1       9.578   0.533  24.536  0.00  0.00    -0.348 OA
ATOM      4  C   UNL     1       9.948  -0.775  24.011  0.00  0.00    +0.175 C 
ATOM      5  C   UNL     1       9.673  -0.716  22.499  0.00  0.00    +0.150 C 
ATOM      6  C   UNL     1       9.889   0.744  22.178  0.00  0.00    +0.088 C 
BRANCH   2  15
ATOM      7  C   UNL     1      12.792   4.975  23.145  0.00  0.00    +0.051 C 
ATOM      8  C   UNL     1      11.430   4.450  23.472  0.00  0.00    +0.030 A 
ATOM      9  C   UNL     1      10.456   5.434  23.999  0.00  0.00    +0.257 A 
ATOM     10  O   UNL     1      10.749   6.614  24.178  0.00  0.00    -0.267 OA
ATOM     11  N   UNL     1       9.203   4.957  24.240  0.00  0.00    -0.275 N 
ATOM     12  H   UNL     1       8.518   5.620  24.564  0.00  0.00    +0.173 HD
ATOM     13  C   UNL     1       8.777   3.675  24.044  0.00  0.00    +0.331 A 
ATOM     14  O   UNL     1       7.598   3.378  24.223  0.00  0.00    -0.246 OA
ATOM     15  N   UNL     1       9.746   2.764  23.628  0.00  0.00    -0.274 N 
ATOM     16  C   UNL     1      11.028   3.178  23.320  0.00  0.00    +0.101 A 
ENDBRANCH   2  15
BRANCH   5  17
ATOM     17  O   UNL     1      10.499  -1.572  21.733  0.00  0.00    -0.389 OA
ATOM     18  H   UNL     1      11.246  -1.878  22.278  0.00  0.00    +0.210 HD
ENDBRANCH   5  17
ENDBRANCH   1   4
BRANCH   1  19
ATOM     19  O   UNL     1       9.550  -3.235  24.315  0.00  0.00    -0.284 OA
BRANCH  19  20
ATOM     20  P   UNL     1       9.051  -4.480  25.213  0.00  0.00    +0.483 P 
ATOM     21  O   UNL     1       9.031  -4.188  26.675  0.00  0.00    -0.227 OA
BRANCH  20  22
ATOM     22  O   UNL     1      10.077  -5.637  24.794  0.00  0.00    -0.302 OA
ATOM     23  H   UNL     1      10.988  -5.317  24.665  0.00  0.00    +0.222 HD
ENDBRANCH  20  22
BRANCH  20  24
ATOM     24  O   UNL     1       7.664  -4.990  24.550  0.00  0.00    -0.186 OA
BRANCH  24  25
ATOM     25  P   UNL     1       6.490  -5.273  25.789  0.00  0.00    +0.492 P 
ATOM     26  O   UNL     1       5.400  -5.450  24.728  0.00  0.00    -0.226 OA
BRANCH  25  27
ATOM     27  O   UNL     1       6.438  -3.666  26.094  0.00  0.00    -0.302 OA
ATOM     28  H   UNL     1       6.812  -3.217  25.311  0.00  0.00    +0.222 HD
ENDBRANCH  25  27
BRANCH  25  29
ATOM     29  O   UNL     1       5.316  -5.556  27.027  0.00  0.00    -0.186 OA
BRANCH  29  30
ATOM     30  P   UNL     1       6.001  -6.044  28.384  0.00  0.00    +0.481 P 
ATOM     31  O   UNL     1       5.781  -5.178  29.569  0.00  0.00    -0.227 OA
BRANCH  30  32
ATOM     32  O   UNL     1       7.528  -6.186  27.957  0.00  0.00    -0.302 OA
ATOM     33  H   UNL     1       8.012  -5.332  27.883  0.00  0.00    +0.222 HD
ENDBRANCH  30  32
BRANCH  30  34
ATOM     34  O   UNL     1       5.527  -7.562  28.493  0.00  0.00    -0.302 OA
ATOM     35  H   UNL     1       4.568  -7.643  28.362  0.00  0.00    +0.222 HD
ENDBRANCH  30  34
ENDBRANCH  29  30
ENDBRANCH  25  29
ENDBRANCH  24  25
ENDBRANCH  20  24
ENDBRANCH  19  20
ENDBRANCH   1  19
TORSDOF 13
ENDMDL
MODEL 3
REMARK VINA RESULT:      -7.2      1.351      2.324
REMARK  Name = 
REMARK  14 active torsions:
REMARK  status: ('A' for Active; 'I' for Inactive)
REMARK    1  A    between atoms: C_1  and  C_2
REMARK    2  A    between atoms: N_4  and  C_5
REMARK    3  A    between atoms: C_8  and  O_10
REMARK    4  A    between atoms: C_11  and  C_13
REMARK    5  A    between atoms: C_13  and  O_14
REMARK    6  A    between atoms: O_14  and  P_15
REMARK    7  A    between atoms: P_15  and  O_16
REMARK    8  A    between atoms: P_15  and  O_18
REMARK    9  A    between atoms: O_18  and  P_19
REMARK   10  A    between atoms: P_19  and  O_20
REMARK   11  A    between atoms: P_19  and  O_22
REMARK   12  A    between atoms: O_22  and  P_23
REMARK   13  A    between atoms: P_23  and  O_24
REMARK   14  A    between atoms: P_23  and  O_25
REMARK                            x       y       z     vdW  Elec       q    Type
REMARK                         _______ _______ _______ _____ _____    ______ ____
ROOT
ATOM      1  C   UNL     1       9.412  -1.934  24.529  0.00  0.00    +0.206 C 
ENDROOT
BRANCH   1   4
ATOM      2  C   UNL     1       9.289   1.424  23.394  0.00  0.00    +0.226 C 
ATOM      3  O   UNL     1       9.756   0.524  24.428  0.00  0.00    -0.348 OA
ATOM      4  C   UNL     1      10.083  -0.749  23.798  0.00  0.00    +0.175 C 
ATOM      5  C   UNL     1       9.599  -0.635  22.342  0.00  0.00    +0.150 C 
ATOM      6  C   UNL     1       9.730   0.843  22.062  0.00  0.00    +0.088 C 
BRANCH   2  15
ATOM      7  C   UNL     1      12.791   5.008  23.196  0.00  0.00    +0.051 C 
ATOM      8  C   UNL     1      11.421   4.484  23.486  0.00  0.00    +0.030 A 
ATOM      9  C   UNL     1      10.429   5.471  23.970  0.00  0.00    +0.257 A 
ATOM     10  O   UNL     1      10.713   6.654  24.144  0.00  0.00    -0.267 OA
ATOM     11  N   UNL     1       9.170   4.994  24.177  0.00  0.00    -0.275 N 
ATOM     12  H   UNL     1       8.473   5.659  24.471  0.00  0.00    +0.173 HD
ATOM     13  C   UNL     1       8.753   3.709  23.984  0.00  0.00    +0.331 A 
ATOM     14  O   UNL     1       7.570   3.411  24.128  0.00  0.00    -0.246 OA
ATOM     15  N   UNL     1       9.736   2.795  23.610  0.00  0.00    -0.274 N 
ATOM     16  C   UNL     1      11.027   3.208  23.338  0.00  0.00    +0.101 A 
ENDBRANCH   2  15
BRANCH   5  17
ATOM     17  O   UNL     1      10.332  -1.431  21.432  0.00  0.00    -0.389 OA
ATOM     18  H   UNL     1      10.844  -2.099  21.921  0.00  0.00    +0.210 HD
ENDBRANCH   5  17
ENDBRANCH   1   4
BRANCH   1  19
ATOM     19  O   UNL     1       9.872  -3.230  24.112  0.00  0.00    -0.284 OA
BRANCH  19  20
ATOM     20  P   UNL     1       9.325  -4.534  24.891  0.00  0.00    +0.483 P 
ATOM     21  O   UNL     1      10.410  -5.423  25.397  0.00  0.00    -0.227 OA
BRANCH  20  22
ATOM     22  O   UNL     1       8.382  -5.218  23.791  0.00  0.00    -0.302 OA
ATOM     23  H   UNL     1       8.825  -5.358  22.934  0.00  0.00    +0.222 HD
ENDBRANCH  20  22
BRANCH  20  24
ATOM     24  O   UNL     1       8.253  -3.995  25.979  0.00  0.00    -0.186 OA
BRANCH  24  25
ATOM     25  P   UNL     1       7.056  -5.209  26.274  0.00  0.00    +0.492 P 
ATOM     26  O   UNL     1       6.210  -4.196  27.052  0.00  0.00    -0.226 OA
BRANCH  25  27
ATOM     27  O   UNL     1       8.008  -5.852  27.439  0.00  0.00    -0.302 OA
ATOM     28  H   UNL     1       7.481  -6.541  27.889  0.00  0.00    +0.222 HD
ENDBRANCH  25  27
BRANCH  25  29
ATOM     29  O   UNL     1       5.859  -6.421  26.570  0.00  0.00    -0.186 OA
BRANCH  29  30
ATOM     30  P   UNL     1       4.675  -6.349  25.500  0.00  0.00    +0.481 P 
ATOM     31  O   UNL     1       4.192  -7.652  24.979  0.00  0.00    -0.227 OA
BRANCH  30  32
ATOM     32  O   UNL     1       5.287  -5.388  24.387  0.00  0.00    -0.302 OA
ATOM     33  H   UNL     1       5.498  -5.834  23.535  0.00  0.00    +0.222 HD
ENDBRANCH  30  32
BRANCH  30  34
ATOM     34  O   UNL     1       3.606  -5.411  26.220  0.00  0.00    -0.302 OA
ATOM     35  H   UNL     1       3.996  -4.953  26.983  0.00  0.00    +0.222 HD
ENDBRANCH  30  34
ENDBRANCH  29  30
ENDBRANCH  25  29
ENDBRANCH  24  25
ENDBRANCH  20  24
ENDBRANCH  19  20
ENDBRANCH   1  19
TORSDOF 13
ENDMDL
MODEL 4
REMARK VINA RESULT:      -7.1      1.802      3.035
REMARK  Name = 
REMARK  14 active torsions:
REMARK  status: ('A' for Active; 'I' for Inactive)
REMARK    1  A    between atoms: C_1  and  C_2
REMARK    2  A    between atoms: N_4  and  C_5
REMARK    3  A    between atoms: C_8  and  O_10
REMARK    4  A    between atoms: C_11  and  C_13
REMARK    5  A    between atoms: C_13  and  O_14
REMARK    6  A    between atoms: O_14  and  P_15
REMARK    7  A    between atoms: P_15  and  O_16
REMARK    8  A    between atoms: P_15  and  O_18
REMARK    9  A    between atoms: O_18  and  P_19
REMARK   10  A    between atoms: P_19  and  O_20
REMARK   11  A    between atoms: P_19  and  O_22
REMARK   12  A    between atoms: O_22  and  P_23
REMARK   13  A    between atoms: P_23  and  O_24
REMARK   14  A    between atoms: P_23  and  O_25
REMARK                            x       y       z     vdW  Elec       q    Type
REMARK                         _______ _______ _______ _____ _____    ______ ____
ROOT
ATOM      1  C   UNL     1       7.291  -1.863  23.126  0.00  0.00    +0.206 C 
ENDROOT
BRANCH   1   4
ATOM      2  C   UNL     1       8.521   1.336  22.211  0.00  0.00    +0.226 C 
ATOM      3  O   UNL     1       7.931   0.533  23.262  0.00  0.00    -0.348 OA
ATOM      4  C   UNL     1       8.438  -0.826  23.124  0.00  0.00    +0.175 C 
ATOM      5  C   UNL     1       9.222  -0.851  21.801  0.00  0.00    +0.150 C 
ATOM      6  C   UNL     1       9.721   0.568  21.682  0.00  0.00    +0.088 C 
BRANCH   2  15
ATOM      7  C   UNL     1      11.778   4.802  23.803  0.00  0.00    +0.051 C 
ATOM      8  C   UNL     1      10.421   4.318  23.397  0.00  0.00    +0.030 A 
ATOM      9  C   UNL     1       9.339   5.329  23.393  0.00  0.00    +0.257 A 
ATOM     10  O   UNL     1       9.532   6.498  23.721  0.00  0.00    -0.267 OA
ATOM     11  N   UNL     1       8.121   4.890  22.968  0.00  0.00    -0.275 N 
ATOM     12  H   UNL     1       7.382   5.572  22.924  0.00  0.00    +0.173 HD
ATOM     13  C   UNL     1       7.817   3.624  22.558  0.00  0.00    +0.331 A 
ATOM     14  O   UNL     1       6.700   3.364  22.120  0.00  0.00    -0.246 OA
ATOM     15  N   UNL     1       8.842   2.685  22.658  0.00  0.00    -0.274 N 
ATOM     16  C   UNL     1      10.118   3.060  23.038  0.00  0.00    +0.101 A 
ENDBRANCH   2  15
BRANCH   5  17
ATOM     17  O   UNL     1      10.268  -1.802  21.775  0.00  0.00    -0.389 OA
ATOM     18  H   UNL     1      11.050  -1.416  21.341  0.00  0.00    +0.210 HD
ENDBRANCH   5  17
ENDBRANCH   1   4
BRANCH   1  19
ATOM     19  O   UNL     1       7.555  -3.045  22.352  0.00  0.00    -0.284 OA
BRANCH  19  20
ATOM     20  P   UNL     1       7.566  -4.475  23.102  0.00  0.00    +0.483 P 
ATOM     21  O   UNL     1       7.324  -5.627  22.189  0.00  0.00    -0.227 OA
BRANCH  20  22
ATOM     22  O   UNL     1       6.436  -4.282  24.222  0.00  0.00    -0.302 OA
ATOM     23  H   UNL     1       6.096  -5.123  24.576  0.00  0.00    +0.222 HD
ENDBRANCH  20  22
BRANCH  20  24
ATOM     24  O   UNL     1       8.924  -4.513  23.985  0.00  0.00    -0.186 OA
BRANCH  24  25
ATOM     25  P   UNL     1       8.545  -4.890  25.630  0.00  0.00    +0.492 P 
ATOM     26  O   UNL     1       8.702  -3.416  26.013  0.00  0.00    -0.226 OA
BRANCH  25  27
ATOM     27  O   UNL     1      10.058  -5.478  25.835  0.00  0.00    -0.302 OA
ATOM     28  H   UNL     1      10.563  -4.799  26.324  0.00  0.00    +0.222 HD
ENDBRANCH  25  27
BRANCH  25  29
ATOM     29  O   UNL     1       8.165  -5.266  27.275  0.00  0.00    -0.186 OA
BRANCH  29  30
ATOM     30  P   UNL     1       6.592  -5.427  27.491  0.00  0.00    +0.481 P 
ATOM     31  O   UNL     1       5.916  -6.422  26.624  0.00  0.00    -0.227 OA
BRANCH  30  32
ATOM     32  O   UNL     1       6.072  -3.934  27.296  0.00  0.00    -0.302 OA
ATOM     33  H   UNL     1       5.907  -3.446  28.136  0.00  0.00    +0.222 HD
ENDBRANCH  30  32
BRANCH  30  34
ATOM     34  O   UNL     1       6.471  -5.633  29.068  0.00  0.00    -0.302 OA
ATOM     35  H   UNL     1       7.020  -6.375  29.369  0.00  0.00    +0.222 HD
ENDBRANCH  30  34
ENDBRANCH  29  30
ENDBRANCH  25  29
ENDBRANCH  24  25
ENDBRANCH  20  24
ENDBRANCH  19  20
ENDBRANCH   1  19
TORSDOF 13
ENDMDL
MODEL 5
REMARK VINA RESULT:      -6.8      1.848      3.583
REMARK  Name = 
REMARK  14 active torsions:
REMARK  status: ('A' for Active; 'I' for Inactive)
REMARK    1  A    between atoms: C_1  and  C_2
REMARK    2  A    between atoms: N_4  and  C_5
REMARK    3  A    between atoms: C_8  and  O_10
REMARK    4  A    between atoms: C_11  and  C_13
REMARK    5  A    between atoms: C_13  and  O_14
REMARK    6  A    between atoms: O_14  and  P_15
REMARK    7  A    between atoms: P_15  and  O_16
REMARK    8  A    between atoms: P_15  and  O_18
REMARK    9  A    between atoms: O_18  and  P_19
REMARK   10  A    between atoms: P_19  and  O_20
REMARK   11  A    between atoms: P_19  and  O_22
REMARK   12  A    between atoms: O_22  and  P_23
REMARK   13  A    between atoms: P_23  and  O_24
REMARK   14  A    between atoms: P_23  and  O_25
REMARK                            x       y       z     vdW  Elec       q    Type
REMARK                         _______ _______ _______ _____ _____    ______ ____
ROOT
ATOM      1  C   UNL     1       7.360  -3.053  22.306  0.00  0.00    +0.206 C 
ENDROOT
BRANCH   1   4
ATOM      2  C   UNL     1       9.071  -0.018  22.971  0.00  0.00    +0.226 C 
ATOM      3  O   UNL     1       7.791  -0.695  22.959  0.00  0.00    -0.348 OA
ATOM      4  C   UNL     1       8.020  -2.089  23.318  0.00  0.00    +0.175 C 
ATOM      5  C   UNL     1       9.547  -2.269  23.356  0.00  0.00    +0.150 C 
ATOM      6  C   UNL     1      10.035  -0.895  23.750  0.00  0.00    +0.088 C 
BRANCH   2  15
ATOM      7  C   UNL     1       7.472   3.317  26.359  0.00  0.00    +0.051 C 
ATOM      8  C   UNL     1       8.212   2.903  25.126  0.00  0.00    +0.030 A 
ATOM      9  C   UNL     1       8.956   3.970  24.418  0.00  0.00    +0.257 A 
ATOM     10  O   UNL     1       8.956   5.136  24.805  0.00  0.00    -0.267 OA
ATOM     11  N   UNL     1       9.670   3.572  23.329  0.00  0.00    -0.275 N 
ATOM     12  H   UNL     1      10.212   4.277  22.856  0.00  0.00    +0.173 HD
ATOM     13  C   UNL     1       9.755   2.299  22.841  0.00  0.00    +0.331 A 
ATOM     14  O   UNL     1      10.496   2.045  21.895  0.00  0.00    -0.246 OA
ATOM     15  N   UNL     1       8.973   1.343  23.485  0.00  0.00    -0.274 N 
ATOM     16  C   UNL     1       8.255   1.658  24.624  0.00  0.00    +0.101 A 
ENDBRANCH   2  15
BRANCH   5  17
ATOM     17  O   UNL     1       9.982  -3.279  24.245  0.00  0.00    -0.389 OA
ATOM     18  H   UNL     1      10.956  -3.306  24.258  0.00  0.00    +0.210 HD
ENDBRANCH   5  17
ENDBRANCH   1   4
BRANCH   1  19
ATOM     19  O   UNL     1       6.494  -4.037  22.896  0.00  0.00    -0.284 OA
BRANCH  19  20
ATOM     20  P   UNL     1       6.330  -5.464  22.161  0.00  0.00    +0.483 P 
ATOM     21  O   UNL     1       7.608  -6.224  22.045  0.00  0.00    -0.227 OA
BRANCH  20  22
ATOM     22  O   UNL     1       5.689  -5.051  20.752  0.00  0.00    -0.302 OA
ATOM     23  H   UNL     1       5.046  -4.322  20.819  0.00  0.00    +0.222 HD
ENDBRANCH  20  22
BRANCH  20  24
ATOM     24  O   UNL     1       5.097  -6.214  22.895  0.00  0.00    -0.186 OA
BRANCH  24  25
ATOM     25  P   UNL     1       5.408  -6.330  24.594  0.00  0.00    +0.492 P 
ATOM     26  O   UNL     1       4.343  -7.423  24.722  0.00  0.00    -0.226 OA
BRANCH  25  27
ATOM     27  O   UNL     1       4.546  -4.960  24.835  0.00  0.00    -0.302 OA
ATOM     28  H   UNL     1       3.795  -4.983  24.211  0.00  0.00    +0.222 HD
ENDBRANCH  25  27
BRANCH  25  29
ATOM     29  O   UNL     1       5.718  -6.447  26.291  0.00  0.00    -0.186 OA
BRANCH  29  30
ATOM     30  P   UNL     1       6.641  -5.248  26.801  0.00  0.00    +0.481 P 
ATOM     31  O   UNL     1       5.929  -4.077  27.369  0.00  0.00    -0.227 OA
BRANCH  30  32
ATOM     32  O   UNL     1       7.509  -4.918  25.508  0.00  0.00    -0.302 OA
ATOM     33  H   UNL     1       7.626  -3.957  25.329  0.00  0.00    +0.222 HD
ENDBRANCH  30  32
BRANCH  30  34
ATOM     34  O   UNL     1       7.692  -5.989  27.744  0.00  0.00    -0.302 OA
ATOM     35  H   UNL     1       7.717  -5.587  28.628  0.00  0.00    +0.222 HD
ENDBRANCH  30  34
ENDBRANCH  29  30
ENDBRANCH  25  29
ENDBRANCH  24  25
ENDBRANCH  20  24
ENDBRANCH  19  20
ENDBRANCH   1  19
TORSDOF 13
ENDMDL
MODEL 6
REMARK VINA RESULT:      -6.8      1.859      3.091
REMARK  Name = 
REMARK  14 active torsions:
REMARK  status: ('A' for Active; 'I' for Inactive)
REMARK    1  A    between atoms: C_1  and  C_2
REMARK    2  A    between atoms: N_4  and  C_5
REMARK    3  A    between atoms: C_8  and  O_10
REMARK    4  A    between atoms: C_11  and  C_13
REMARK    5  A    between atoms: C_13  and  O_14
REMARK    6  A    between atoms: O_14  and  P_15
REMARK    7  A    between atoms: P_15  and  O_16
REMARK    8  A    between atoms: P_15  and  O_18
REMARK    9  A    between atoms: O_18  and  P_19
REMARK   10  A    between atoms: P_19  and  O_20
REMARK   11  A    between atoms: P_19  and  O_22
REMARK   12  A    between atoms: O_22  and  P_23
REMARK   13  A    between atoms: P_23  and  O_24
REMARK   14  A    between atoms: P_23  and  O_25
REMARK                            x       y       z     vdW  Elec       q    Type
REMARK                         _______ _______ _______ _____ _____    ______ ____
ROOT
ATOM      1  C   UNL     1       9.478  -2.057  24.558  0.00  0.00    +0.206 C 
ENDROOT
BRANCH   1   4
ATOM      2  C   UNL     1       9.232   1.297  23.429  0.00  0.00    +0.226 C 
ATOM      3  O   UNL     1       9.756   0.409  24.447  0.00  0.00    -0.348 OA
ATOM      4  C   UNL     1      10.094  -0.855  23.805  0.00  0.00    +0.175 C 
ATOM      5  C   UNL     1       9.559  -0.754  22.366  0.00  0.00    +0.150 C 
ATOM      6  C   UNL     1       9.642   0.727  22.083  0.00  0.00    +0.088 C 
BRANCH   2  15
ATOM      7  C   UNL     1      12.657   4.952  23.183  0.00  0.00    +0.051 C 
ATOM      8  C   UNL     1      11.299   4.402  23.483  0.00  0.00    +0.030 A 
ATOM      9  C   UNL     1      10.289   5.372  23.963  0.00  0.00    +0.257 A 
ATOM     10  O   UNL     1      10.549   6.563  24.125  0.00  0.00    -0.267 OA
ATOM     11  N   UNL     1       9.041   4.871  24.180  0.00  0.00    -0.275 N 
ATOM     12  H   UNL     1       8.332   5.523  24.471  0.00  0.00    +0.173 HD
ATOM     13  C   UNL     1       8.650   3.575  24.001  0.00  0.00    +0.331 A 
ATOM     14  O   UNL     1       7.474   3.254  24.153  0.00  0.00    -0.246 OA
ATOM     15  N   UNL     1       9.651   2.679  23.631  0.00  0.00    -0.274 N 
ATOM     16  C   UNL     1      10.932   3.117  23.348  0.00  0.00    +0.101 A 
ENDBRANCH   2  15
BRANCH   5  17
ATOM     17  O   UNL     1      10.280  -1.531  21.431  0.00  0.00    -0.389 OA
ATOM     18  H   UNL     1       9.661  -1.948  20.806  0.00  0.00    +0.210 HD
ENDBRANCH   5  17
ENDBRANCH   1   4
BRANCH   1  19
ATOM     19  O   UNL     1       8.211  -2.498  24.041  0.00  0.00    -0.284 OA
BRANCH  19  20
ATOM     20  P   UNL     1       7.922  -4.084  23.951  0.00  0.00    +0.483 P 
ATOM     21  O   UNL     1       9.121  -4.923  24.236  0.00  0.00    -0.227 OA
BRANCH  20  22
ATOM     22  O   UNL     1       7.354  -4.243  22.462  0.00  0.00    -0.302 OA
ATOM     23  H   UNL     1       8.051  -4.263  21.782  0.00  0.00    +0.222 HD
ENDBRANCH  20  22
BRANCH  20  24
ATOM     24  O   UNL     1       6.606  -4.357  24.855  0.00  0.00    -0.186 OA
BRANCH  24  25
ATOM     25  P   UNL     1       5.732  -2.881  25.080  0.00  0.00    +0.492 P 
ATOM     26  O   UNL     1       4.716  -3.608  25.965  0.00  0.00    -0.226 OA
BRANCH  25  27
ATOM     27  O   UNL     1       5.089  -3.044  23.585  0.00  0.00    -0.302 OA
ATOM     28  H   UNL     1       4.158  -3.317  23.704  0.00  0.00    +0.222 HD
ENDBRANCH  25  27
BRANCH  25  29
ATOM     29  O   UNL     1       4.858  -1.406  25.306  0.00  0.00    -0.186 OA
BRANCH  29  30
ATOM     30  P   UNL     1       5.741  -0.135  24.912  0.00  0.00    +0.481 P 
ATOM     31  O   UNL     1       5.053   1.178  24.975  0.00  0.00    -0.227 OA
BRANCH  30  32
ATOM     32  O   UNL     1       6.263  -0.527  23.459  0.00  0.00    -0.302 OA
ATOM     33  H   UNL     1       5.619  -1.041  22.919  0.00  0.00    +0.222 HD
ENDBRANCH  30  32
BRANCH  30  34
ATOM     34  O   UNL     1       7.045  -0.318  25.810  0.00  0.00    -0.302 OA
ATOM     35  H   UNL     1       6.834  -0.246  26.756  0.00  0.00    +0.222 HD
ENDBRANCH  30  34
ENDBRANCH  29  30
ENDBRANCH  25  29
ENDBRANCH  24  25
ENDBRANCH  20  24
ENDBRANCH  19  20
ENDBRANCH   1  19
TORSDOF 13
ENDMDL
MODEL 7
REMARK VINA RESULT:      -6.7      4.507      9.073
REMARK  Name = 
REMARK  14 active torsions:
REMARK  status: ('A' for Active; 'I' for Inactive)
REMARK    1  A    between atoms: C_1  and  C_2
REMARK    2  A    between atoms: N_4  and  C_5
REMARK    3  A    between atoms: C_8  and  O_10
REMARK    4  A    between atoms: C_11  and  C_13
REMARK    5  A    between atoms: C_13  and  O_14
REMARK    6  A    between atoms: O_14  and  P_15
REMARK    7  A    between atoms: P_15  and  O_16
REMARK    8  A    between atoms: P_15  and  O_18
REMARK    9  A    between atoms: O_18  and  P_19
REMARK   10  A    between atoms: P_19  and  O_20
REMARK   11  A    between atoms: P_19  and  O_22
REMARK   12  A    between atoms: O_22  and  P_23
REMARK   13  A    between atoms: P_23  and  O_24
REMARK   14  A    between atoms: P_23  and  O_25
REMARK                            x       y       z     vdW  Elec       q    Type
REMARK                         _______ _______ _______ _____ _____    ______ ____
ROOT
ATOM      1  C   UNL     1      10.884   0.444  23.885  0.00  0.00    +0.206 C 
ENDROOT
BRANCH   1   4
ATOM      2  C   UNL     1       9.502  -2.813  24.127  0.00  0.00    +0.226 C 
ATOM      3  O   UNL     1       9.592  -1.500  24.732  0.00  0.00    -0.348 OA
ATOM      4  C   UNL     1       9.697  -0.520  23.658  0.00  0.00    +0.175 C 
ATOM      5  C   UNL     1       9.867  -1.331  22.363  0.00  0.00    +0.150 C 
ATOM      6  C   UNL     1       9.125  -2.610  22.670  0.00  0.00    +0.088 C 
BRANCH   2  15
ATOM      7  C   UNL     1       4.899  -4.170  25.583  0.00  0.00    +0.051 C 
ATOM      8  C   UNL     1       6.385  -4.325  25.510  0.00  0.00    +0.030 A 
ATOM      9  C   UNL     1       6.954  -5.517  26.178  0.00  0.00    +0.257 A 
ATOM     10  O   UNL     1       6.254  -6.330  26.777  0.00  0.00    -0.267 OA
ATOM     11  N   UNL     1       8.302  -5.677  26.058  0.00  0.00    -0.275 N 
ATOM     12  H   UNL     1       8.702  -6.502  26.474  0.00  0.00    +0.173 HD
ATOM     13  C   UNL     1       9.156  -4.848  25.390  0.00  0.00    +0.331 A 
ATOM     14  O   UNL     1      10.345  -5.137  25.281  0.00  0.00    -0.246 OA
ATOM     15  N   UNL     1       8.592  -3.694  24.849  0.00  0.00    -0.274 N 
ATOM     16  C   UNL     1       7.226  -3.481  24.890  0.00  0.00    +0.101 A 
ENDBRANCH   2  15
BRANCH   5  17
ATOM     17  O   UNL     1       9.374  -0.677  21.210  0.00  0.00    -0.389 OA
ATOM     18  H   UNL     1       9.259   0.272  21.397  0.00  0.00    +0.210 HD
ENDBRANCH   5  17
ENDBRANCH   1   4
BRANCH   1  19
ATOM     19  O   UNL     1      10.505   1.776  24.271  0.00  0.00    -0.284 OA
BRANCH  19  20
ATOM     20  P   UNL     1       9.625   2.659  23.245  0.00  0.00    +0.483 P 
ATOM     21  O   UNL     1       8.166   2.363  23.306  0.00  0.00    -0.227 OA
BRANCH  20  22
ATOM     22  O   UNL     1      10.301   2.316  21.833  0.00  0.00    -0.302 OA
ATOM     23  H   UNL     1      11.000   2.945  21.576  0.00  0.00    +0.222 HD
ENDBRANCH  20  22
BRANCH  20  24
ATOM     24  O   UNL     1      10.070   4.199  23.476  0.00  0.00    -0.186 OA
BRANCH  24  25
ATOM     25  P   UNL     1       8.666   5.202  23.610  0.00  0.00    +0.492 P 
ATOM     26  O   UNL     1       9.495   6.428  23.219  0.00  0.00    -0.226 OA
BRANCH  25  27
ATOM     27  O   UNL     1       8.813   5.174  25.240  0.00  0.00    -0.302 OA
ATOM     28  H   UNL     1       9.767   5.094  25.437  0.00  0.00    +0.222 HD
ENDBRANCH  25  27
BRANCH  25  29
ATOM     29  O   UNL     1       7.263   6.204  23.743  0.00  0.00    -0.186 OA
BRANCH  29  30
ATOM     30  P   UNL     1       6.306   6.044  22.476  0.00  0.00    +0.481 P 
ATOM     31  O   UNL     1       4.901   6.482  22.665  0.00  0.00    -0.227 OA
BRANCH  30  32
ATOM     32  O   UNL     1       6.464   4.497  22.129  0.00  0.00    -0.302 OA
ATOM     33  H   UNL     1       5.673   4.091  21.705  0.00  0.00    +0.222 HD
ENDBRANCH  30  32
BRANCH  30  34
ATOM     34  O   UNL     1       7.138   6.748  21.313  0.00  0.00    -0.302 OA
ATOM     35  H   UNL     1       6.830   6.463  20.437  0.00  0.00    +0.222 HD
ENDBRANCH  30  34
ENDBRANCH  29  30
ENDBRANCH  25  29
ENDBRANCH  24  25
ENDBRANCH  20  24
ENDBRANCH  19  20
ENDBRANCH   1  19
TORSDOF 13
ENDMDL
MODEL 8
REMARK VINA RESULT:      -6.7      2.130      3.686
REMARK  Name = 
REMARK  14 active torsions:
REMARK  status: ('A' for Active; 'I' for Inactive)
REMARK    1  A    between atoms: C_1  and  C_2
REMARK    2  A    between atoms: N_4  and  C_5
REMARK    3  A    between atoms: C_8  and  O_10
REMARK    4  A    between atoms: C_11  and  C_13
REMARK    5  A    between atoms: C_13  and  O_14
REMARK    6  A    between atoms: O_14  and  P_15
REMARK    7  A    between atoms: P_15  and  O_16
REMARK    8  A    between atoms: P_15  and  O_18
REMARK    9  A    between atoms: O_18  and  P_19
REMARK   10  A    between atoms: P_19  and  O_20
REMARK   11  A    between atoms: P_19  and  O_22
REMARK   12  A    between atoms: O_22  and  P_23
REMARK   13  A    between atoms: P_23  and  O_24
REMARK   14  A    between atoms: P_23  and  O_25
REMARK                            x       y       z     vdW  Elec       q    Type
REMARK                         _______ _______ _______ _____ _____    ______ ____
ROOT
ATOM      1  C   UNL     1       8.198  -2.332  22.403  0.00  0.00    +0.206 C 
ENDROOT
BRANCH   1   4
ATOM      2  C   UNL     1       8.267   0.887  23.892  0.00  0.00    +0.226 C 
ATOM      3  O   UNL     1       8.484   0.120  22.682  0.00  0.00    -0.348 OA
ATOM      4  C   UNL     1       7.516  -0.970  22.666  0.00  0.00    +0.175 C 
ATOM      5  C   UNL     1       6.823  -0.940  24.039  0.00  0.00    +0.150 C 
ATOM      6  C   UNL     1       6.888   0.521  24.413  0.00  0.00    +0.088 C 
BRANCH   2  15
ATOM      7  C   UNL     1       6.468   5.530  23.293  0.00  0.00    +0.051 C 
ATOM      8  C   UNL     1       7.564   4.519  23.417  0.00  0.00    +0.030 A 
ATOM      9  C   UNL     1       8.948   5.045  23.386  0.00  0.00    +0.257 A 
ATOM     10  O   UNL     1       9.192   6.242  23.249  0.00  0.00    -0.267 OA
ATOM     11  N   UNL     1       9.937   4.123  23.555  0.00  0.00    -0.275 N 
ATOM     12  H   UNL     1      10.882   4.467  23.574  0.00  0.00    +0.173 HD
ATOM     13  C   UNL     1       9.764   2.782  23.743  0.00  0.00    +0.331 A 
ATOM     14  O   UNL     1      10.731   2.056  23.965  0.00  0.00    -0.246 OA
ATOM     15  N   UNL     1       8.452   2.317  23.681  0.00  0.00    -0.274 N 
ATOM     16  C   UNL     1       7.391   3.195  23.556  0.00  0.00    +0.101 A 
ENDBRANCH   2  15
BRANCH   5  17
ATOM     17  O   UNL     1       5.502  -1.442  24.024  0.00  0.00    -0.389 OA
ATOM     18  H   UNL     1       5.514  -2.399  24.204  0.00  0.00    +0.210 HD
ENDBRANCH   5  17
ENDBRANCH   1   4
BRANCH   1  19
ATOM     19  O   UNL     1       7.290  -3.411  22.127  0.00  0.00    -0.284 OA
BRANCH  19  20
ATOM     20  P   UNL     1       7.371  -4.743  23.036  0.00  0.00    +0.483 P 
ATOM     21  O   UNL     1       7.157  -6.001  22.267  0.00  0.00    -0.227 OA
BRANCH  20  22
ATOM     22  O   UNL     1       6.255  -4.463  24.152  0.00  0.00    -0.302 OA
ATOM     23  H   UNL     1       5.659  -5.219  24.301  0.00  0.00    +0.222 HD
ENDBRANCH  20  22
BRANCH  20  24
ATOM     24  O   UNL     1       8.745  -4.629  23.885  0.00  0.00    -0.186 OA
BRANCH  24  25
ATOM     25  P   UNL     1       8.424  -4.904  25.563  0.00  0.00    +0.492 P 
ATOM     26  O   UNL     1       8.616  -3.413  25.853  0.00  0.00    -0.226 OA
BRANCH  25  27
ATOM     27  O   UNL     1       9.936  -5.503  25.745  0.00  0.00    -0.302 OA
ATOM     28  H   UNL     1      10.448  -5.224  24.960  0.00  0.00    +0.222 HD
ENDBRANCH  25  27
BRANCH  25  29
ATOM     29  O   UNL     1       8.102  -5.178  27.240  0.00  0.00    -0.186 OA
BRANCH  29  30
ATOM     30  P   UNL     1       6.546  -5.414  27.507  0.00  0.00    +0.481 P 
ATOM     31  O   UNL     1       5.901  -6.474  26.694  0.00  0.00    -0.227 OA
BRANCH  30  32
ATOM     32  O   UNL     1       5.941  -3.958  27.276  0.00  0.00    -0.302 OA
ATOM     33  H   UNL     1       5.403  -3.617  28.026  0.00  0.00    +0.222 HD
ENDBRANCH  30  32
BRANCH  30  34
ATOM     34  O   UNL     1       6.479  -5.569  29.093  0.00  0.00    -0.302 OA
ATOM     35  H   UNL     1       7.092  -4.957  29.532  0.00  0.00    +0.222 HD
ENDBRANCH  30  34
ENDBRANCH  29  30
ENDBRANCH  25  29
ENDBRANCH  24  25
ENDBRANCH  20  24
ENDBRANCH  19  20
ENDBRANCH   1  19
TORSDOF 13
ENDMDL
MODEL 9
REMARK VINA RESULT:      -6.7      4.877      8.676
REMARK  Name = 
REMARK  14 active torsions:
REMARK  status: ('A' for Active; 'I' for Inactive)
REMARK    1  A    between atoms: C_1  and  C_2
REMARK    2  A    between atoms: N_4  and  C_5
REMARK    3  A    between atoms: C_8  and  O_10
REMARK    4  A    between atoms: C_11  and  C_13
REMARK    5  A    between atoms: C_13  and  O_14
REMARK    6  A    between atoms: O_14  and  P_15
REMARK    7  A    between atoms: P_15  and  O_16
REMARK    8  A    between atoms: P_15  and  O_18
REMARK    9  A    between atoms: O_18  and  P_19
REMARK   10  A    between atoms: P_19  and  O_20
REMARK   11  A    between atoms: P_19  and  O_22
REMARK   12  A    between atoms: O_22  and  P_23
REMARK   13  A    between atoms: P_23  and  O_24
REMARK   14  A    between atoms: P_23  and  O_25
REMARK                            x       y       z     vdW  Elec       q    Type
REMARK                         _______ _______ _______ _____ _____    ______ ____
ROOT
ATOM      1  C   UNL     1       8.387  -0.782  25.325  0.00  0.00    +0.206 C 
ENDROOT
BRANCH   1   4
ATOM      2  C   UNL     1       7.275  -4.131  24.959  0.00  0.00    +0.226 C 
ATOM      3  O   UNL     1       6.926  -2.790  25.381  0.00  0.00    -0.348 OA
ATOM      4  C   UNL     1       7.623  -1.852  24.511  0.00  0.00    +0.175 C 
ATOM      5  C   UNL     1       8.578  -2.700  23.655  0.00  0.00    +0.150 C 
ATOM      6  C   UNL     1       7.854  -4.022  23.559  0.00  0.00    +0.088 C 
BRANCH   2  15
ATOM      7  C   UNL     1       3.085  -6.191  23.129  0.00  0.00    +0.051 C 
ATOM      8  C   UNL     1       4.167  -6.028  24.148  0.00  0.00    +0.030 A 
ATOM      9  C   UNL     1       4.111  -6.936  25.317  0.00  0.00    +0.257 A 
ATOM     10  O   UNL     1       3.217  -7.768  25.458  0.00  0.00    -0.267 OA
ATOM     11  N   UNL     1       5.133  -6.816  26.210  0.00  0.00    -0.275 N 
ATOM     12  H   UNL     1       5.130  -7.451  26.992  0.00  0.00    +0.173 HD
ATOM     13  C   UNL     1       6.181  -5.946  26.125  0.00  0.00    +0.331 A 
ATOM     14  O   UNL     1       7.088  -5.984  26.952  0.00  0.00    -0.246 OA
ATOM     15  N   UNL     1       6.151  -5.053  25.055  0.00  0.00    -0.274 N 
ATOM     16  C   UNL     1       5.172  -5.139  24.082  0.00  0.00    +0.101 A 
ENDBRANCH   2  15
BRANCH   5  17
ATOM     17  O   UNL     1       8.862  -2.139  22.388  0.00  0.00    -0.389 OA
ATOM     18  H   UNL     1       9.819  -1.982  22.308  0.00  0.00    +0.210 HD
ENDBRANCH   5  17
ENDBRANCH   1   4
BRANCH   1  19
ATOM     19  O   UNL     1       9.807  -0.768  25.106  0.00  0.00    -0.284 OA
BRANCH  19  20
ATOM     20  P   UNL     1      10.475   0.541  24.438  0.00  0.00    +0.483 P 
ATOM     21  O   UNL     1      11.875   0.789  24.886  0.00  0.00    -0.227 OA
BRANCH  20  22
ATOM     22  O   UNL     1       9.445   1.697  24.851  0.00  0.00    -0.302 OA
ATOM     23  H   UNL     1       9.874   2.555  25.022  0.00  0.00    +0.222 HD
ENDBRANCH  20  22
BRANCH  20  24
ATOM     24  O   UNL     1      10.228   0.412  22.842  0.00  0.00    -0.186 OA
BRANCH  24  25
ATOM     25  P   UNL     1       9.106   1.621  22.321  0.00  0.00    +0.492 P 
ATOM     26  O   UNL     1       8.633   0.706  21.189  0.00  0.00    -0.226 OA
BRANCH  25  27
ATOM     27  O   UNL     1      10.335   2.449  21.626  0.00  0.00    -0.302 OA
ATOM     28  H   UNL     1      10.895   2.788  22.351  0.00  0.00    +0.222 HD
ENDBRANCH  25  27
BRANCH  25  29
ATOM     29  O   UNL     1       7.984   2.830  21.800  0.00  0.00    -0.186 OA
BRANCH  29  30
ATOM     30  P   UNL     1       6.666   2.833  22.702  0.00  0.00    +0.481 P 
ATOM     31  O   UNL     1       6.863   3.146  24.138  0.00  0.00    -0.227 OA
BRANCH  30  32
ATOM     32  O   UNL     1       6.068   1.382  22.428  0.00  0.00    -0.302 OA
ATOM     33  H   UNL     1       6.557   0.650  22.869  0.00  0.00    +0.222 HD
ENDBRANCH  30  32
BRANCH  30  34
ATOM     34  O   UNL     1       5.678   3.776  21.879  0.00  0.00    -0.302 OA
ATOM     35  H   UNL     1       5.225   3.283  21.176  0.00  0.00    +0.222 HD
ENDBRANCH  30  34
ENDBRANCH  29  30
ENDBRANCH  25  29
ENDBRANCH  24  25
ENDBRANCH  20  24
ENDBRANCH  19  20
ENDBRANCH   1  19
TORSDOF 13
ENDMDL
