MODEL 1
REMARK VINA RESULT:      -5.6      0.000      0.000
REMARK  Name = 
REMARK  14 active torsions:
REMARK  status: ('A' for Active; 'I' for Inactive)
REMARK    1  A    between atoms: C_1  and  C_2
REMARK    2  A    between atoms: C_2  and  C_3
REMARK    3  A    between atoms: C_3  and  C_4
REMARK    4  A    between atoms: C_7  and  C_12
REMARK    5  A    between atoms: N_9  and  C_10
REMARK    6  A    between atoms: N_14  and  C_15
REMARK    7  A    between atoms: C_15  and  C_16
REMARK    8  A    between atoms: C_15  and  C_19
REMARK    9  A    between atoms: C_16  and  C_17
REMARK   10  A    between atoms: C_22  and  S_24
REMARK   11  A    between atoms: S_24  and  C_25
REMARK   12  A    between atoms: C_26  and  O_28
REMARK   13  A    between atoms: C_29  and  O_31
REMARK   14  A    between atoms: C_32  and  O_34
REMARK                            x       y       z     vdW  Elec       q    Type
REMARK                         _______ _______ _______ _____ _____    ______ ____
ROOT
ATOM      1  C   UNL     1       5.279  -3.245  26.630  0.00  0.00    +0.122 C 
ENDROOT
BRANCH   1   2
ATOM      2  C   UNL     1       4.284  -4.137  25.788  0.00  0.00    +0.172 C 
ATOM      3  C   UNL     1       4.020  -5.566  26.314  0.00  0.00    +0.176 C 
ATOM      4  C   UNL     1       5.263  -6.447  26.095  0.00  0.00    +0.177 C 
ATOM      5  C   UNL     1       5.496  -6.546  24.588  0.00  0.00    +0.184 C 
ATOM      6  C   UNL     1       5.612  -5.124  23.964  0.00  0.00    +0.207 C 
ATOM      7  O   UNL     1       4.595  -4.201  24.371  0.00  0.00    -0.356 OA
BRANCH   3   8
ATOM      8  O   UNL     1       3.580  -5.629  27.666  0.00  0.00    -0.387 OA
ATOM      9  H   UNL     1       3.824  -4.792  28.103  0.00  0.00    +0.210 HD
ENDBRANCH   3   8
BRANCH   4  10
ATOM     10  O   UNL     1       6.404  -5.927  26.792  0.00  0.00    -0.386 OA
ATOM     11  H   UNL     1       7.058  -5.576  26.164  0.00  0.00    +0.210 HD
ENDBRANCH   4  10
BRANCH   5  12
ATOM     12  O   UNL     1       4.411  -7.316  24.034  0.00  0.00    -0.386 OA
ATOM     13  H   UNL     1       3.653  -6.704  23.953  0.00  0.00    +0.210 HD
ENDBRANCH   5  12
BRANCH   6  14
ATOM     14  S   UNL     1       5.537  -5.372  22.135  0.00  0.00    -0.131 S 
ATOM     15  C   UNL     1       7.169  -6.077  21.860  0.00  0.00    +0.087 C 
ENDBRANCH   6  14
ENDBRANCH   1   2
BRANCH   1  17
ATOM     16  C   UNL     1       7.477  -2.649  25.618  0.00  0.00    +0.231 C 
ATOM     17  N   UNL     1       6.130  -2.445  25.729  0.00  0.00    -0.307 N 
ATOM     18  H   UNL     1       5.712  -1.913  24.965  0.00  0.00    +0.149 HD
ATOM     19  O   UNL     1       8.118  -3.415  26.347  0.00  0.00    -0.274 OA
BRANCH  16  24
ATOM     20  C   UNL     1      10.067  -1.532  23.104  0.00  0.00    +0.005 C 
ATOM     21  C   UNL     1      10.213  -0.589  24.299  0.00  0.00    +0.088 C 
ATOM     22  N   UNL     1       9.002  -0.735  25.122  0.00  0.00    -0.294 NA
ATOM     23  C   UNL     1       8.242   0.509  25.218  0.00  0.00    +0.105 C 
ATOM     24  C   UNL     1       8.170  -1.817  24.521  0.00  0.00    +0.143 C 
ATOM     25  C   UNL     1       9.159  -2.619  23.687  0.00  0.00    +0.033 C 
BRANCH  20  26
ATOM     26  C   UNL     1       9.424  -0.878  21.861  0.00  0.00    +0.004 C 
BRANCH  26  28
ATOM     27  C   UNL     1       8.437   1.423  21.583  0.00  0.00    +0.004 C 
ATOM     28  C   UNL     1       9.721   0.618  21.726  0.00  0.00    -0.003 C 
ENDBRANCH  26  28
ENDBRANCH  20  26
ENDBRANCH  16  24
ENDBRANCH   1  17
BRANCH   1  29
ATOM     29  C   UNL     1       4.588  -2.337  27.690  0.00  0.00    +0.100 C 
ATOM     30 CL   UNL     1       2.807  -2.274  27.434  0.00  0.00    -0.120 Cl
ATOM     31  C   UNL     1       5.116  -0.907  27.762  0.00  0.00    +0.026 C 
ENDBRANCH   1  29
TORSDOF 10
ENDMDL
MODEL 2
REMARK VINA RESULT:      -5.5      1.450      1.975
REMARK  Name = 
REMARK  14 active torsions:
REMARK  status: ('A' for Active; 'I' for Inactive)
REMARK    1  A    between atoms: C_1  and  C_2
REMARK    2  A    between atoms: C_2  and  C_3
REMARK    3  A    between atoms: C_3  and  C_4
REMARK    4  A    between atoms: C_7  and  C_12
REMARK    5  A    between atoms: N_9  and  C_10
REMARK    6  A    between atoms: N_14  and  C_15
REMARK    7  A    between atoms: C_15  and  C_16
REMARK    8  A    between atoms: C_15  and  C_19
REMARK    9  A    between atoms: C_16  and  C_17
REMARK   10  A    between atoms: C_22  and  S_24
REMARK   11  A    between atoms: S_24  and  C_25
REMARK   12  A    between atoms: C_26  and  O_28
REMARK   13  A    between atoms: C_29  and  O_31
REMARK   14  A    between atoms: C_32  and  O_34
REMARK                            x       y       z     vdW  Elec       q    Type
REMARK                         _______ _______ _______ _____ _____    ______ ____
ROOT
ATOM      1  C   UNL     1       4.857  -3.867  27.026  0.00  0.00    +0.122 C 
ENDROOT
BRANCH   1   2
ATOM      2  C   UNL     1       3.949  -4.364  25.832  0.00  0.00    +0.172 C 
ATOM      3  C   UNL     1       3.419  -5.813  25.920  0.00  0.00    +0.176 C 
ATOM      4  C   UNL     1       4.568  -6.810  25.685  0.00  0.00    +0.177 C 
ATOM      5  C   UNL     1       5.081  -6.592  24.262  0.00  0.00    +0.184 C 
ATOM      6  C   UNL     1       5.485  -5.102  24.055  0.00  0.00    +0.207 C 
ATOM      7  O   UNL     1       4.524  -4.146  24.516  0.00  0.00    -0.356 OA
BRANCH   3   8
ATOM      8  O   UNL     1       2.717  -6.115  27.120  0.00  0.00    -0.387 OA
ATOM      9  H   UNL     1       3.139  -5.626  27.850  0.00  0.00    +0.210 HD
ENDBRANCH   3   8
BRANCH   4  10
ATOM     10  O   UNL     1       5.602  -6.660  26.668  0.00  0.00    -0.386 OA
ATOM     11  H   UNL     1       5.639  -5.743  26.988  0.00  0.00    +0.210 HD
ENDBRANCH   4  10
BRANCH   5  12
ATOM     12  O   UNL     1       4.044  -7.024  23.360  0.00  0.00    -0.386 OA
ATOM     13  H   UNL     1       3.286  -6.423  23.503  0.00  0.00    +0.210 HD
ENDBRANCH   5  12
BRANCH   6  14
ATOM     14  S   UNL     1       5.744  -4.902  22.236  0.00  0.00    -0.131 S 
ATOM     15  C   UNL     1       7.138  -6.017  22.007  0.00  0.00    +0.087 C 
ENDBRANCH   6  14
ENDBRANCH   1   2
BRANCH   1  17
ATOM     16  C   UNL     1       7.246  -3.327  26.565  0.00  0.00    +0.231 C 
ATOM     17  N   UNL     1       5.923  -2.984  26.519  0.00  0.00    -0.307 N 
ATOM     18  H   UNL     1       5.699  -2.225  25.873  0.00  0.00    +0.149 HD
ATOM     19  O   UNL     1       7.674  -4.330  27.148  0.00  0.00    -0.274 OA
BRANCH  16  24
ATOM     20  C   UNL     1       8.593  -0.116  25.101  0.00  0.00    +0.005 C 
ATOM     21  C   UNL     1       8.123  -0.952  23.909  0.00  0.00    +0.088 C 
ATOM     22  N   UNL     1       7.950  -2.333  24.386  0.00  0.00    -0.294 NA
ATOM     23  C   UNL     1       8.839  -3.271  23.706  0.00  0.00    +0.105 C 
ATOM     24  C   UNL     1       8.196  -2.343  25.857  0.00  0.00    +0.143 C 
ATOM     25  C   UNL     1       7.987  -0.893  26.272  0.00  0.00    +0.033 C 
BRANCH  20  26
ATOM     26  C   UNL     1      10.129  -0.017  25.235  0.00  0.00    +0.004 C 
BRANCH  26  28
ATOM     27  C   UNL     1       9.987   2.232  24.109  0.00  0.00    +0.004 C 
ATOM     28  C   UNL     1      10.778   0.937  24.228  0.00  0.00    -0.003 C 
ENDBRANCH  26  28
ENDBRANCH  20  26
ENDBRANCH  16  24
ENDBRANCH   1  17
BRANCH   1  29
ATOM     29  C   UNL     1       4.075  -3.182  28.185  0.00  0.00    +0.100 C 
ATOM     30 CL   UNL     1       4.565  -1.460  28.376  0.00  0.00    -0.120 Cl
ATOM     31  C   UNL     1       4.193  -3.869  29.542  0.00  0.00    +0.026 C 
ENDBRANCH   1  29
TORSDOF 10
ENDMDL
MODEL 3
REMARK VINA RESULT:      -5.5      3.706      6.834
REMARK  Name = 
REMARK  14 active torsions:
REMARK  status: ('A' for Active; 'I' for Inactive)
REMARK    1  A    between atoms: C_1  and  C_2
REMARK    2  A    between atoms: C_2  and  C_3
REMARK    3  A    between atoms: C_3  and  C_4
REMARK    4  A    between atoms: C_7  and  C_12
REMARK    5  A    between atoms: N_9  and  C_10
REMARK    6  A    between atoms: N_14  and  C_15
REMARK    7  A    between atoms: C_15  and  C_16
REMARK    8  A    between atoms: C_15  and  C_19
REMARK    9  A    between atoms: C_16  and  C_17
REMARK   10  A    between atoms: C_22  and  S_24
REMARK   11  A    between atoms: S_24  and  C_25
REMARK   12  A    between atoms: C_26  and  O_28
REMARK   13  A    between atoms: C_29  and  O_31
REMARK   14  A    between atoms: C_32  and  O_34
REMARK                            x       y       z     vdW  Elec       q    Type
REMARK                         _______ _______ _______ _____ _____    ______ ____
ROOT
ATOM      1  C   UNL     1       7.294   1.788  25.608  0.00  0.00    +0.122 C 
ENDROOT
BRANCH   1   2
ATOM      2  C   UNL     1       8.644   2.144  24.869  0.00  0.00    +0.172 C 
ATOM      3  C   UNL     1       8.569   3.232  23.775  0.00  0.00    +0.176 C 
ATOM      4  C   UNL     1       7.839   2.684  22.536  0.00  0.00    +0.177 C 
ATOM      5  C   UNL     1       8.674   1.531  21.983  0.00  0.00    +0.184 C 
ATOM      6  C   UNL     1       8.926   0.465  23.091  0.00  0.00    +0.207 C 
ATOM      7  O   UNL     1       9.361   0.993  24.349  0.00  0.00    -0.356 OA
BRANCH   3   8
ATOM      8  O   UNL     1       8.000   4.464  24.201  0.00  0.00    -0.387 OA
ATOM      9  H   UNL     1       8.303   4.641  25.110  0.00  0.00    +0.210 HD
ENDBRANCH   3   8
BRANCH   4  10
ATOM     10  O   UNL     1       6.497   2.286  22.851  0.00  0.00    -0.386 OA
ATOM     11  H   UNL     1       6.077   2.935  23.440  0.00  0.00    +0.210 HD
ENDBRANCH   4  10
BRANCH   5  12
ATOM     12  O   UNL     1       9.892   2.093  21.458  0.00  0.00    -0.386 OA
ATOM     13  H   UNL     1       9.679   3.009  21.188  0.00  0.00    +0.210 HD
ENDBRANCH   5  12
BRANCH   6  14
ATOM     14  S   UNL     1      10.214  -0.672  22.410  0.00  0.00    -0.131 S 
ATOM     15  C   UNL     1       9.916  -2.116  23.442  0.00  0.00    +0.087 C 
ENDBRANCH   6  14
ENDBRANCH   1   2
BRANCH   1  17
ATOM     16  C   UNL     1       5.857  -0.187  25.111  0.00  0.00    +0.231 C 
ATOM     17  N   UNL     1       7.046   0.336  25.538  0.00  0.00    -0.307 N 
ATOM     18  H   UNL     1       7.828  -0.320  25.537  0.00  0.00    +0.149 HD
ATOM     19  O   UNL     1       4.853   0.495  24.877  0.00  0.00    -0.274 OA
BRANCH  16  24
ATOM     20  C   UNL     1       5.459  -3.609  23.561  0.00  0.00    +0.005 C 
ATOM     21  C   UNL     1       4.215  -3.396  24.425  0.00  0.00    +0.088 C 
ATOM     22  N   UNL     1       4.498  -2.269  25.329  0.00  0.00    -0.294 NA
ATOM     23  C   UNL     1       4.461  -2.663  26.735  0.00  0.00    +0.105 C 
ATOM     24  C   UNL     1       5.837  -1.721  24.968  0.00  0.00    +0.143 C 
ATOM     25  C   UNL     1       6.056  -2.199  23.539  0.00  0.00    +0.033 C 
BRANCH  20  26
ATOM     26  C   UNL     1       6.463  -4.629  24.142  0.00  0.00    +0.004 C 
BRANCH  26  28
ATOM     27  C   UNL     1       6.711  -5.587  21.825  0.00  0.00    +0.004 C 
ATOM     28  C   UNL     1       7.436  -5.200  23.107  0.00  0.00    -0.003 C 
ENDBRANCH  26  28
ENDBRANCH  20  26
ENDBRANCH  16  24
ENDBRANCH   1  17
BRANCH   1  29
ATOM     29  C   UNL     1       7.214   2.293  27.079  0.00  0.00    +0.100 C 
ATOM     30 CL   UNL     1       7.199   0.918  28.242  0.00  0.00    -0.120 Cl
ATOM     31  C   UNL     1       6.027   3.200  27.389  0.00  0.00    +0.026 C 
ENDBRANCH   1  29
TORSDOF 10
ENDMDL
MODEL 4
REMARK VINA RESULT:      -5.5      4.216      7.665
REMARK  Name = 
REMARK  14 active torsions:
REMARK  status: ('A' for Active; 'I' for Inactive)
REMARK    1  A    between atoms: C_1  and  C_2
REMARK    2  A    between atoms: C_2  and  C_3
REMARK    3  A    between atoms: C_3  and  C_4
REMARK    4  A    between atoms: C_7  and  C_12
REMARK    5  A    between atoms: N_9  and  C_10
REMARK    6  A    between atoms: N_14  and  C_15
REMARK    7  A    between atoms: C_15  and  C_16
REMARK    8  A    between atoms: C_15  and  C_19
REMARK    9  A    between atoms: C_16  and  C_17
REMARK   10  A    between atoms: C_22  and  S_24
REMARK   11  A    between atoms: S_24  and  C_25
REMARK   12  A    between atoms: C_26  and  O_28
REMARK   13  A    between atoms: C_29  and  O_31
REMARK   14  A    between atoms: C_32  and  O_34
REMARK                            x       y       z     vdW  Elec       q    Type
REMARK                         _______ _______ _______ _____ _____    ______ ____
ROOT
ATOM      1  C   UNL     1       8.498   0.284  23.372  0.00  0.00    +0.122 C 
ENDROOT
BRANCH   1   2
ATOM      2  C   UNL     1       7.940   1.206  22.216  0.00  0.00    +0.172 C 
ATOM      3  C   UNL     1       8.714   2.514  21.939  0.00  0.00    +0.176 C 
ATOM      4  C   UNL     1       8.480   3.517  23.082  0.00  0.00    +0.177 C 
ATOM      5  C   UNL     1       6.991   3.857  23.099  0.00  0.00    +0.184 C 
ATOM      6  C   UNL     1       6.141   2.557  23.216  0.00  0.00    +0.207 C 
ATOM      7  O   UNL     1       6.523   1.503  22.324  0.00  0.00    -0.356 OA
BRANCH   3   8
ATOM      8  O   UNL     1      10.103   2.339  21.686  0.00  0.00    -0.387 OA
ATOM      9  H   UNL     1      10.564   3.157  21.949  0.00  0.00    +0.210 HD
ENDBRANCH   3   8
BRANCH   4  10
ATOM     10  O   UNL     1       8.937   2.996  24.339  0.00  0.00    -0.386 OA
ATOM     11  H   UNL     1       8.643   2.077  24.455  0.00  0.00    +0.210 HD
ENDBRANCH   4  10
BRANCH   5  12
ATOM     12  O   UNL     1       6.707   4.608  21.903  0.00  0.00    -0.386 OA
ATOM     13  H   UNL     1       7.128   5.483  22.020  0.00  0.00    +0.210 HD
ENDBRANCH   5  12
BRANCH   6  14
ATOM     14  S   UNL     1       4.398   3.066  22.874  0.00  0.00    -0.131 S 
ATOM     15  C   UNL     1       3.875   3.487  24.544  0.00  0.00    +0.087 C 
ENDBRANCH   6  14
ENDBRANCH   1   2
BRANCH   1  17
ATOM     16  C   UNL     1       7.241  -1.544  24.507  0.00  0.00    +0.231 C 
ATOM     17  N   UNL     1       7.790  -1.010  23.375  0.00  0.00    -0.307 N 
ATOM     18  H   UNL     1       7.445  -1.410  22.501  0.00  0.00    +0.149 HD
ATOM     19  O   UNL     1       7.401  -1.070  25.637  0.00  0.00    -0.274 OA
BRANCH  16  24
ATOM     20  C   UNL     1       4.573  -3.875  23.195  0.00  0.00    +0.005 C 
ATOM     21  C   UNL     1       4.150  -3.520  24.621  0.00  0.00    +0.088 C 
ATOM     22  N   UNL     1       5.323  -2.937  25.292  0.00  0.00    -0.294 NA
ATOM     23  C   UNL     1       5.755  -3.727  26.443  0.00  0.00    +0.105 C 
ATOM     24  C   UNL     1       6.418  -2.828  24.285  0.00  0.00    +0.143 C 
ATOM     25  C   UNL     1       5.689  -2.857  22.949  0.00  0.00    +0.033 C 
BRANCH  20  26
ATOM     26  C   UNL     1       5.094  -5.320  23.034  0.00  0.00    +0.004 C 
BRANCH  26  28
ATOM     27  C   UNL     1       7.257  -6.097  22.004  0.00  0.00    +0.004 C 
ATOM     28  C   UNL     1       5.860  -5.561  21.730  0.00  0.00    -0.003 C 
ENDBRANCH  26  28
ENDBRANCH  20  26
ENDBRANCH  16  24
ENDBRANCH   1  17
BRANCH   1  29
ATOM     29  C   UNL     1      10.040   0.071  23.335  0.00  0.00    +0.100 C 
ATOM     30 CL   UNL     1      10.462  -1.533  22.633  0.00  0.00    -0.120 Cl
ATOM     31  C   UNL     1      10.745   0.207  24.681  0.00  0.00    +0.026 C 
ENDBRANCH   1  29
TORSDOF 10
ENDMDL
MODEL 5
REMARK VINA RESULT:      -5.5      2.613      3.901
REMARK  Name = 
REMARK  14 active torsions:
REMARK  status: ('A' for Active; 'I' for Inactive)
REMARK    1  A    between atoms: C_1  and  C_2
REMARK    2  A    between atoms: C_2  and  C_3
REMARK    3  A    between atoms: C_3  and  C_4
REMARK    4  A    between atoms: C_7  and  C_12
REMARK    5  A    between atoms: N_9  and  C_10
REMARK    6  A    between atoms: N_14  and  C_15
REMARK    7  A    between atoms: C_15  and  C_16
REMARK    8  A    between atoms: C_15  and  C_19
REMARK    9  A    between atoms: C_16  and  C_17
REMARK   10  A    between atoms: C_22  and  S_24
REMARK   11  A    between atoms: S_24  and  C_25
REMARK   12  A    between atoms: C_26  and  O_28
REMARK   13  A    between atoms: C_29  and  O_31
REMARK   14  A    between atoms: C_32  and  O_34
REMARK                            x       y       z     vdW  Elec       q    Type
REMARK                         _______ _______ _______ _____ _____    ______ ____
ROOT
ATOM      1  C   UNL     1       8.083  -4.297  23.672  0.00  0.00    +0.122 C 
ENDROOT
BRANCH   1   2
ATOM      2  C   UNL     1       6.888  -4.916  22.845  0.00  0.00    +0.172 C 
ATOM      3  C   UNL     1       5.856  -3.922  22.268  0.00  0.00    +0.176 C 
ATOM      4  C   UNL     1       4.992  -3.341  23.402  0.00  0.00    +0.177 C 
ATOM      5  C   UNL     1       4.217  -4.499  24.029  0.00  0.00    +0.184 C 
ATOM      6  C   UNL     1       5.197  -5.619  24.491  0.00  0.00    +0.207 C 
ATOM      7  O   UNL     1       6.187  -5.991  23.525  0.00  0.00    -0.356 OA
BRANCH   3   8
ATOM      8  O   UNL     1       6.413  -2.886  21.467  0.00  0.00    -0.387 OA
ATOM      9  H   UNL     1       6.407  -2.063  21.989  0.00  0.00    +0.210 HD
ENDBRANCH   3   8
BRANCH   4  10
ATOM     10  O   UNL     1       5.792  -2.636  24.362  0.00  0.00    -0.386 OA
ATOM     11  H   UNL     1       5.379  -2.668  25.241  0.00  0.00    +0.210 HD
ENDBRANCH   4  10
BRANCH   5  12
ATOM     12  O   UNL     1       3.262  -4.957  23.052  0.00  0.00    -0.386 OA
ATOM     13  H   UNL     1       2.390  -4.948  23.495  0.00  0.00    +0.210 HD
ENDBRANCH   5  12
BRANCH   6  14
ATOM     14  S   UNL     1       4.137  -7.077  24.894  0.00  0.00    -0.131 S 
ATOM     15  C   UNL     1       3.318  -6.454  26.371  0.00  0.00    +0.087 C 
ENDBRANCH   6  14
ENDBRANCH   1   2
BRANCH   1  17
ATOM     16  C   UNL     1       9.210  -2.121  23.214  0.00  0.00    +0.231 C 
ATOM     17  N   UNL     1       8.085  -2.828  23.538  0.00  0.00    -0.307 N 
ATOM     18  H   UNL     1       7.208  -2.322  23.408  0.00  0.00    +0.149 HD
ATOM     19  O   UNL     1      10.337  -2.622  23.139  0.00  0.00    -0.274 OA
BRANCH  16  24
ATOM     20  C   UNL     1       9.661   1.371  21.845  0.00  0.00    +0.005 C 
ATOM     21  C   UNL     1      10.247   1.399  23.258  0.00  0.00    +0.088 C 
ATOM     22  N   UNL     1       9.761   0.198  23.956  0.00  0.00    -0.294 NA
ATOM     23  C   UNL     1       8.944   0.527  25.122  0.00  0.00    +0.105 C 
ATOM     24  C   UNL     1       8.983  -0.615  22.978  0.00  0.00    +0.143 C 
ATOM     25  C   UNL     1       9.482  -0.133  21.623  0.00  0.00    +0.033 C 
BRANCH  20  26
ATOM     26  C   UNL     1       8.316   2.117  21.706  0.00  0.00    +0.004 C 
BRANCH  26  28
ATOM     27  C   UNL     1       7.109   4.264  22.238  0.00  0.00    +0.004 C 
ATOM     28  C   UNL     1       8.123   3.241  22.729  0.00  0.00    -0.003 C 
ENDBRANCH  26  28
ENDBRANCH  20  26
ENDBRANCH  16  24
ENDBRANCH   1  17
BRANCH   1  29
ATOM     29  C   UNL     1       8.112  -4.716  25.171  0.00  0.00    +0.100 C 
ATOM     30 CL   UNL     1       8.123  -3.276  26.252  0.00  0.00    -0.120 Cl
ATOM     31  C   UNL     1       9.271  -5.625  25.568  0.00  0.00    +0.026 C 
ENDBRANCH   1  29
TORSDOF 10
ENDMDL
MODEL 6
REMARK VINA RESULT:      -5.2      2.721      4.328
REMARK  Name = 
REMARK  14 active torsions:
REMARK  status: ('A' for Active; 'I' for Inactive)
REMARK    1  A    between atoms: C_1  and  C_2
REMARK    2  A    between atoms: C_2  and  C_3
REMARK    3  A    between atoms: C_3  and  C_4
REMARK    4  A    between atoms: C_7  and  C_12
REMARK    5  A    between atoms: N_9  and  C_10
REMARK    6  A    between atoms: N_14  and  C_15
REMARK    7  A    between atoms: C_15  and  C_16
REMARK    8  A    between atoms: C_15  and  C_19
REMARK    9  A    between atoms: C_16  and  C_17
REMARK   10  A    between atoms: C_22  and  S_24
REMARK   11  A    between atoms: S_24  and  C_25
REMARK   12  A    between atoms: C_26  and  O_28
REMARK   13  A    between atoms: C_29  and  O_31
REMARK   14  A    between atoms: C_32  and  O_34
REMARK                            x       y       z     vdW  Elec       q    Type
REMARK                         _______ _______ _______ _____ _____    ______ ____
ROOT
ATOM      1  C   UNL     1       6.705  -3.798  24.708  0.00  0.00    +0.122 C 
ENDROOT
BRANCH   1   2
ATOM      2  C   UNL     1       6.317  -3.669  26.234  0.00  0.00    +0.172 C 
ATOM      3  C   UNL     1       4.892  -4.119  26.628  0.00  0.00    +0.176 C 
ATOM      4  C   UNL     1       3.856  -3.107  26.105  0.00  0.00    +0.177 C 
ATOM      5  C   UNL     1       4.127  -1.773  26.799  0.00  0.00    +0.184 C 
ATOM      6  C   UNL     1       5.605  -1.337  26.575  0.00  0.00    +0.207 C 
ATOM      7  O   UNL     1       6.579  -2.361  26.808  0.00  0.00    -0.356 OA
BRANCH   3   8
ATOM      8  O   UNL     1       4.557  -5.444  26.231  0.00  0.00    -0.387 OA
ATOM      9  H   UNL     1       5.026  -6.064  26.820  0.00  0.00    +0.210 HD
ENDBRANCH   3   8
BRANCH   4  10
ATOM     10  O   UNL     1       3.904  -2.999  24.675  0.00  0.00    -0.386 OA
ATOM     11  H   UNL     1       3.666  -3.845  24.260  0.00  0.00    +0.210 HD
ENDBRANCH   4  10
BRANCH   5  12
ATOM     12  O   UNL     1       3.794  -1.936  28.191  0.00  0.00    -0.386 OA
ATOM     13  H   UNL     1       4.613  -1.754  28.694  0.00  0.00    +0.210 HD
ENDBRANCH   5  12
BRANCH   6  14
ATOM     14  S   UNL     1       5.892   0.074  27.733  0.00  0.00    -0.131 S 
ATOM     15  C   UNL     1       5.215   1.417  26.744  0.00  0.00    +0.087 C 
ENDBRANCH   6  14
ENDBRANCH   1   2
BRANCH   1  17
ATOM     16  C   UNL     1       7.183  -1.736  23.391  0.00  0.00    +0.231 C 
ATOM     17  N   UNL     1       7.571  -2.673  24.309  0.00  0.00    -0.307 N 
ATOM     18  H   UNL     1       8.360  -2.397  24.896  0.00  0.00    +0.149 HD
ATOM     19  O   UNL     1       6.146  -1.819  22.723  0.00  0.00    -0.274 OA
BRANCH  16  24
ATOM     20  C   UNL     1      10.167   0.261  22.217  0.00  0.00    +0.005 C 
ATOM     21  C   UNL     1      10.475  -0.138  23.661  0.00  0.00    +0.088 C 
ATOM     22  N   UNL     1       9.210  -0.577  24.273  0.00  0.00    -0.294 NA
ATOM     23  C   UNL     1       8.819   0.262  25.403  0.00  0.00    +0.105 C 
ATOM     24  C   UNL     1       8.161  -0.559  23.213  0.00  0.00    +0.143 C 
ATOM     25  C   UNL     1       8.952  -0.620  21.914  0.00  0.00    +0.033 C 
BRANCH  20  26
ATOM     26  C   UNL     1       9.828   1.757  22.036  0.00  0.00    +0.004 C 
BRANCH  26  28
ATOM     27  C   UNL     1       9.449   3.544  23.770  0.00  0.00    +0.004 C 
ATOM     28  C   UNL     1      10.484   2.670  23.075  0.00  0.00    -0.003 C 
ENDBRANCH  26  28
ENDBRANCH  20  26
ENDBRANCH  16  24
ENDBRANCH   1  17
BRANCH   1  29
ATOM     29  C   UNL     1       7.353  -5.160  24.323  0.00  0.00    +0.100 C 
ATOM     30 CL   UNL     1       9.028  -5.293  24.971  0.00  0.00    -0.120 Cl
ATOM     31  C   UNL     1       7.390  -5.460  22.827  0.00  0.00    +0.026 C 
ENDBRANCH   1  29
TORSDOF 10
ENDMDL
MODEL 7
REMARK VINA RESULT:      -5.2      4.754      7.799
REMARK  Name = 
REMARK  14 active torsions:
REMARK  status: ('A' for Active; 'I' for Inactive)
REMARK    1  A    between atoms: C_1  and  C_2
REMARK    2  A    between atoms: C_2  and  C_3
REMARK    3  A    between atoms: C_3  and  C_4
REMARK    4  A    between atoms: C_7  and  C_12
REMARK    5  A    between atoms: N_9  and  C_10
REMARK    6  A    between atoms: N_14  and  C_15
REMARK    7  A    between atoms: C_15  and  C_16
REMARK    8  A    between atoms: C_15  and  C_19
REMARK    9  A    between atoms: C_16  and  C_17
REMARK   10  A    between atoms: C_22  and  S_24
REMARK   11  A    between atoms: S_24  and  C_25
REMARK   12  A    between atoms: C_26  and  O_28
REMARK   13  A    between atoms: C_29  and  O_31
REMARK   14  A    between atoms: C_32  and  O_34
REMARK                            x       y       z     vdW  Elec       q    Type
REMARK                         _______ _______ _______ _____ _____    ______ ____
ROOT
ATOM      1  C   UNL     1       8.708   1.760  24.139  0.00  0.00    +0.122 C 
ENDROOT
BRANCH   1   2
ATOM      2  C   UNL     1       7.491   2.722  24.437  0.00  0.00    +0.172 C 
ATOM      3  C   UNL     1       6.141   2.358  23.779  0.00  0.00    +0.176 C 
ATOM      4  C   UNL     1       6.203   2.629  22.265  0.00  0.00    +0.177 C 
ATOM      5  C   UNL     1       6.418   4.129  22.075  0.00  0.00    +0.184 C 
ATOM      6  C   UNL     1       7.684   4.597  22.853  0.00  0.00    +0.207 C 
ATOM      7  O   UNL     1       7.771   4.128  24.203  0.00  0.00    -0.356 OA
BRANCH   3   8
ATOM      8  O   UNL     1       5.690   1.035  24.044  0.00  0.00    -0.387 OA
ATOM      9  H   UNL     1       6.217   0.420  23.501  0.00  0.00    +0.210 HD
ENDBRANCH   3   8
BRANCH   4  10
ATOM     10  O   UNL     1       7.225   1.845  21.633  0.00  0.00    -0.386 OA
ATOM     11  H   UNL     1       7.595   2.319  20.869  0.00  0.00    +0.210 HD
ENDBRANCH   4  10
BRANCH   5  12
ATOM     12  O   UNL     1       5.215   4.795  22.508  0.00  0.00    -0.386 OA
ATOM     13  H   UNL     1       5.498   5.506  23.117  0.00  0.00    +0.210 HD
ENDBRANCH   5  12
BRANCH   6  14
ATOM     14  S   UNL     1       7.630   6.444  22.834  0.00  0.00    -0.131 S 
ATOM     15  C   UNL     1       7.402   6.756  24.591  0.00  0.00    +0.087 C 
ENDBRANCH   6  14
ENDBRANCH   1   2
BRANCH   1  17
ATOM     16  C   UNL     1       8.638  -0.703  24.511  0.00  0.00    +0.231 C 
ATOM     17  N   UNL     1       8.218   0.405  23.828  0.00  0.00    -0.307 N 
ATOM     18  H   UNL     1       7.358   0.278  23.293  0.00  0.00    +0.149 HD
ATOM     19  O   UNL     1       9.551  -0.690  25.344  0.00  0.00    -0.274 OA
BRANCH  16  24
ATOM     20  C   UNL     1       7.047  -3.418  22.420  0.00  0.00    +0.005 C 
ATOM     21  C   UNL     1       5.888  -2.609  23.004  0.00  0.00    +0.088 C 
ATOM     22  N   UNL     1       6.432  -1.798  24.106  0.00  0.00    -0.294 NA
ATOM     23  C   UNL     1       5.830  -2.135  25.393  0.00  0.00    +0.105 C 
ATOM     24  C   UNL     1       7.908  -2.008  24.141  0.00  0.00    +0.143 C 
ATOM     25  C   UNL     1       8.239  -2.513  22.743  0.00  0.00    +0.033 C 
BRANCH  20  26
ATOM     26  C   UNL     1       7.221  -4.815  23.054  0.00  0.00    +0.004 C 
BRANCH  26  28
ATOM     27  C   UNL     1       6.214  -5.693  20.918  0.00  0.00    +0.004 C 
ATOM     28  C   UNL     1       7.208  -5.962  22.039  0.00  0.00    -0.003 C 
ENDBRANCH  26  28
ENDBRANCH  20  26
ENDBRANCH  16  24
ENDBRANCH   1  17
BRANCH   1  29
ATOM     29  C   UNL     1       9.672   2.270  23.027  0.00  0.00    +0.100 C 
ATOM     30 CL   UNL     1      10.129   0.941  21.900  0.00  0.00    -0.120 Cl
ATOM     31  C   UNL     1      10.948   2.935  23.531  0.00  0.00    +0.026 C 
ENDBRANCH   1  29
TORSDOF 10
ENDMDL
MODEL 8
REMARK VINA RESULT:      -5.2      4.121      7.725
REMARK  Name = 
REMARK  14 active torsions:
REMARK  status: ('A' for Active; 'I' for Inactive)
REMARK    1  A    between atoms: C_1  and  C_2
REMARK    2  A    between atoms: C_2  and  C_3
REMARK    3  A    between atoms: C_3  and  C_4
REMARK    4  A    between atoms: C_7  and  C_12
REMARK    5  A    between atoms: N_9  and  C_10
REMARK    6  A    between atoms: N_14  and  C_15
REMARK    7  A    between atoms: C_15  and  C_16
REMARK    8  A    between atoms: C_15  and  C_19
REMARK    9  A    between atoms: C_16  and  C_17
REMARK   10  A    between atoms: C_22  and  S_24
REMARK   11  A    between atoms: S_24  and  C_25
REMARK   12  A    between atoms: C_26  and  O_28
REMARK   13  A    between atoms: C_29  and  O_31
REMARK   14  A    between atoms: C_32  and  O_34
REMARK                            x       y       z     vdW  Elec       q    Type
REMARK                         _______ _______ _______ _____ _____    ______ ____
ROOT
ATOM      1  C   UNL     1       8.581   0.367  23.702  0.00  0.00    +0.122 C 
ENDROOT
BRANCH   1   2
ATOM      2  C   UNL     1       7.842   1.127  22.530  0.00  0.00    +0.172 C 
ATOM      3  C   UNL     1       8.537   2.390  21.975  0.00  0.00    +0.176 C 
ATOM      4  C   UNL     1       8.447   3.535  23.001  0.00  0.00    +0.177 C 
ATOM      5  C   UNL     1       6.969   3.868  23.190  0.00  0.00    +0.184 C 
ATOM      6  C   UNL     1       6.174   2.591  23.597  0.00  0.00    +0.207 C 
ATOM      7  O   UNL     1       6.448   1.431  22.804  0.00  0.00    -0.356 OA
BRANCH   3   8
ATOM      8  O   UNL     1       9.879   2.190  21.549  0.00  0.00    -0.387 OA
ATOM      9  H   UNL     1      10.354   3.037  21.633  0.00  0.00    +0.210 HD
ENDBRANCH   3   8
BRANCH   4  10
ATOM     10  O   UNL     1       9.091   3.185  24.235  0.00  0.00    -0.386 OA
ATOM     11  H   UNL     1       8.798   3.772  24.952  0.00  0.00    +0.210 HD
ENDBRANCH   4  10
BRANCH   5  12
ATOM     12  O   UNL     1       6.498   4.453  21.961  0.00  0.00    -0.386 OA
ATOM     13  H   UNL     1       6.141   3.718  21.424  0.00  0.00    +0.210 HD
ENDBRANCH   5  12
BRANCH   6  14
ATOM     14  S   UNL     1       4.389   3.043  23.450  0.00  0.00    -0.131 S 
ATOM     15  C   UNL     1       3.869   2.775  25.152  0.00  0.00    +0.087 C 
ENDBRANCH   6  14
ENDBRANCH   1   2
BRANCH   1  17
ATOM     16  C   UNL     1       7.622  -1.180  25.404  0.00  0.00    +0.231 C 
ATOM     17  N   UNL     1       7.812  -0.827  24.096  0.00  0.00    -0.307 N 
ATOM     18  H   UNL     1       7.171  -1.268  23.435  0.00  0.00    +0.149 HD
ATOM     19  O   UNL     1       8.179  -0.619  26.354  0.00  0.00    -0.274 OA
BRANCH  16  24
ATOM     20  C   UNL     1       5.710  -4.371  24.740  0.00  0.00    +0.005 C 
ATOM     21  C   UNL     1       4.697  -3.237  24.578  0.00  0.00    +0.088 C 
ATOM     22  N   UNL     1       5.286  -2.034  25.188  0.00  0.00    -0.294 NA
ATOM     23  C   UNL     1       4.498  -1.539  26.314  0.00  0.00    +0.105 C 
ATOM     24  C   UNL     1       6.672  -2.374  25.621  0.00  0.00    +0.143 C 
ATOM     25  C   UNL     1       7.028  -3.593  24.782  0.00  0.00    +0.033 C 
BRANCH  20  26
ATOM     26  C   UNL     1       5.518  -5.209  26.023  0.00  0.00    +0.004 C 
BRANCH  26  28
ATOM     27  C   UNL     1       4.582  -6.792  24.301  0.00  0.00    +0.004 C 
ATOM     28  C   UNL     1       4.907  -6.591  25.774  0.00  0.00    -0.003 C 
ENDBRANCH  26  28
ENDBRANCH  20  26
ENDBRANCH  16  24
ENDBRANCH   1  17
BRANCH   1  29
ATOM     29  C   UNL     1      10.061  -0.004  23.393  0.00  0.00    +0.100 C 
ATOM     30 CL   UNL     1      10.229  -1.755  23.009  0.00  0.00    -0.120 Cl
ATOM     31  C   UNL     1      11.060   0.346  24.491  0.00  0.00    +0.026 C 
ENDBRANCH   1  29
TORSDOF 10
ENDMDL
MODEL 9
REMARK VINA RESULT:      -5.2      3.874      7.097
REMARK  Name = 
REMARK  14 active torsions:
REMARK  status: ('A' for Active; 'I' for Inactive)
REMARK    1  A    between atoms: C_1  and  C_2
REMARK    2  A    between atoms: C_2  and  C_3
REMARK    3  A    between atoms: C_3  and  C_4
REMARK    4  A    between atoms: C_7  and  C_12
REMARK    5  A    between atoms: N_9  and  C_10
REMARK    6  A    between atoms: N_14  and  C_15
REMARK    7  A    between atoms: C_15  and  C_16
REMARK    8  A    between atoms: C_15  and  C_19
REMARK    9  A    between atoms: C_16  and  C_17
REMARK   10  A    between atoms: C_22  and  S_24
REMARK   11  A    between atoms: S_24  and  C_25
REMARK   12  A    between atoms: C_26  and  O_28
REMARK   13  A    between atoms: C_29  and  O_31
REMARK   14  A    between atoms: C_32  and  O_34
REMARK                            x       y       z     vdW  Elec       q    Type
REMARK                         _______ _______ _______ _____ _____    ______ ____
ROOT
ATOM      1  C   UNL     1       8.304  -1.912  23.945  0.00  0.00    +0.122 C 
ENDROOT
BRANCH   1   2
ATOM      2  C   UNL     1       8.103  -1.021  22.656  0.00  0.00    +0.172 C 
ATOM      3  C   UNL     1       9.378  -0.637  21.873  0.00  0.00    +0.176 C 
ATOM      4  C   UNL     1      10.193   0.399  22.669  0.00  0.00    +0.177 C 
ATOM      5  C   UNL     1       9.336   1.657  22.799  0.00  0.00    +0.184 C 
ATOM      6  C   UNL     1       7.959   1.309  23.440  0.00  0.00    +0.207 C 
ATOM      7  O   UNL     1       7.300   0.170  22.875  0.00  0.00    -0.356 OA
BRANCH   3   8
ATOM      8  O   UNL     1      10.190  -1.738  21.485  0.00  0.00    -0.387 OA
ATOM      9  H   UNL     1       9.696  -2.264  20.830  0.00  0.00    +0.210 HD
ENDBRANCH   3   8
BRANCH   4  10
ATOM     10  O   UNL     1      10.600  -0.120  23.942  0.00  0.00    -0.386 OA
ATOM     11  H   UNL     1       9.828  -0.272  24.513  0.00  0.00    +0.210 HD
ENDBRANCH   4  10
BRANCH   5  12
ATOM     12  O   UNL     1       9.213   2.233  21.484  0.00  0.00    -0.386 OA
ATOM     13  H   UNL     1       9.311   3.200  21.597  0.00  0.00    +0.210 HD
ENDBRANCH   5  12
BRANCH   6  14
ATOM     14  S   UNL     1       6.909   2.813  23.219  0.00  0.00    -0.131 S 
ATOM     15  C   UNL     1       7.873   3.995  24.175  0.00  0.00    +0.087 C 
ENDBRANCH   6  14
ENDBRANCH   1   2
BRANCH   1  17
ATOM     16  C   UNL     1       7.826  -0.899  26.172  0.00  0.00    +0.231 C 
ATOM     17  N   UNL     1       7.385  -1.475  25.013  0.00  0.00    -0.307 N 
ATOM     18  H   UNL     1       6.395  -1.330  24.812  0.00  0.00    +0.149 HD
ATOM     19  O   UNL     1       9.019  -0.817  26.487  0.00  0.00    -0.274 OA
BRANCH  16  24
ATOM     20  C   UNL     1       4.398  -0.389  27.676  0.00  0.00    +0.005 C 
ATOM     21  C   UNL     1       4.683   0.869  26.853  0.00  0.00    +0.088 C 
ATOM     22  N   UNL     1       6.127   0.886  26.568  0.00  0.00    -0.294 NA
ATOM     23  C   UNL     1       6.793   2.051  27.146  0.00  0.00    +0.105 C 
ATOM     24  C   UNL     1       6.713  -0.377  27.101  0.00  0.00    +0.143 C 
ATOM     25  C   UNL     1       5.520  -1.318  27.205  0.00  0.00    +0.033 C 
BRANCH  20  26
ATOM     26  C   UNL     1       4.463  -0.169  29.204  0.00  0.00    +0.004 C 
BRANCH  26  28
ATOM     27  C   UNL     1       5.108   1.902  30.485  0.00  0.00    +0.004 C 
ATOM     28  C   UNL     1       4.029   1.232  29.646  0.00  0.00    -0.003 C 
ENDBRANCH  26  28
ENDBRANCH  20  26
ENDBRANCH  16  24
ENDBRANCH   1  17
BRANCH   1  29
ATOM     29  C   UNL     1       8.173  -3.443  23.695  0.00  0.00    +0.100 C 
ATOM     30 CL   UNL     1       7.171  -3.783  22.237  0.00  0.00    -0.120 Cl
ATOM     31  C   UNL     1       7.610  -4.246  24.863  0.00  0.00    +0.026 C 
ENDBRANCH   1  29
TORSDOF 10
ENDMDL
