MODEL 1
REMARK VINA RESULT:      -5.0      0.000      0.000
REMARK  Name = 
REMARK  7 active torsions:
REMARK  status: ('A' for Active; 'I' for Inactive)
REMARK    1  A    between atoms: N_1  and  CA_2
REMARK    2  A    between atoms: CA_2  and  CB_4
REMARK    3  A    between atoms: CA_2  and  C_11
REMARK    4  A    between atoms: CB_4  and  CG_5
REMARK    5  A    between atoms: CG_5  and  CD_6
REMARK    6  A    between atoms: CD_6  and  NE_7
REMARK    7  A    between atoms: C_11  and  O_12
REMARK                            x       y       z     vdW  Elec       q    Type
REMARK                         _______ _______ _______ _____ _____    ______ ____
ROOT
ATOM      1  CG  ARG A   1       9.722   3.374  23.935  0.00  0.00    +0.039 C 
ENDROOT
BRANCH   1   2
ATOM      2  CB  ARG A   1      10.641   2.359  23.243  0.00  0.00    +0.033 C 
BRANCH   2   3
ATOM      3  CA  ARG A   1      10.028   1.678  22.013  0.00  0.00    +0.161 C 
BRANCH   3   4
ATOM      4  N   ARG A   1       8.713   2.268  21.621  0.00  0.00    -0.318 NA
ATOM      5  H1  ARG A   1       8.754   3.287  21.706  0.00  0.00    +0.119 HD
ATOM      6  H2  ARG A   1       8.595   2.113  20.614  0.00  0.00    +0.119 HD
ENDBRANCH   3   4
BRANCH   3   7
ATOM      7  C   ARG A   1       9.858   0.163  22.235  0.00  0.00    +0.322 C 
ATOM      8  OXT ARG A   1       9.933  -0.403  23.314  0.00  0.00    -0.249 OA
BRANCH   7   9
ATOM      9  O   ARG A   1       9.595  -0.477  21.066  0.00  0.00    -0.480 OA
ATOM     10  H   ARG A   1      10.411  -1.000  20.860  0.00  0.00    +0.295 HD
ENDBRANCH   7   9
ENDBRANCH   3   7
ENDBRANCH   2   3
ENDBRANCH   1   2
BRANCH   1  11
ATOM     11  CD  ARG A   1      10.255   4.796  23.783  0.00  0.00    +0.196 C 
BRANCH  11  12
ATOM     12  NE  ARG A   1      11.573   4.769  23.183  0.00  0.00    -0.276 N 
ATOM     13  HE  ARG A   1      11.851   3.874  22.799  0.00  0.00    +0.258 HD
ATOM     14  CZ  ARG A   1      12.624   5.470  23.662  0.00  0.00    +0.376 C 
ATOM     15  NH2 ARG A   1      12.631   6.372  24.570  0.00  0.00    -0.130 NA
ATOM     16  HH2 ARG A   1      11.684   6.519  24.915  0.00  0.00    +0.306 HD
ATOM     17  NH1 ARG A   1      13.774   5.126  23.056  0.00  0.00    -0.289 N 
ATOM     18 HH11 ARG A   1      14.499   5.782  23.335  0.00  0.00    +0.255 HD
ATOM     19 HH12 ARG A   1      13.694   5.106  22.047  0.00  0.00    +0.255 HD
ENDBRANCH  11  12
ENDBRANCH   1  11
TORSDOF 7
ENDMDL
MODEL 2
REMARK VINA RESULT:      -4.9      8.295      9.543
REMARK  Name = 
REMARK  7 active torsions:
REMARK  status: ('A' for Active; 'I' for Inactive)
REMARK    1  A    between atoms: N_1  and  CA_2
REMARK    2  A    between atoms: CA_2  and  CB_4
REMARK    3  A    between atoms: CA_2  and  C_11
REMARK    4  A    between atoms: CB_4  and  CG_5
REMARK    5  A    between atoms: CG_5  and  CD_6
REMARK    6  A    between atoms: CD_6  and  NE_7
REMARK    7  A    between atoms: C_11  and  O_12
REMARK                            x       y       z     vdW  Elec       q    Type
REMARK                         _______ _______ _______ _____ _____    ______ ____
ROOT
ATOM      1  CG  ARG A   1       9.141  -3.277  24.005  0.00  0.00    +0.039 C 
ENDROOT
BRANCH   1   2
ATOM      2  CB  ARG A   1       8.754  -3.367  25.486  0.00  0.00    +0.033 C 
BRANCH   2   3
ATOM      3  CA  ARG A   1       9.005  -4.738  26.129  0.00  0.00    +0.161 C 
BRANCH   3   4
ATOM      4  N   ARG A   1       9.830  -5.637  25.268  0.00  0.00    -0.318 NA
ATOM      5  H1  ARG A   1       9.224  -6.141  24.615  0.00  0.00    +0.119 HD
ATOM      6  H2  ARG A   1      10.400  -5.040  24.658  0.00  0.00    +0.119 HD
ENDBRANCH   3   4
BRANCH   3   7
ATOM      7  C   ARG A   1       7.683  -5.445  26.479  0.00  0.00    +0.322 C 
ATOM      8  OXT ARG A   1       6.716  -5.539  25.738  0.00  0.00    -0.249 OA
BRANCH   7   9
ATOM      9  O   ARG A   1       7.725  -5.974  27.730  0.00  0.00    -0.480 OA
ATOM     10  H   ARG A   1       8.442  -5.479  28.203  0.00  0.00    +0.295 HD
ENDBRANCH   7   9
ENDBRANCH   3   7
ENDBRANCH   2   3
ENDBRANCH   1   2
BRANCH   1  11
ATOM     11  CD  ARG A   1       7.910  -3.365  23.105  0.00  0.00    +0.196 C 
BRANCH  11  12
ATOM     12  NE  ARG A   1       7.521  -4.749  22.933  0.00  0.00    -0.276 N 
ATOM     13  HE  ARG A   1       8.286  -5.414  22.940  0.00  0.00    +0.258 HD
ATOM     14  CZ  ARG A   1       6.505  -5.143  22.134  0.00  0.00    +0.376 C 
ATOM     15  NH2 ARG A   1       5.630  -4.420  21.544  0.00  0.00    -0.130 NA
ATOM     16  HH2 ARG A   1       5.792  -3.438  21.765  0.00  0.00    +0.306 HD
ATOM     17  NH1 ARG A   1       6.471  -6.480  21.990  0.00  0.00    -0.289 N 
ATOM     18 HH11 ARG A   1       5.609  -6.735  21.515  0.00  0.00    +0.255 HD
ATOM     19 HH12 ARG A   1       6.539  -6.970  22.873  0.00  0.00    +0.255 HD
ENDBRANCH  11  12
ENDBRANCH   1  11
TORSDOF 7
ENDMDL
MODEL 3
REMARK VINA RESULT:      -4.9      5.037      7.303
REMARK  Name = 
REMARK  7 active torsions:
REMARK  status: ('A' for Active; 'I' for Inactive)
REMARK    1  A    between atoms: N_1  and  CA_2
REMARK    2  A    between atoms: CA_2  and  CB_4
REMARK    3  A    between atoms: CA_2  and  C_11
REMARK    4  A    between atoms: CB_4  and  CG_5
REMARK    5  A    between atoms: CG_5  and  CD_6
REMARK    6  A    between atoms: CD_6  and  NE_7
REMARK    7  A    between atoms: C_11  and  O_12
REMARK                            x       y       z     vdW  Elec       q    Type
REMARK                         _______ _______ _______ _____ _____    ______ ____
ROOT
ATOM      1  CG  ARG A   1       9.306  -1.538  24.744  0.00  0.00    +0.039 C 
ENDROOT
BRANCH   1   2
ATOM      2  CB  ARG A   1      10.235  -0.621  23.939  0.00  0.00    +0.033 C 
BRANCH   2   3
ATOM      3  CA  ARG A   1       9.557   0.108  22.772  0.00  0.00    +0.161 C 
BRANCH   3   4
ATOM      4  N   ARG A   1       9.798  -0.558  21.457  0.00  0.00    -0.318 NA
ATOM      5  H1  ARG A   1      10.284   0.087  20.827  0.00  0.00    +0.119 HD
ATOM      6  H2  ARG A   1      10.482  -1.306  21.612  0.00  0.00    +0.119 HD
ENDBRANCH   3   4
BRANCH   3   7
ATOM      7  C   ARG A   1      10.011   1.577  22.687  0.00  0.00    +0.322 C 
ATOM      8  OXT ARG A   1      10.439   2.238  23.621  0.00  0.00    -0.249 OA
BRANCH   7   9
ATOM      9  O   ARG A   1       9.890   2.056  21.421  0.00  0.00    -0.480 OA
ATOM     10  H   ARG A   1       9.912   3.042  21.507  0.00  0.00    +0.295 HD
ENDBRANCH   7   9
ENDBRANCH   3   7
ENDBRANCH   2   3
ENDBRANCH   1   2
BRANCH   1  11
ATOM     11  CD  ARG A   1       9.412  -2.986  24.271  0.00  0.00    +0.196 C 
BRANCH  11  12
ATOM     12  NE  ARG A   1       8.674  -3.854  25.165  0.00  0.00    -0.276 N 
ATOM     13  HE  ARG A   1       8.042  -3.379  25.798  0.00  0.00    +0.258 HD
ATOM     14  CZ  ARG A   1       9.189  -4.981  25.703  0.00  0.00    +0.376 C 
ATOM     15  NH2 ARG A   1      10.291  -5.566  25.420  0.00  0.00    -0.130 NA
ATOM     16  HH2 ARG A   1      10.773  -5.053  24.683  0.00  0.00    +0.306 HD
ATOM     17  NH1 ARG A   1       8.383  -5.499  26.646  0.00  0.00    -0.289 N 
ATOM     18 HH11 ARG A   1       8.733  -6.418  26.906  0.00  0.00    +0.255 HD
ATOM     19 HH12 ARG A   1       7.420  -5.569  26.342  0.00  0.00    +0.255 HD
ENDBRANCH  11  12
ENDBRANCH   1  11
TORSDOF 7
ENDMDL
MODEL 4
REMARK VINA RESULT:      -4.8      5.496      7.512
REMARK  Name = 
REMARK  7 active torsions:
REMARK  status: ('A' for Active; 'I' for Inactive)
REMARK    1  A    between atoms: N_1  and  CA_2
REMARK    2  A    between atoms: CA_2  and  CB_4
REMARK    3  A    between atoms: CA_2  and  C_11
REMARK    4  A    between atoms: CB_4  and  CG_5
REMARK    5  A    between atoms: CG_5  and  CD_6
REMARK    6  A    between atoms: CD_6  and  NE_7
REMARK    7  A    between atoms: C_11  and  O_12
REMARK                            x       y       z     vdW  Elec       q    Type
REMARK                         _______ _______ _______ _____ _____    ______ ____
ROOT
ATOM      1  CG  ARG A   1       7.494  -1.613  25.521  0.00  0.00    +0.039 C 
ENDROOT
BRANCH   1   2
ATOM      2  CB  ARG A   1       8.865  -0.994  25.221  0.00  0.00    +0.033 C 
BRANCH   2   3
ATOM      3  CA  ARG A   1       9.161  -0.793  23.729  0.00  0.00    +0.161 C 
BRANCH   3   4
ATOM      4  N   ARG A   1       7.922  -0.634  22.910  0.00  0.00    -0.318 NA
ATOM      5  H1  ARG A   1       8.104  -0.931  21.948  0.00  0.00    +0.119 HD
ATOM      6  H2  ARG A   1       7.240  -1.321  23.250  0.00  0.00    +0.119 HD
ENDBRANCH   3   4
BRANCH   3   7
ATOM      7  C   ARG A   1       9.999  -1.954  23.161  0.00  0.00    +0.322 C 
ATOM      8  OXT ARG A   1      10.291  -2.974  23.766  0.00  0.00    -0.249 OA
BRANCH   7   9
ATOM      9  O   ARG A   1      10.371  -1.708  21.878  0.00  0.00    -0.480 OA
ATOM     10  H   ARG A   1      11.001  -0.945  21.925  0.00  0.00    +0.295 HD
ENDBRANCH   7   9
ENDBRANCH   3   7
ENDBRANCH   2   3
ENDBRANCH   1   2
BRANCH   1  11
ATOM     11  CD  ARG A   1       7.618  -2.791  26.485  0.00  0.00    +0.196 C 
BRANCH  11  12
ATOM     12  NE  ARG A   1       8.796  -3.569  26.165  0.00  0.00    -0.276 N 
ATOM     13  HE  ARG A   1       9.264  -3.307  25.305  0.00  0.00    +0.258 HD
ATOM     14  CZ  ARG A   1       8.910  -4.890  26.427  0.00  0.00    +0.376 C 
ATOM     15  NH2 ARG A   1       8.132  -5.634  27.119  0.00  0.00    -0.130 NA
ATOM     16  HH2 ARG A   1       7.360  -5.077  27.483  0.00  0.00    +0.306 HD
ATOM     17  NH1 ARG A   1      10.008  -5.421  25.860  0.00  0.00    -0.289 N 
ATOM     18 HH11 ARG A   1      10.132  -6.367  26.211  0.00  0.00    +0.255 HD
ATOM     19 HH12 ARG A   1      10.842  -4.874  26.034  0.00  0.00    +0.255 HD
ENDBRANCH  11  12
ENDBRANCH   1  11
TORSDOF 7
ENDMDL
MODEL 5
REMARK VINA RESULT:      -4.8      5.650      8.060
REMARK  Name = 
REMARK  7 active torsions:
REMARK  status: ('A' for Active; 'I' for Inactive)
REMARK    1  A    between atoms: N_1  and  CA_2
REMARK    2  A    between atoms: CA_2  and  CB_4
REMARK    3  A    between atoms: CA_2  and  C_11
REMARK    4  A    between atoms: CB_4  and  CG_5
REMARK    5  A    between atoms: CG_5  and  CD_6
REMARK    6  A    between atoms: CD_6  and  NE_7
REMARK    7  A    between atoms: C_11  and  O_12
REMARK                            x       y       z     vdW  Elec       q    Type
REMARK                         _______ _______ _______ _____ _____    ______ ____
ROOT
ATOM      1  CG  ARG A   1       6.883  -3.155  23.603  0.00  0.00    +0.039 C 
ENDROOT
BRANCH   1   2
ATOM      2  CB  ARG A   1       7.806  -2.858  22.414  0.00  0.00    +0.033 C 
BRANCH   2   3
ATOM      3  CA  ARG A   1       8.696  -1.621  22.590  0.00  0.00    +0.161 C 
BRANCH   3   4
ATOM      4  N   ARG A   1       9.525  -1.330  21.382  0.00  0.00    -0.318 NA
ATOM      5  H1  ARG A   1       9.652  -0.319  21.286  0.00  0.00    +0.119 HD
ATOM      6  H2  ARG A   1      10.472  -1.677  21.568  0.00  0.00    +0.119 HD
ENDBRANCH   3   4
BRANCH   3   7
ATOM      7  C   ARG A   1       9.618  -1.761  23.815  0.00  0.00    +0.322 C 
ATOM      8  OXT ARG A   1       9.670  -0.977  24.750  0.00  0.00    -0.249 OA
BRANCH   7   9
ATOM      9  O   ARG A   1      10.370  -2.890  23.737  0.00  0.00    -0.480 OA
ATOM     10  H   ARG A   1       9.890  -3.566  24.279  0.00  0.00    +0.295 HD
ENDBRANCH   7   9
ENDBRANCH   3   7
ENDBRANCH   2   3
ENDBRANCH   1   2
BRANCH   1  11
ATOM     11  CD  ARG A   1       7.068  -4.587  24.101  0.00  0.00    +0.196 C 
BRANCH  11  12
ATOM     12  NE  ARG A   1       8.455  -4.815  24.448  0.00  0.00    -0.276 N 
ATOM     13  HE  ARG A   1       9.058  -5.055  23.669  0.00  0.00    +0.258 HD
ATOM     14  CZ  ARG A   1       8.849  -5.401  25.600  0.00  0.00    +0.376 C 
ATOM     15  NH2 ARG A   1       8.141  -5.695  26.625  0.00  0.00    -0.130 NA
ATOM     16  HH2 ARG A   1       7.175  -5.411  26.468  0.00  0.00    +0.306 HD
ATOM     17  NH1 ARG A   1      10.164  -5.678  25.597  0.00  0.00    -0.289 N 
ATOM     18 HH11 ARG A   1      10.439  -5.969  26.532  0.00  0.00    +0.255 HD
ATOM     19 HH12 ARG A   1      10.729  -4.891  25.300  0.00  0.00    +0.255 HD
ENDBRANCH  11  12
ENDBRANCH   1  11
TORSDOF 7
ENDMDL
MODEL 6
REMARK VINA RESULT:      -4.7      3.392      4.501
REMARK  Name = 
REMARK  7 active torsions:
REMARK  status: ('A' for Active; 'I' for Inactive)
REMARK    1  A    between atoms: N_1  and  CA_2
REMARK    2  A    between atoms: CA_2  and  CB_4
REMARK    3  A    between atoms: CA_2  and  C_11
REMARK    4  A    between atoms: CB_4  and  CG_5
REMARK    5  A    between atoms: CG_5  and  CD_6
REMARK    6  A    between atoms: CD_6  and  NE_7
REMARK    7  A    between atoms: C_11  and  O_12
REMARK                            x       y       z     vdW  Elec       q    Type
REMARK                         _______ _______ _______ _____ _____    ______ ____
ROOT
ATOM      1  CG  ARG A   1      10.422   0.317  24.840  0.00  0.00    +0.039 C 
ENDROOT
BRANCH   1   2
ATOM      2  CB  ARG A   1       9.514  -0.919  24.878  0.00  0.00    +0.033 C 
BRANCH   2   3
ATOM      3  CA  ARG A   1       9.869  -2.003  23.852  0.00  0.00    +0.161 C 
BRANCH   3   4
ATOM      4  N   ARG A   1       9.364  -1.688  22.482  0.00  0.00    -0.318 NA
ATOM      5  H1  ARG A   1      10.154  -1.596  21.837  0.00  0.00    +0.119 HD
ATOM      6  H2  ARG A   1       8.867  -2.517  22.140  0.00  0.00    +0.119 HD
ENDBRANCH   3   4
BRANCH   3   7
ATOM      7  C   ARG A   1       9.335  -3.382  24.284  0.00  0.00    +0.322 C 
ATOM      8  OXT ARG A   1      10.027  -4.331  24.618  0.00  0.00    -0.249 OA
BRANCH   7   9
ATOM      9  O   ARG A   1       7.977  -3.412  24.261  0.00  0.00    -0.480 OA
ATOM     10  H   ARG A   1       7.730  -3.510  23.306  0.00  0.00    +0.295 HD
ENDBRANCH   7   9
ENDBRANCH   3   7
ENDBRANCH   2   3
ENDBRANCH   1   2
BRANCH   1  11
ATOM     11  CD  ARG A   1       9.627   1.576  24.498  0.00  0.00    +0.196 C 
BRANCH  11  12
ATOM     12  NE  ARG A   1       8.928   1.393  23.243  0.00  0.00    -0.276 N 
ATOM     13  HE  ARG A   1       8.372   0.549  23.180  0.00  0.00    +0.258 HD
ATOM     14  CZ  ARG A   1       9.437   1.761  22.046  0.00  0.00    +0.376 C 
ATOM     15  NH2 ARG A   1      10.486   2.454  21.807  0.00  0.00    -0.130 NA
ATOM     16  HH2 ARG A   1      10.927   2.724  22.685  0.00  0.00    +0.306 HD
ATOM     17  NH1 ARG A   1       8.690   1.309  21.024  0.00  0.00    -0.289 N 
ATOM     18 HH11 ARG A   1       9.021   1.738  20.163  0.00  0.00    +0.255 HD
ATOM     19 HH12 ARG A   1       7.703   1.497  21.148  0.00  0.00    +0.255 HD
ENDBRANCH  11  12
ENDBRANCH   1  11
TORSDOF 7
ENDMDL
MODEL 7
REMARK VINA RESULT:      -4.6      7.892      8.892
REMARK  Name = 
REMARK  7 active torsions:
REMARK  status: ('A' for Active; 'I' for Inactive)
REMARK    1  A    between atoms: N_1  and  CA_2
REMARK    2  A    between atoms: CA_2  and  CB_4
REMARK    3  A    between atoms: CA_2  and  C_11
REMARK    4  A    between atoms: CB_4  and  CG_5
REMARK    5  A    between atoms: CG_5  and  CD_6
REMARK    6  A    between atoms: CD_6  and  NE_7
REMARK    7  A    between atoms: C_11  and  O_12
REMARK                            x       y       z     vdW  Elec       q    Type
REMARK                         _______ _______ _______ _____ _____    ______ ____
ROOT
ATOM      1  CG  ARG A   1       8.390  -2.941  23.069  0.00  0.00    +0.039 C 
ENDROOT
BRANCH   1   2
ATOM      2  CB  ARG A   1       6.919  -3.365  23.174  0.00  0.00    +0.033 C 
BRANCH   2   3
ATOM      3  CA  ARG A   1       6.568  -4.646  22.407  0.00  0.00    +0.161 C 
BRANCH   3   4
ATOM      4  N   ARG A   1       5.845  -4.373  21.128  0.00  0.00    -0.318 NA
ATOM      5  H1  ARG A   1       5.181  -3.607  21.264  0.00  0.00    +0.119 HD
ATOM      6  H2  ARG A   1       6.527  -3.989  20.465  0.00  0.00    +0.119 HD
ENDBRANCH   3   4
BRANCH   3   7
ATOM      7  C   ARG A   1       5.728  -5.606  23.269  0.00  0.00    +0.322 C 
ATOM      8  OXT ARG A   1       5.844  -5.753  24.476  0.00  0.00    -0.249 OA
BRANCH   7   9
ATOM      9  O   ARG A   1       4.816  -6.273  22.515  0.00  0.00    -0.480 OA
ATOM     10  H   ARG A   1       4.305  -5.573  22.036  0.00  0.00    +0.295 HD
ENDBRANCH   7   9
ENDBRANCH   3   7
ENDBRANCH   2   3
ENDBRANCH   1   2
BRANCH   1  11
ATOM     11  CD  ARG A   1       9.090  -3.036  24.423  0.00  0.00    +0.196 C 
BRANCH  11  12
ATOM     12  NE  ARG A   1       8.408  -3.996  25.266  0.00  0.00    -0.276 N 
ATOM     13  HE  ARG A   1       7.782  -3.594  25.954  0.00  0.00    +0.258 HD
ATOM     14  CZ  ARG A   1       8.975  -5.144  25.697  0.00  0.00    +0.376 C 
ATOM     15  NH2 ARG A   1      10.085  -5.667  25.335  0.00  0.00    -0.130 NA
ATOM     16  HH2 ARG A   1      10.526  -5.082  24.627  0.00  0.00    +0.306 HD
ATOM     17  NH1 ARG A   1       8.217  -5.761  26.620  0.00  0.00    -0.289 N 
ATOM     18 HH11 ARG A   1       8.603  -6.685  26.795  0.00  0.00    +0.255 HD
ATOM     19 HH12 ARG A   1       7.247  -5.839  26.340  0.00  0.00    +0.255 HD
ENDBRANCH  11  12
ENDBRANCH   1  11
TORSDOF 7
ENDMDL
MODEL 8
REMARK VINA RESULT:      -4.6      3.226      4.488
REMARK  Name = 
REMARK  7 active torsions:
REMARK  status: ('A' for Active; 'I' for Inactive)
REMARK    1  A    between atoms: N_1  and  CA_2
REMARK    2  A    between atoms: CA_2  and  CB_4
REMARK    3  A    between atoms: CA_2  and  C_11
REMARK    4  A    between atoms: CB_4  and  CG_5
REMARK    5  A    between atoms: CG_5  and  CD_6
REMARK    6  A    between atoms: CD_6  and  NE_7
REMARK    7  A    between atoms: C_11  and  O_12
REMARK                            x       y       z     vdW  Elec       q    Type
REMARK                         _______ _______ _______ _____ _____    ______ ____
ROOT
ATOM      1  CG  ARG A   1       7.431   0.465  24.544  0.00  0.00    +0.039 C 
ENDROOT
BRANCH   1   2
ATOM      2  CB  ARG A   1       7.864  -0.958  24.169  0.00  0.00    +0.033 C 
BRANCH   2   3
ATOM      3  CA  ARG A   1       9.275  -1.339  24.633  0.00  0.00    +0.161 C 
BRANCH   3   4
ATOM      4  N   ARG A   1      10.128  -0.148  24.923  0.00  0.00    -0.318 NA
ATOM      5  H1  ARG A   1      10.636   0.127  24.078  0.00  0.00    +0.119 HD
ATOM      6  H2  ARG A   1       9.501   0.645  25.097  0.00  0.00    +0.119 HD
ENDBRANCH   3   4
BRANCH   3   7
ATOM      7  C   ARG A   1       9.986  -2.232  23.599  0.00  0.00    +0.322 C 
ATOM      8  OXT ARG A   1      10.361  -1.869  22.495  0.00  0.00    -0.249 OA
BRANCH   7   9
ATOM      9  O   ARG A   1      10.160  -3.492  24.077  0.00  0.00    -0.480 OA
ATOM     10  H   ARG A   1       9.337  -3.985  23.832  0.00  0.00    +0.295 HD
ENDBRANCH   7   9
ENDBRANCH   3   7
ENDBRANCH   2   3
ENDBRANCH   1   2
BRANCH   1  11
ATOM     11  CD  ARG A   1       7.317   1.352  23.306  0.00  0.00    +0.196 C 
BRANCH  11  12
ATOM     12  NE  ARG A   1       8.604   1.943  23.002  0.00  0.00    -0.276 N 
ATOM     13  HE  ARG A   1       8.686   2.929  23.220  0.00  0.00    +0.258 HD
ATOM     14  CZ  ARG A   1       9.351   1.592  21.932  0.00  0.00    +0.376 C 
ATOM     15  NH2 ARG A   1       9.173   0.615  21.124  0.00  0.00    -0.130 NA
ATOM     16  HH2 ARG A   1       8.347   0.087  21.401  0.00  0.00    +0.306 HD
ATOM     17  NH1 ARG A   1      10.398   2.416  21.760  0.00  0.00    -0.289 N 
ATOM     18 HH11 ARG A   1      11.010   2.024  21.048  0.00  0.00    +0.255 HD
ATOM     19 HH12 ARG A   1      10.918   2.572  22.615  0.00  0.00    +0.255 HD
ENDBRANCH  11  12
ENDBRANCH   1  11
TORSDOF 7
ENDMDL
MODEL 9
REMARK VINA RESULT:      -4.6      3.548      5.496
REMARK  Name = 
REMARK  7 active torsions:
REMARK  status: ('A' for Active; 'I' for Inactive)
REMARK    1  A    between atoms: N_1  and  CA_2
REMARK    2  A    between atoms: CA_2  and  CB_4
REMARK    3  A    between atoms: CA_2  and  C_11
REMARK    4  A    between atoms: CB_4  and  CG_5
REMARK    5  A    between atoms: CG_5  and  CD_6
REMARK    6  A    between atoms: CD_6  and  NE_7
REMARK    7  A    between atoms: C_11  and  O_12
REMARK                            x       y       z     vdW  Elec       q    Type
REMARK                         _______ _______ _______ _____ _____    ______ ____
ROOT
ATOM      1  CG  ARG A   1       9.527  -0.266  25.336  0.00  0.00    +0.039 C 
ENDROOT
BRANCH   1   2
ATOM      2  CB  ARG A   1      10.425   0.846  24.777  0.00  0.00    +0.033 C 
BRANCH   2   3
ATOM      3  CA  ARG A   1       9.668   2.023  24.150  0.00  0.00    +0.161 C 
BRANCH   3   4
ATOM      4  N   ARG A   1       8.340   1.624  23.593  0.00  0.00    -0.318 NA
ATOM      5  H1  ARG A   1       8.185   2.097  22.699  0.00  0.00    +0.119 HD
ATOM      6  H2  ARG A   1       8.400   0.633  23.336  0.00  0.00    +0.119 HD
ENDBRANCH   3   4
BRANCH   3   7
ATOM      7  C   ARG A   1      10.498   2.701  23.044  0.00  0.00    +0.322 C 
ATOM      8  OXT ARG A   1      11.324   3.582  23.224  0.00  0.00    -0.249 OA
BRANCH   7   9
ATOM      9  O   ARG A   1      10.205   2.182  21.823  0.00  0.00    -0.480 OA
ATOM     10  H   ARG A   1      10.730   2.716  21.174  0.00  0.00    +0.295 HD
ENDBRANCH   7   9
ENDBRANCH   3   7
ENDBRANCH   2   3
ENDBRANCH   1   2
BRANCH   1  11
ATOM     11  CD  ARG A   1       9.676  -1.554  24.530  0.00  0.00    +0.196 C 
BRANCH  11  12
ATOM     12  NE  ARG A   1       9.996  -1.242  23.153  0.00  0.00    -0.276 N 
ATOM     13  HE  ARG A   1      10.545  -0.400  23.020  0.00  0.00    +0.258 HD
ATOM     14  CZ  ARG A   1       9.154  -1.472  22.121  0.00  0.00    +0.376 C 
ATOM     15  NH2 ARG A   1       8.054  -2.126  22.123  0.00  0.00    -0.130 NA
ATOM     16  HH2 ARG A   1       7.871  -2.486  23.059  0.00  0.00    +0.306 HD
ATOM     17  NH1 ARG A   1       9.597  -0.918  20.979  0.00  0.00    -0.289 N 
ATOM     18 HH11 ARG A   1       9.019  -1.247  20.210  0.00  0.00    +0.255 HD
ATOM     19 HH12 ARG A   1      10.571  -1.126  20.795  0.00  0.00    +0.255 HD
ENDBRANCH  11  12
ENDBRANCH   1  11
TORSDOF 7
ENDMDL
