MODEL 1
REMARK VINA RESULT:      -8.2      0.000      0.000
REMARK  Name = 
REMARK  7 active torsions:
REMARK  status: ('A' for Active; 'I' for Inactive)
REMARK    1  A    between atoms: C_2  and  O_3
REMARK    2  A    between atoms: N_5  and  C_6
REMARK    3  A    between atoms: C_6  and  C_7
REMARK    4  A    between atoms: N_9  and  C_10
REMARK    5  A    between atoms: C_14  and  N_17
REMARK    6  A    between atoms: C_25  and  N_27
REMARK    7  A    between atoms: C_28  and  C_30
REMARK                            x       y       z     vdW  Elec       q    Type
REMARK                         _______ _______ _______ _____ _____    ______ ____
ROOT
ATOM      1  C   UNL     1       7.795  -3.643  22.674  0.00  0.00    +0.181 C 
ENDROOT
BRANCH   1   5
ATOM      2  C   UNL     1       6.723  -4.030  25.538  0.00  0.00    +0.150 C 
ATOM      3  C   UNL     1       6.708  -5.505  25.119  0.00  0.00    +0.117 C 
ATOM      4  C   UNL     1       7.836  -5.633  24.074  0.00  0.00    +0.109 C 
ATOM      5  N   UNL     1       8.412  -4.287  23.857  0.00  0.00    -0.290 NA
ATOM      6  C   UNL     1       8.111  -3.562  25.112  0.00  0.00    +0.118 C 
BRANCH   3   7
ATOM      7  N   UNL     1       5.410  -5.906  24.599  0.00  0.00    -0.304 N 
ATOM      8  H   UNL     1       5.170  -5.687  23.640  0.00  0.00    +0.149 HD
ATOM      9  C   UNL     1       4.562  -6.737  25.300  0.00  0.00    +0.251 C 
ATOM     10  O   UNL     1       4.833  -7.117  26.436  0.00  0.00    -0.270 OA
BRANCH   9  11
ATOM     11  C   UNL     1       3.350  -7.136  24.600  0.00  0.00    +0.075 A 
ATOM     12  S   UNL     1       2.823  -6.360  23.159  0.00  0.00    -0.072 S 
ATOM     13  C   UNL     1       1.504  -7.407  23.012  0.00  0.00    +0.079 A 
ATOM     14 CL   UNL     1       0.443  -7.252  21.671  0.00  0.00    -0.076 Cl
ATOM     15  C   UNL     1       1.416  -8.324  24.025  0.00  0.00    +0.028 A 
ATOM     16  C   UNL     1       2.487  -8.162  24.953  0.00  0.00    +0.022 A 
ENDBRANCH   9  11
ENDBRANCH   3   7
BRANCH   2  17
ATOM     17  O   UNL     1       6.488  -3.849  26.928  0.00  0.00    -0.389 OA
ATOM     18  H   UNL     1       5.584  -4.140  27.133  0.00  0.00    +0.210 HD
ENDBRANCH   2  17
ENDBRANCH   1   5
BRANCH   1  19
ATOM     19  C   UNL     1       7.941  -2.121  22.759  0.00  0.00    +0.231 C 
ATOM     20  N   UNL     1       9.250  -1.682  22.714  0.00  0.00    -0.282 N 
ATOM     21  H   UNL     1       9.919  -2.276  22.237  0.00  0.00    +0.155 HD
ATOM     22  O   UNL     1       6.953  -1.395  22.862  0.00  0.00    -0.274 OA
BRANCH  20  23
ATOM     23  C   UNL     1       9.610  -0.333  22.885  0.00  0.00    +0.069 A 
ATOM     24  C   UNL     1       9.660   0.564  21.821  0.00  0.00    +0.028 A 
ATOM     25  C   UNL     1      10.007   1.905  22.049  0.00  0.00    +0.028 A 
ATOM     26  C   UNL     1      10.351   2.374  23.332  0.00  0.00    +0.052 A 
ATOM     27  C   UNL     1      10.309   1.440  24.380  0.00  0.00    +0.066 A 
ATOM     28  C   UNL     1       9.906   0.123  24.161  0.00  0.00    +0.146 A 
ATOM     29  F   UNL     1       9.878  -0.734  25.194  0.00  0.00    -0.203 F 
BRANCH  26  30
ATOM     30  N   UNL     1      10.751   3.757  23.558  0.00  0.00    -0.284 N 
ATOM     31  C   UNL     1       9.804   4.697  24.028  0.00  0.00    +0.256 A 
ATOM     32  O   UNL     1       8.600   4.518  24.204  0.00  0.00    -0.267 OA
ATOM     33  C   UNL     1      10.305   6.072  24.310  0.00  0.00    +0.071 A 
ATOM     34  C   UNL     1      11.569   6.412  24.049  0.00  0.00    +0.007 A 
ATOM     35  C   UNL     1      12.472   5.435  23.514  0.00  0.00    +0.018 A 
ATOM     36  C   UNL     1      12.062   4.178  23.300  0.00  0.00    +0.095 A 
ENDBRANCH  26  30
ENDBRANCH  20  23
ENDBRANCH   1  19
TORSDOF 7
ENDMDL
MODEL 2
REMARK VINA RESULT:      -7.7      3.172      3.733
REMARK  Name = 
REMARK  7 active torsions:
REMARK  status: ('A' for Active; 'I' for Inactive)
REMARK    1  A    between atoms: C_2  and  O_3
REMARK    2  A    between atoms: N_5  and  C_6
REMARK    3  A    between atoms: C_6  and  C_7
REMARK    4  A    between atoms: N_9  and  C_10
REMARK    5  A    between atoms: C_14  and  N_17
REMARK    6  A    between atoms: C_25  and  N_27
REMARK    7  A    between atoms: C_28  and  C_30
REMARK                            x       y       z     vdW  Elec       q    Type
REMARK                         _______ _______ _______ _____ _____    ______ ____
ROOT
ATOM      1  C   UNL     1       8.318  -4.143  23.326  0.00  0.00    +0.181 C 
ENDROOT
BRANCH   1   5
ATOM      2  C   UNL     1       5.656  -5.695  23.269  0.00  0.00    +0.150 C 
ATOM      3  C   UNL     1       5.080  -4.302  22.984  0.00  0.00    +0.117 C 
ATOM      4  C   UNL     1       6.212  -3.543  22.262  0.00  0.00    +0.109 C 
ATOM      5  N   UNL     1       7.394  -4.434  22.205  0.00  0.00    -0.290 NA
ATOM      6  C   UNL     1       6.820  -5.796  22.289  0.00  0.00    +0.118 C 
BRANCH   3   7
ATOM      7  N   UNL     1       4.644  -3.639  24.203  0.00  0.00    -0.304 N 
ATOM      8  H   UNL     1       5.212  -2.899  24.596  0.00  0.00    +0.149 HD
ATOM      9  C   UNL     1       3.394  -3.846  24.746  0.00  0.00    +0.251 C 
ATOM     10  O   UNL     1       2.615  -4.664  24.266  0.00  0.00    -0.270 OA
BRANCH   9  11
ATOM     11  C   UNL     1       3.066  -3.026  25.903  0.00  0.00    +0.075 A 
ATOM     12  S   UNL     1       4.200  -1.949  26.618  0.00  0.00    -0.072 S 
ATOM     13  C   UNL     1       3.063  -1.410  27.745  0.00  0.00    +0.079 A 
ATOM     14 CL   UNL     1       3.497  -0.194  28.876  0.00  0.00    -0.076 Cl
ATOM     15  C   UNL     1       1.844  -2.025  27.631  0.00  0.00    +0.028 A 
ATOM     16  C   UNL     1       1.848  -2.970  26.562  0.00  0.00    +0.022 A 
ENDBRANCH   9  11
ENDBRANCH   3   7
BRANCH   2  17
ATOM     17  O   UNL     1       4.701  -6.733  23.091  0.00  0.00    -0.389 OA
ATOM     18  H   UNL     1       4.293  -6.935  23.949  0.00  0.00    +0.210 HD
ENDBRANCH   2  17
ENDBRANCH   1   5
BRANCH   1  19
ATOM     19  C   UNL     1       8.379  -2.635  23.589  0.00  0.00    +0.231 C 
ATOM     20  N   UNL     1       9.418  -1.997  22.941  0.00  0.00    -0.282 N 
ATOM     21  H   UNL     1       9.760  -2.424  22.087  0.00  0.00    +0.155 HD
ATOM     22  O   UNL     1       7.557  -2.087  24.323  0.00  0.00    -0.274 OA
BRANCH  20  23
ATOM     23  C   UNL     1       9.719  -0.637  23.133  0.00  0.00    +0.069 A 
ATOM     24  C   UNL     1      10.198  -0.144  24.344  0.00  0.00    +0.028 A 
ATOM     25  C   UNL     1      10.501   1.220  24.477  0.00  0.00    +0.028 A 
ATOM     26  C   UNL     1      10.295   2.132  23.422  0.00  0.00    +0.052 A 
ATOM     27  C   UNL     1       9.793   1.605  22.220  0.00  0.00    +0.066 A 
ATOM     28  C   UNL     1       9.550   0.241  22.071  0.00  0.00    +0.146 A 
ATOM     29  F   UNL     1       9.073  -0.216  20.903  0.00  0.00    -0.203 F 
BRANCH  26  30
ATOM     30  N   UNL     1      10.572   3.554  23.577  0.00  0.00    -0.284 N 
ATOM     31  C   UNL     1       9.528   4.439  23.935  0.00  0.00    +0.256 A 
ATOM     32  O   UNL     1       8.334   4.173  24.061  0.00  0.00    -0.267 OA
ATOM     33  C   UNL     1       9.902   5.865  24.153  0.00  0.00    +0.071 A 
ATOM     34  C   UNL     1      11.148   6.292  23.936  0.00  0.00    +0.007 A 
ATOM     35  C   UNL     1      12.154   5.362  23.512  0.00  0.00    +0.018 A 
ATOM     36  C   UNL     1      11.857   4.064  23.360  0.00  0.00    +0.095 A 
ENDBRANCH  26  30
ENDBRANCH  20  23
ENDBRANCH   1  19
TORSDOF 7
ENDMDL
MODEL 3
REMARK VINA RESULT:      -7.7      1.861      1.981
REMARK  Name = 
REMARK  7 active torsions:
REMARK  status: ('A' for Active; 'I' for Inactive)
REMARK    1  A    between atoms: C_2  and  O_3
REMARK    2  A    between atoms: N_5  and  C_6
REMARK    3  A    between atoms: C_6  and  C_7
REMARK    4  A    between atoms: N_9  and  C_10
REMARK    5  A    between atoms: C_14  and  N_17
REMARK    6  A    between atoms: C_25  and  N_27
REMARK    7  A    between atoms: C_28  and  C_30
REMARK                            x       y       z     vdW  Elec       q    Type
REMARK                         _______ _______ _______ _____ _____    ______ ____
ROOT
ATOM      1  C   UNL     1       6.829  -3.012  22.653  0.00  0.00    +0.181 C 
ENDROOT
BRANCH   1   5
ATOM      2  C   UNL     1       7.715  -4.060  25.413  0.00  0.00    +0.150 C 
ATOM      3  C   UNL     1       7.230  -5.398  24.838  0.00  0.00    +0.117 C 
ATOM      4  C   UNL     1       7.437  -5.274  23.314  0.00  0.00    +0.109 C 
ATOM      5  N   UNL     1       7.943  -3.911  23.031  0.00  0.00    -0.290 NA
ATOM      6  C   UNL     1       8.591  -3.501  24.297  0.00  0.00    +0.118 C 
BRANCH   3   7
ATOM      7  N   UNL     1       5.849  -5.672  25.199  0.00  0.00    -0.304 N 
ATOM      8  H   UNL     1       5.128  -5.607  24.491  0.00  0.00    +0.149 HD
ATOM      9  C   UNL     1       5.500  -6.200  26.424  0.00  0.00    +0.251 C 
ATOM     10  O   UNL     1       6.338  -6.392  27.300  0.00  0.00    -0.270 OA
BRANCH   9  11
ATOM     11  C   UNL     1       4.090  -6.522  26.593  0.00  0.00    +0.075 A 
ATOM     12  S   UNL     1       3.323  -6.508  28.132  0.00  0.00    -0.072 S 
ATOM     13  C   UNL     1       1.826  -6.896  27.450  0.00  0.00    +0.079 A 
ATOM     14 CL   UNL     1       0.443  -7.031  28.459  0.00  0.00    -0.076 Cl
ATOM     15  C   UNL     1       1.869  -7.064  26.092  0.00  0.00    +0.028 A 
ATOM     16  C   UNL     1       3.189  -6.852  25.594  0.00  0.00    +0.022 A 
ENDBRANCH   9  11
ENDBRANCH   3   7
BRANCH   2  17
ATOM     17  O   UNL     1       8.419  -4.210  26.638  0.00  0.00    -0.389 OA
ATOM     18  H   UNL     1       7.994  -4.911  27.160  0.00  0.00    +0.210 HD
ENDBRANCH   2  17
ENDBRANCH   1   5
BRANCH   1  19
ATOM     19  C   UNL     1       7.181  -1.559  22.982  0.00  0.00    +0.231 C 
ATOM     20  N   UNL     1       8.355  -1.123  22.402  0.00  0.00    -0.282 N 
ATOM     21  H   UNL     1       8.643  -1.581  21.544  0.00  0.00    +0.155 HD
ATOM     22  O   UNL     1       6.454  -0.881  23.707  0.00  0.00    -0.274 OA
BRANCH  20  23
ATOM     23  C   UNL     1       8.914   0.141  22.662  0.00  0.00    +0.069 A 
ATOM     24  C   UNL     1       8.611   1.261  21.894  0.00  0.00    +0.028 A 
ATOM     25  C   UNL     1       9.181   2.505  22.208  0.00  0.00    +0.028 A 
ATOM     26  C   UNL     1      10.097   2.654  23.268  0.00  0.00    +0.052 A 
ATOM     27  C   UNL     1      10.396   1.500  24.013  0.00  0.00    +0.066 A 
ATOM     28  C   UNL     1       9.783   0.279  23.736  0.00  0.00    +0.146 A 
ATOM     29  F   UNL     1      10.098  -0.795  24.476  0.00  0.00    -0.203 F 
BRANCH  26  30
ATOM     30  N   UNL     1      10.719   3.937  23.566  0.00  0.00    -0.284 N 
ATOM     31  C   UNL     1       9.945   4.983  24.120  0.00  0.00    +0.256 A 
ATOM     32  O   UNL     1       8.732   4.988  24.322  0.00  0.00    -0.267 OA
ATOM     33  C   UNL     1      10.667   6.239  24.471  0.00  0.00    +0.071 A 
ATOM     34  C   UNL     1      11.964   6.390  24.194  0.00  0.00    +0.007 A 
ATOM     35  C   UNL     1      12.686   5.318  23.573  0.00  0.00    +0.018 A 
ATOM     36  C   UNL     1      12.075   4.159  23.295  0.00  0.00    +0.095 A 
ENDBRANCH  26  30
ENDBRANCH  20  23
ENDBRANCH   1  19
TORSDOF 7
ENDMDL
MODEL 4
REMARK VINA RESULT:      -7.5      4.017     11.101
REMARK  Name = 
REMARK  7 active torsions:
REMARK  status: ('A' for Active; 'I' for Inactive)
REMARK    1  A    between atoms: C_2  and  O_3
REMARK    2  A    between atoms: N_5  and  C_6
REMARK    3  A    between atoms: C_6  and  C_7
REMARK    4  A    between atoms: N_9  and  C_10
REMARK    5  A    between atoms: C_14  and  N_17
REMARK    6  A    between atoms: C_25  and  N_27
REMARK    7  A    between atoms: C_28  and  C_30
REMARK                            x       y       z     vdW  Elec       q    Type
REMARK                         _______ _______ _______ _____ _____    ______ ____
ROOT
ATOM      1  C   UNL     1       8.070  -1.065  25.232  0.00  0.00    +0.181 C 
ENDROOT
BRANCH   1   5
ATOM      2  C   UNL     1       9.386  -0.393  22.528  0.00  0.00    +0.150 C 
ATOM      3  C   UNL     1      10.171   0.608  23.385  0.00  0.00    +0.117 C 
ATOM      4  C   UNL     1      10.227  -0.029  24.789  0.00  0.00    +0.109 C 
ATOM      5  N   UNL     1       9.452  -1.290  24.749  0.00  0.00    -0.290 NA
ATOM      6  C   UNL     1       9.491  -1.689  23.324  0.00  0.00    +0.118 C 
BRANCH   3   7
ATOM      7  N   UNL     1       9.549   1.922  23.386  0.00  0.00    -0.304 N 
ATOM      8  H   UNL     1       8.540   1.994  23.438  0.00  0.00    +0.149 HD
ATOM      9  C   UNL     1      10.282   3.083  23.509  0.00  0.00    +0.251 C 
ATOM     10  O   UNL     1      11.509   3.064  23.546  0.00  0.00    -0.270 OA
BRANCH   9  11
ATOM     11  C   UNL     1       9.507   4.311  23.607  0.00  0.00    +0.075 A 
ATOM     12  S   UNL     1       7.796   4.334  23.436  0.00  0.00    -0.072 S 
ATOM     13  C   UNL     1       7.733   5.996  23.733  0.00  0.00    +0.079 A 
ATOM     14 CL   UNL     1       6.214   6.797  23.762  0.00  0.00    -0.076 Cl
ATOM     15  C   UNL     1       8.962   6.564  23.939  0.00  0.00    +0.028 A 
ATOM     16  C   UNL     1       9.996   5.583  23.859  0.00  0.00    +0.022 A 
ENDBRANCH   9  11
ENDBRANCH   3   7
BRANCH   2  17
ATOM     17  O   UNL     1       9.907  -0.518  21.211  0.00  0.00    -0.389 OA
ATOM     18  H   UNL     1       9.919   0.360  20.794  0.00  0.00    +0.210 HD
ENDBRANCH   2  17
ENDBRANCH   1   5
BRANCH   1  19
ATOM     19  C   UNL     1       7.242  -2.345  25.095  0.00  0.00    +0.231 C 
ATOM     20  N   UNL     1       6.166  -2.226  24.237  0.00  0.00    -0.282 N 
ATOM     21  H   UNL     1       6.240  -1.533  23.500  0.00  0.00    +0.155 HD
ATOM     22  O   UNL     1       7.543  -3.364  25.716  0.00  0.00    -0.274 OA
BRANCH  20  23
ATOM     23  C   UNL     1       5.218  -3.248  24.052  0.00  0.00    +0.069 A 
ATOM     24  C   UNL     1       4.060  -3.335  24.820  0.00  0.00    +0.028 A 
ATOM     25  C   UNL     1       3.135  -4.365  24.583  0.00  0.00    +0.028 A 
ATOM     26  C   UNL     1       3.361  -5.353  23.604  0.00  0.00    +0.052 A 
ATOM     27  C   UNL     1       4.547  -5.246  22.858  0.00  0.00    +0.066 A 
ATOM     28  C   UNL     1       5.435  -4.189  23.056  0.00  0.00    +0.146 A 
ATOM     29  F   UNL     1       6.554  -4.127  22.318  0.00  0.00    -0.203 F 
BRANCH  26  30
ATOM     30  N   UNL     1       2.419  -6.443  23.388  0.00  0.00    -0.284 N 
ATOM     31  C   UNL     1       2.598  -7.672  24.064  0.00  0.00    +0.256 A 
ATOM     32  O   UNL     1       3.538  -7.997  24.788  0.00  0.00    -0.267 OA
ATOM     33  C   UNL     1       1.551  -8.713  23.854  0.00  0.00    +0.071 A 
ATOM     34  C   UNL     1       0.543  -8.515  23.003  0.00  0.00    +0.007 A 
ATOM     35  C   UNL     1       0.445  -7.272  22.294  0.00  0.00    +0.018 A 
ATOM     36  C   UNL     1       1.342  -6.299  22.504  0.00  0.00    +0.095 A 
ENDBRANCH  26  30
ENDBRANCH  20  23
ENDBRANCH   1  19
TORSDOF 7
ENDMDL
MODEL 5
REMARK VINA RESULT:      -7.2      3.826     10.019
REMARK  Name = 
REMARK  7 active torsions:
REMARK  status: ('A' for Active; 'I' for Inactive)
REMARK    1  A    between atoms: C_2  and  O_3
REMARK    2  A    between atoms: N_5  and  C_6
REMARK    3  A    between atoms: C_6  and  C_7
REMARK    4  A    between atoms: N_9  and  C_10
REMARK    5  A    between atoms: C_14  and  N_17
REMARK    6  A    between atoms: C_25  and  N_27
REMARK    7  A    between atoms: C_28  and  C_30
REMARK                            x       y       z     vdW  Elec       q    Type
REMARK                         _______ _______ _______ _____ _____    ______ ____
ROOT
ATOM      1  C   UNL     1       9.404  -1.616  22.857  0.00  0.00    +0.181 C 
ENDROOT
BRANCH   1   5
ATOM      2  C   UNL     1       9.951   1.325  23.601  0.00  0.00    +0.150 C 
ATOM      3  C   UNL     1       8.826   1.070  24.612  0.00  0.00    +0.117 C 
ATOM      4  C   UNL     1       8.909  -0.438  24.928  0.00  0.00    +0.109 C 
ATOM      5  N   UNL     1       9.978  -1.022  24.087  0.00  0.00    -0.290 NA
ATOM      6  C   UNL     1      10.870   0.123  23.795  0.00  0.00    +0.118 C 
BRANCH   3   7
ATOM      7  N   UNL     1       7.528   1.465  24.086  0.00  0.00    -0.304 N 
ATOM      8  H   UNL     1       6.866   0.750  23.809  0.00  0.00    +0.149 HD
ATOM      9  C   UNL     1       7.086   2.770  24.123  0.00  0.00    +0.251 C 
ATOM     10  O   UNL     1       7.804   3.677  24.534  0.00  0.00    -0.270 OA
BRANCH   9  11
ATOM     11  C   UNL     1       5.723   2.987  23.662  0.00  0.00    +0.075 A 
ATOM     12  S   UNL     1       4.357   2.712  24.669  0.00  0.00    -0.072 S 
ATOM     13  C   UNL     1       3.293   3.233  23.464  0.00  0.00    +0.079 A 
ATOM     14 CL   UNL     1       1.607   3.276  23.780  0.00  0.00    -0.076 Cl
ATOM     15  C   UNL     1       3.919   3.593  22.299  0.00  0.00    +0.028 A 
ATOM     16  C   UNL     1       5.333   3.444  22.413  0.00  0.00    +0.022 A 
ENDBRANCH   9  11
ENDBRANCH   3   7
BRANCH   2  17
ATOM     17  O   UNL     1      10.617   2.561  23.819  0.00  0.00    -0.389 OA
ATOM     18  H   UNL     1      11.398   2.403  24.375  0.00  0.00    +0.210 HD
ENDBRANCH   2  17
ENDBRANCH   1   5
BRANCH   1  19
ATOM     19  C   UNL     1       8.454  -2.763  23.211  0.00  0.00    +0.231 C 
ATOM     20  N   UNL     1       7.269  -2.746  22.502  0.00  0.00    -0.282 N 
ATOM     21  H   UNL     1       7.284  -2.302  21.591  0.00  0.00    +0.155 HD
ATOM     22  O   UNL     1       8.760  -3.598  24.062  0.00  0.00    -0.274 OA
BRANCH  20  23
ATOM     23  C   UNL     1       6.216  -3.645  22.751  0.00  0.00    +0.069 A 
ATOM     24  C   UNL     1       5.159  -3.334  23.601  0.00  0.00    +0.028 A 
ATOM     25  C   UNL     1       4.122  -4.260  23.801  0.00  0.00    +0.028 A 
ATOM     26  C   UNL     1       4.135  -5.530  23.191  0.00  0.00    +0.052 A 
ATOM     27  C   UNL     1       5.225  -5.819  22.353  0.00  0.00    +0.066 A 
ATOM     28  C   UNL     1       6.223  -4.876  22.110  0.00  0.00    +0.146 A 
ATOM     29  F   UNL     1       7.244  -5.196  21.300  0.00  0.00    -0.203 F 
BRANCH  26  30
ATOM     30  N   UNL     1       3.078  -6.504  23.433  0.00  0.00    -0.284 N 
ATOM     31  C   UNL     1       3.219  -7.452  24.472  0.00  0.00    +0.256 A 
ATOM     32  O   UNL     1       4.202  -7.633  25.190  0.00  0.00    -0.267 OA
ATOM     33  C   UNL     1       2.064  -8.364  24.711  0.00  0.00    +0.071 A 
ATOM     34  C   UNL     1       0.989  -8.335  23.922  0.00  0.00    +0.007 A 
ATOM     35  C   UNL     1       0.925  -7.394  22.841  0.00  0.00    +0.018 A 
ATOM     36  C   UNL     1       1.926  -6.527  22.637  0.00  0.00    +0.095 A 
ENDBRANCH  26  30
ENDBRANCH  20  23
ENDBRANCH   1  19
TORSDOF 7
ENDMDL
MODEL 6
REMARK VINA RESULT:      -7.1      3.330      8.472
REMARK  Name = 
REMARK  7 active torsions:
REMARK  status: ('A' for Active; 'I' for Inactive)
REMARK    1  A    between atoms: C_2  and  O_3
REMARK    2  A    between atoms: N_5  and  C_6
REMARK    3  A    between atoms: C_6  and  C_7
REMARK    4  A    between atoms: N_9  and  C_10
REMARK    5  A    between atoms: C_14  and  N_17
REMARK    6  A    between atoms: C_25  and  N_27
REMARK    7  A    between atoms: C_28  and  C_30
REMARK                            x       y       z     vdW  Elec       q    Type
REMARK                         _______ _______ _______ _____ _____    ______ ____
ROOT
ATOM      1  C   UNL     1      10.124  -0.019  25.309  0.00  0.00    +0.181 C 
ENDROOT
BRANCH   1   5
ATOM      2  C   UNL     1       9.312   0.762  22.441  0.00  0.00    +0.150 C 
ATOM      3  C   UNL     1       7.898   0.554  22.998  0.00  0.00    +0.117 C 
ATOM      4  C   UNL     1       8.011   0.879  24.502  0.00  0.00    +0.109 C 
ATOM      5  N   UNL     1       9.430   1.185  24.798  0.00  0.00    -0.290 NA
ATOM      6  C   UNL     1       9.976   1.638  23.498  0.00  0.00    +0.118 C 
BRANCH   3   7
ATOM      7  N   UNL     1       7.411  -0.793  22.748  0.00  0.00    -0.304 N 
ATOM      8  H   UNL     1       7.976  -1.431  22.200  0.00  0.00    +0.149 HD
ATOM      9  C   UNL     1       6.298  -1.302  23.381  0.00  0.00    +0.251 C 
ATOM     10  O   UNL     1       5.617  -0.611  24.134  0.00  0.00    -0.270 OA
BRANCH   9  11
ATOM     11  C   UNL     1       6.004  -2.702  23.110  0.00  0.00    +0.075 A 
ATOM     12  S   UNL     1       7.100  -3.725  22.269  0.00  0.00    -0.072 S 
ATOM     13  C   UNL     1       6.078  -5.060  22.447  0.00  0.00    +0.079 A 
ATOM     14 CL   UNL     1       6.563  -6.588  21.834  0.00  0.00    -0.076 Cl
ATOM     15  C   UNL     1       4.910  -4.772  23.103  0.00  0.00    +0.028 A 
ATOM     16  C   UNL     1       4.865  -3.398  23.483  0.00  0.00    +0.022 A 
ENDBRANCH   9  11
ENDBRANCH   3   7
BRANCH   2  17
ATOM     17  O   UNL     1       9.313   1.365  21.154  0.00  0.00    -0.389 OA
ATOM     18  H   UNL     1      10.224   1.376  20.814  0.00  0.00    +0.210 HD
ENDBRANCH   2  17
ENDBRANCH   1   5
BRANCH   1  19
ATOM     19  C   UNL     1       9.201  -0.813  26.238  0.00  0.00    +0.231 C 
ATOM     20  N   UNL     1       8.785  -2.021  25.714  0.00  0.00    -0.282 N 
ATOM     21  H   UNL     1       9.391  -2.460  25.031  0.00  0.00    +0.155 HD
ATOM     22  O   UNL     1       8.883  -0.371  27.342  0.00  0.00    -0.274 OA
BRANCH  20  23
ATOM     23  C   UNL     1       7.850  -2.852  26.357  0.00  0.00    +0.069 A 
ATOM     24  C   UNL     1       6.601  -2.390  26.767  0.00  0.00    +0.028 A 
ATOM     25  C   UNL     1       5.697  -3.266  27.387  0.00  0.00    +0.028 A 
ATOM     26  C   UNL     1       6.029  -4.609  27.651  0.00  0.00    +0.052 A 
ATOM     27  C   UNL     1       7.302  -5.039  27.242  0.00  0.00    +0.066 A 
ATOM     28  C   UNL     1       8.176  -4.183  26.573  0.00  0.00    +0.146 A 
ATOM     29  F   UNL     1       9.382  -4.639  26.199  0.00  0.00    -0.203 F 
BRANCH  26  30
ATOM     30  N   UNL     1       5.103  -5.505  28.333  0.00  0.00    -0.284 N 
ATOM     31  C   UNL     1       5.209  -5.697  29.730  0.00  0.00    +0.256 A 
ATOM     32  O   UNL     1       6.076  -5.252  30.481  0.00  0.00    -0.267 OA
ATOM     33  C   UNL     1       4.179  -6.564  30.369  0.00  0.00    +0.071 A 
ATOM     34  C   UNL     1       3.257  -7.192  29.637  0.00  0.00    +0.007 A 
ATOM     35  C   UNL     1       3.234  -7.011  28.215  0.00  0.00    +0.018 A 
ATOM     36  C   UNL     1       4.115  -6.196  27.621  0.00  0.00    +0.095 A 
ENDBRANCH  26  30
ENDBRANCH  20  23
ENDBRANCH   1  19
TORSDOF 7
ENDMDL
MODEL 7
REMARK VINA RESULT:      -7.0      3.627     10.265
REMARK  Name = 
REMARK  7 active torsions:
REMARK  status: ('A' for Active; 'I' for Inactive)
REMARK    1  A    between atoms: C_2  and  O_3
REMARK    2  A    between atoms: N_5  and  C_6
REMARK    3  A    between atoms: C_6  and  C_7
REMARK    4  A    between atoms: N_9  and  C_10
REMARK    5  A    between atoms: C_14  and  N_17
REMARK    6  A    between atoms: C_25  and  N_27
REMARK    7  A    between atoms: C_28  and  C_30
REMARK                            x       y       z     vdW  Elec       q    Type
REMARK                         _______ _______ _______ _____ _____    ______ ____
ROOT
ATOM      1  C   UNL     1       9.253  -1.081  22.816  0.00  0.00    +0.181 C 
ENDROOT
BRANCH   1   5
ATOM      2  C   UNL     1      10.239   1.753  23.521  0.00  0.00    +0.150 C 
ATOM      3  C   UNL     1       9.062   1.700  24.505  0.00  0.00    +0.117 C 
ATOM      4  C   UNL     1       8.899   0.206  24.851  0.00  0.00    +0.109 C 
ATOM      5  N   UNL     1       9.883  -0.558  24.050  0.00  0.00    -0.290 NA
ATOM      6  C   UNL     1      10.951   0.426  23.762  0.00  0.00    +0.118 C 
BRANCH   3   7
ATOM      7  N   UNL     1       7.857   2.283  23.936  0.00  0.00    -0.304 N 
ATOM      8  H   UNL     1       7.097   1.675  23.654  0.00  0.00    +0.149 HD
ATOM      9  C   UNL     1       7.627   3.642  23.936  0.00  0.00    +0.251 C 
ATOM     10  O   UNL     1       8.469   4.434  24.350  0.00  0.00    -0.270 OA
BRANCH   9  11
ATOM     11  C   UNL     1       6.327   4.061  23.433  0.00  0.00    +0.075 A 
ATOM     12  S   UNL     1       5.270   2.983  22.610  0.00  0.00    -0.072 S 
ATOM     13  C   UNL     1       4.081   4.175  22.460  0.00  0.00    +0.079 A 
ATOM     14 CL   UNL     1       2.586   3.794  21.707  0.00  0.00    -0.076 Cl
ATOM     15  C   UNL     1       4.448   5.384  22.988  0.00  0.00    +0.028 A 
ATOM     16  C   UNL     1       5.758   5.319  23.549  0.00  0.00    +0.022 A 
ENDBRANCH   9  11
ENDBRANCH   3   7
BRANCH   2  17
ATOM     17  O   UNL     1      11.086   2.873  23.735  0.00  0.00    -0.389 OA
ATOM     18  H   UNL     1      10.621   3.677  23.447  0.00  0.00    +0.210 HD
ENDBRANCH   2  17
ENDBRANCH   1   5
BRANCH   1  19
ATOM     19  C   UNL     1       8.426  -2.332  23.127  0.00  0.00    +0.231 C 
ATOM     20  N   UNL     1       7.233  -2.400  22.435  0.00  0.00    -0.282 N 
ATOM     21  H   UNL     1       7.188  -1.914  21.546  0.00  0.00    +0.155 HD
ATOM     22  O   UNL     1       8.828  -3.171  23.932  0.00  0.00    -0.274 OA
BRANCH  20  23
ATOM     23  C   UNL     1       6.279  -3.409  22.654  0.00  0.00    +0.069 A 
ATOM     24  C   UNL     1       6.303  -4.619  21.965  0.00  0.00    +0.028 A 
ATOM     25  C   UNL     1       5.337  -5.601  22.235  0.00  0.00    +0.028 A 
ATOM     26  C   UNL     1       4.302  -5.387  23.167  0.00  0.00    +0.052 A 
ATOM     27  C   UNL     1       4.296  -4.149  23.832  0.00  0.00    +0.066 A 
ATOM     28  C   UNL     1       5.290  -3.199  23.605  0.00  0.00    +0.146 A 
ATOM     29  F   UNL     1       5.244  -2.031  24.265  0.00  0.00    -0.203 F 
BRANCH  26  30
ATOM     30  N   UNL     1       3.278  -6.392  23.415  0.00  0.00    -0.284 N 
ATOM     31  C   UNL     1       3.445  -7.325  24.466  0.00  0.00    +0.256 A 
ATOM     32  O   UNL     1       4.430  -7.465  25.189  0.00  0.00    -0.267 OA
ATOM     33  C   UNL     1       2.320  -8.271  24.709  0.00  0.00    +0.071 A 
ATOM     34  C   UNL     1       1.248  -8.286  23.915  0.00  0.00    +0.007 A 
ATOM     35  C   UNL     1       1.158  -7.359  22.825  0.00  0.00    +0.018 A 
ATOM     36  C   UNL     1       2.130  -6.462  22.615  0.00  0.00    +0.095 A 
ENDBRANCH  26  30
ENDBRANCH  20  23
ENDBRANCH   1  19
TORSDOF 7
ENDMDL
MODEL 8
REMARK VINA RESULT:      -7.0      2.855      3.413
REMARK  Name = 
REMARK  7 active torsions:
REMARK  status: ('A' for Active; 'I' for Inactive)
REMARK    1  A    between atoms: C_2  and  O_3
REMARK    2  A    between atoms: N_5  and  C_6
REMARK    3  A    between atoms: C_6  and  C_7
REMARK    4  A    between atoms: N_9  and  C_10
REMARK    5  A    between atoms: C_14  and  N_17
REMARK    6  A    between atoms: C_25  and  N_27
REMARK    7  A    between atoms: C_28  and  C_30
REMARK                            x       y       z     vdW  Elec       q    Type
REMARK                         _______ _______ _______ _____ _____    ______ ____
ROOT
ATOM      1  C   UNL     1       7.839  -3.484  22.742  0.00  0.00    +0.181 C 
ENDROOT
BRANCH   1   5
ATOM      2  C   UNL     1       5.504  -5.444  22.285  0.00  0.00    +0.150 C 
ATOM      3  C   UNL     1       4.759  -4.456  23.191  0.00  0.00    +0.117 C 
ATOM      4  C   UNL     1       5.445  -3.096  22.944  0.00  0.00    +0.109 C 
ATOM      5  N   UNL     1       6.567  -3.314  22.003  0.00  0.00    -0.290 NA
ATOM      6  C   UNL     1       6.180  -4.536  21.262  0.00  0.00    +0.118 C 
BRANCH   3   7
ATOM      7  N   UNL     1       4.803  -4.864  24.586  0.00  0.00    -0.304 N 
ATOM      8  H   UNL     1       5.630  -5.326  24.943  0.00  0.00    +0.149 HD
ATOM      9  C   UNL     1       3.838  -4.482  25.494  0.00  0.00    +0.251 C 
ATOM     10  O   UNL     1       2.852  -3.840  25.147  0.00  0.00    -0.270 OA
BRANCH   9  11
ATOM     11  C   UNL     1       4.081  -4.877  26.874  0.00  0.00    +0.075 A 
ATOM     12  S   UNL     1       3.008  -5.908  27.736  0.00  0.00    -0.072 S 
ATOM     13  C   UNL     1       4.004  -5.894  29.102  0.00  0.00    +0.079 A 
ATOM     14 CL   UNL     1       3.564  -6.812  30.484  0.00  0.00    -0.076 Cl
ATOM     15  C   UNL     1       5.123  -5.118  28.956  0.00  0.00    +0.028 A 
ATOM     16  C   UNL     1       5.164  -4.521  27.661  0.00  0.00    +0.022 A 
ENDBRANCH   9  11
ENDBRANCH   3   7
BRANCH   2  17
ATOM     17  O   UNL     1       4.640  -6.397  21.682  0.00  0.00    -0.389 OA
ATOM     18  H   UNL     1       4.366  -6.065  20.810  0.00  0.00    +0.210 HD
ENDBRANCH   2  17
ENDBRANCH   1   5
BRANCH   1  19
ATOM     19  C   UNL     1       8.678  -2.206  22.662  0.00  0.00    +0.231 C 
ATOM     20  N   UNL     1       8.291  -1.227  23.555  0.00  0.00    -0.282 N 
ATOM     21  H   UNL     1       7.831  -1.534  24.405  0.00  0.00    +0.155 HD
ATOM     22  O   UNL     1       9.601  -2.106  21.855  0.00  0.00    -0.274 OA
BRANCH  20  23
ATOM     23  C   UNL     1       8.859   0.060  23.572  0.00  0.00    +0.069 A 
ATOM     24  C   UNL     1       8.395   1.088  22.755  0.00  0.00    +0.028 A 
ATOM     25  C   UNL     1       8.984   2.360  22.824  0.00  0.00    +0.028 A 
ATOM     26  C   UNL     1      10.073   2.628  23.678  0.00  0.00    +0.052 A 
ATOM     27  C   UNL     1      10.528   1.564  24.475  0.00  0.00    +0.066 A 
ATOM     28  C   UNL     1       9.903   0.319  24.448  0.00  0.00    +0.146 A 
ATOM     29  F   UNL     1      10.371  -0.667  25.230  0.00  0.00    -0.203 F 
BRANCH  26  30
ATOM     30  N   UNL     1      10.709   3.938  23.717  0.00  0.00    -0.284 N 
ATOM     31  C   UNL     1       9.990   5.056  24.202  0.00  0.00    +0.256 A 
ATOM     32  O   UNL     1       8.807   5.094  24.538  0.00  0.00    -0.267 OA
ATOM     33  C   UNL     1      10.731   6.346  24.287  0.00  0.00    +0.071 A 
ATOM     34  C   UNL     1      11.986   6.451  23.844  0.00  0.00    +0.007 A 
ATOM     35  C   UNL     1      12.646   5.299  23.303  0.00  0.00    +0.018 A 
ATOM     36  C   UNL     1      12.022   4.114  23.264  0.00  0.00    +0.095 A 
ENDBRANCH  26  30
ENDBRANCH  20  23
ENDBRANCH   1  19
TORSDOF 7
ENDMDL
MODEL 9
REMARK VINA RESULT:      -7.0      3.757      5.814
REMARK  Name = 
REMARK  7 active torsions:
REMARK  status: ('A' for Active; 'I' for Inactive)
REMARK    1  A    between atoms: C_2  and  O_3
REMARK    2  A    between atoms: N_5  and  C_6
REMARK    3  A    between atoms: C_6  and  C_7
REMARK    4  A    between atoms: N_9  and  C_10
REMARK    5  A    between atoms: C_14  and  N_17
REMARK    6  A    between atoms: C_25  and  N_27
REMARK    7  A    between atoms: C_28  and  C_30
REMARK                            x       y       z     vdW  Elec       q    Type
REMARK                         _______ _______ _______ _____ _____    ______ ____
ROOT
ATOM      1  C   UNL     1       2.904  -3.418  29.036  0.00  0.00    +0.181 C 
ENDROOT
BRANCH   1   5
ATOM      2  C   UNL     1       3.463  -6.449  29.019  0.00  0.00    +0.150 C 
ATOM      3  C   UNL     1       4.908  -5.979  28.803  0.00  0.00    +0.117 C 
ATOM      4  C   UNL     1       4.984  -4.598  29.488  0.00  0.00    +0.109 C 
ATOM      5  N   UNL     1       3.635  -4.269  30.003  0.00  0.00    -0.290 NA
ATOM      6  C   UNL     1       2.991  -5.590  30.187  0.00  0.00    +0.118 C 
BRANCH   3   7
ATOM      7  N   UNL     1       5.253  -5.927  27.391  0.00  0.00    -0.304 N 
ATOM      8  H   UNL     1       4.513  -5.889  26.700  0.00  0.00    +0.149 HD
ATOM      9  C   UNL     1       6.547  -5.738  26.957  0.00  0.00    +0.251 C 
ATOM     10  O   UNL     1       7.485  -5.682  27.747  0.00  0.00    -0.270 OA
BRANCH   9  11
ATOM     11  C   UNL     1       6.716  -5.597  25.518  0.00  0.00    +0.075 A 
ATOM     12  S   UNL     1       5.515  -6.107  24.398  0.00  0.00    -0.072 S 
ATOM     13  C   UNL     1       6.425  -5.555  23.086  0.00  0.00    +0.079 A 
ATOM     14 CL   UNL     1       5.797  -5.703  21.495  0.00  0.00    -0.076 Cl
ATOM     15  C   UNL     1       7.630  -5.012  23.444  0.00  0.00    +0.028 A 
ATOM     16  C   UNL     1       7.802  -5.042  24.860  0.00  0.00    +0.022 A 
ENDBRANCH   9  11
ENDBRANCH   3   7
BRANCH   2  17
ATOM     17  O   UNL     1       3.372  -7.840  29.293  0.00  0.00    -0.389 OA
ATOM     18  H   UNL     1       4.242  -8.247  29.141  0.00  0.00    +0.210 HD
ENDBRANCH   2  17
ENDBRANCH   1   5
BRANCH   1  19
ATOM     19  C   UNL     1       3.879  -2.510  28.282  0.00  0.00    +0.231 C 
ATOM     20  N   UNL     1       4.179  -2.948  27.007  0.00  0.00    -0.282 N 
ATOM     21  H   UNL     1       3.484  -3.520  26.542  0.00  0.00    +0.155 HD
ATOM     22  O   UNL     1       4.332  -1.493  28.807  0.00  0.00    -0.274 OA
BRANCH  20  23
ATOM     23  C   UNL     1       5.134  -2.320  26.188  0.00  0.00    +0.069 A 
ATOM     24  C   UNL     1       6.210  -1.607  26.711  0.00  0.00    +0.028 A 
ATOM     25  C   UNL     1       7.146  -1.016  25.848  0.00  0.00    +0.028 A 
ATOM     26  C   UNL     1       7.012  -1.086  24.447  0.00  0.00    +0.052 A 
ATOM     27  C   UNL     1       5.906  -1.797  23.953  0.00  0.00    +0.066 A 
ATOM     28  C   UNL     1       5.010  -2.434  24.810  0.00  0.00    +0.146 A 
ATOM     29  F   UNL     1       3.970  -3.104  24.291  0.00  0.00    -0.203 F 
BRANCH  26  30
ATOM     30  N   UNL     1       7.963  -0.435  23.556  0.00  0.00    -0.284 N 
ATOM     31  C   UNL     1       9.192  -1.068  23.254  0.00  0.00    +0.256 A 
ATOM     32  O   UNL     1       9.630  -2.113  23.731  0.00  0.00    -0.267 OA
ATOM     33  C   UNL     1      10.078  -0.379  22.273  0.00  0.00    +0.071 A 
ATOM     34  C   UNL     1       9.757   0.816  21.774  0.00  0.00    +0.007 A 
ATOM     35  C   UNL     1       8.527   1.441  22.163  0.00  0.00    +0.018 A 
ATOM     36  C   UNL     1       7.686   0.821  23.002  0.00  0.00    +0.095 A 
ENDBRANCH  26  30
ENDBRANCH  20  23
ENDBRANCH   1  19
TORSDOF 7
ENDMDL
