MODEL 1
REMARK VINA RESULT:      17.5      0.000      0.000
REMARK  Name = 
REMARK  54 active torsions:
REMARK  status: ('A' for Active; 'I' for Inactive)
REMARK    1  A    between atoms: C_1  and  C_2
REMARK    2  A    between atoms: C_2  and  C_3
REMARK    3  A    between atoms: C_3  and  C_4
REMARK    4  A    between atoms: C_3  and  C_5
REMARK    5  A    between atoms: C_5  and  C_6
REMARK    6  A    between atoms: C_6  and  C_7
REMARK    7  A    between atoms: C_7  and  C_8
REMARK    8  A    between atoms: C_8  and  C_9
REMARK    9  A    between atoms: N_11  and  C_12
REMARK   10  A    between atoms: C_12  and  C_13
REMARK   11  A    between atoms: C_12  and  C_21
REMARK   12  A    between atoms: C_13  and  C_14
REMARK   13  A    between atoms: C_14  and  N_15
REMARK   14  A    between atoms: N_15  and  C_16
REMARK   15  A    between atoms: C_16  and  S_17
REMARK   16  A    between atoms: N_23  and  C_24
REMARK   17  A    between atoms: C_24  and  C_25
REMARK   18  A    between atoms: C_24  and  C_28
REMARK   19  A    between atoms: C_25  and  C_26
REMARK   20  A    between atoms: C_25  and  O_27
REMARK   21  A    between atoms: N_30  and  C_31
REMARK   22  A    between atoms: C_31  and  C_32
REMARK   23  A    between atoms: C_31  and  C_40
REMARK   24  A    between atoms: C_32  and  C_33
REMARK   25  A    between atoms: C_33  and  N_34
REMARK   26  A    between atoms: N_34  and  C_35
REMARK   27  A    between atoms: C_35  and  S_36
REMARK   28  A    between atoms: N_42  and  C_43
REMARK   29  A    between atoms: C_49  and  C_105
REMARK   30  A    between atoms: C_53  and  C_54
REMARK   31  A    between atoms: C_54  and  C_55
REMARK   32  A    between atoms: C_55  and  N_56
REMARK   33  A    between atoms: N_56  and  C_57
REMARK   34  A    between atoms: C_57  and  S_58
REMARK   35  A    between atoms: C_65  and  C_66
REMARK   36  A    between atoms: C_66  and  C_67
REMARK   37  A    between atoms: C_67  and  N_68
REMARK   38  A    between atoms: N_68  and  C_69
REMARK   39  A    between atoms: C_69  and  S_70
REMARK   40  A    between atoms: C_77  and  C_78
REMARK   41  A    between atoms: C_78  and  C_79
REMARK   42  A    between atoms: C_79  and  C_80
REMARK   43  A    between atoms: C_79  and  C_81
REMARK   44  A    between atoms: C_85  and  C_86
REMARK   45  A    between atoms: C_86  and  C_87
REMARK   46  A    between atoms: C_87  and  C_88
REMARK   47  A    between atoms: C_87  and  C_89
REMARK   48  A    between atoms: C_93  and  C_94
REMARK   49  A    between atoms: C_94  and  C_95
REMARK   50  A    between atoms: C_95  and  N_96
REMARK   51  A    between atoms: N_96  and  C_97
REMARK   52  A    between atoms: C_97  and  S_98
REMARK   53  A    between atoms: C_105  and  C_106
REMARK   54  A    between atoms: C_105  and  O_107
REMARK                            x       y       z     vdW  Elec       q    Type
REMARK                         _______ _______ _______ _____ _____    ______ ____
ROOT
ATOM      1  C   UNL     1       2.904   0.763  24.896  0.00  0.00    +0.160 C 
ATOM      2  C   UNL     1       2.333  -1.325  25.607  0.00  0.00    +0.234 C 
ATOM      3  O   UNL     1       1.085  -1.469  25.250  0.00  0.00    -0.274 OA
ATOM      4  N   UNL     1       2.690  -3.225  26.280  0.00  0.00    -0.302 N 
ATOM      5  H   UNL     1       1.868  -3.461  25.599  0.00  0.00    +0.150 HD
ATOM      6  C   UNL     1       2.619  -5.282  26.853  0.00  0.00    +0.160 C 
ATOM      7  C   UNL     1       1.863  -7.078  26.464  0.00  0.00    +0.234 C 
ATOM      8  O   UNL     1       0.746  -7.554  26.756  0.00  0.00    -0.274 OA
ATOM      9  N   UNL     1       2.890  -8.244  25.736  0.00  0.00    -0.302 N 
ATOM     10  H   UNL     1       2.908  -9.246  25.464  0.00  0.00    +0.150 HD
ATOM     11  C   UNL     1       3.337  -7.514  24.709  0.00  0.00    +0.159 C 
ATOM     12  C   UNL     1       4.756  -7.183  24.318  0.00  0.00    +0.234 C 
ATOM     13  O   UNL     1       5.547  -7.933  23.764  0.00  0.00    -0.274 OA
ATOM     14  N   UNL     1       5.089  -5.941  24.871  0.00  0.00    -0.302 N 
ATOM     15  H   UNL     1       4.794  -5.586  25.782  0.00  0.00    +0.150 HD
ATOM     16  C   UNL     1       6.303  -5.373  24.574  0.00  0.00    +0.159 C 
ATOM     17  C   UNL     1       6.262  -3.968  25.080  0.00  0.00    +0.234 C 
ATOM     18  O   UNL     1       5.560  -3.608  26.012  0.00  0.00    -0.274 OA
ATOM     19  N   UNL     1       7.232  -3.240  24.436  0.00  0.00    -0.302 N 
ATOM     20  H   UNL     1       7.455  -3.497  23.481  0.00  0.00    +0.150 HD
ATOM     21  C   UNL     1       7.400  -1.854  24.717  0.00  0.00    +0.160 C 
ATOM     22  C   UNL     1       8.533  -1.220  24.031  0.00  0.00    +0.234 C 
ATOM     23  O   UNL     1       9.190  -1.840  23.198  0.00  0.00    -0.274 OA
ATOM     24  N   UNL     1       8.606   0.136  24.241  0.00  0.00    -0.302 N 
ATOM     25  H   UNL     1       8.068   0.621  24.974  0.00  0.00    +0.150 HD
ATOM     26  C   UNL     1       9.660   0.873  23.638  0.00  0.00    +0.160 C 
ATOM     27  C   UNL     1       9.553   2.321  24.051  0.00  0.00    +0.234 C 
ATOM     28  O   UNL     1       8.858   2.657  25.011  0.00  0.00    -0.274 OA
ATOM     29  N   UNL     1      10.331   3.208  23.363  0.00  0.00    -0.300 N 
ATOM     30  H   UNL     1      11.145   2.890  22.843  0.00  0.00    +0.150 HD
ATOM     31  C   UNL     1      10.185   4.641  23.621  0.00  0.00    +0.187 C 
ATOM     32  C   UNL     1       8.567   4.936  23.061  0.00  0.00    +0.236 C 
ATOM     33  O   UNL     1       8.446   5.821  22.208  0.00  0.00    -0.274 OA
ATOM     34  N   UNL     1       7.461   4.019  23.705  0.00  0.00    -0.314 N 
ATOM     35  H   UNL     1       7.853   3.820  24.622  0.00  0.00    +0.149 HD
ATOM     36  C   UNL     1       5.711   3.480  23.668  0.00  0.00    +0.106 C 
ATOM     37  C   UNL     1       4.618   1.962  24.469  0.00  0.00    +0.050 C 
ENDROOT
BRANCH   1  39
ATOM     38  C   UNL     1       2.709   4.023  23.847  0.00  0.00    +0.234 C 
ATOM     39  N   UNL     1       2.418   2.664  24.858  0.00  0.00    -0.302 N 
ATOM     40  H   UNL     1       2.701   2.948  25.793  0.00  0.00    +0.150 HD
ATOM     41  O   UNL     1       2.735   3.837  22.613  0.00  0.00    -0.274 OA
BRANCH  38  42
ATOM     42  C   UNL     1       3.011   5.879  24.332  0.00  0.00    +0.160 C 
BRANCH  42  44
ATOM     43  C   UNL     1       5.562   6.447  25.439  0.00  0.00    +0.236 C 
ATOM     44  N   UNL     1       4.205   6.893  25.157  0.00  0.00    -0.302 N 
ATOM     45  H   UNL     1       3.824   7.313  26.001  0.00  0.00    +0.150 HD
ATOM     46  O   UNL     1       6.072   5.541  24.765  0.00  0.00    -0.274 OA
BRANCH  43  47
ATOM     47  C   UNL     1       6.530   7.088  26.660  0.00  0.00    +0.187 C 
BRANCH  47  49
ATOM     48  C   UNL     1       4.657   6.745  28.366  0.00  0.00    +0.234 C 
ATOM     49  N   UNL     1       5.987   7.059  28.038  0.00  0.00    -0.300 N 
ATOM     50  H   UNL     1       6.691   6.891  28.745  0.00  0.00    +0.150 HD
ATOM     51  O   UNL     1       3.754   6.495  27.566  0.00  0.00    -0.274 OA
BRANCH  48  52
ATOM     52  C   UNL     1       4.324   6.691  29.862  0.00  0.00    +0.160 C 
BRANCH  52  54
ATOM     53  C   UNL     1       2.459   5.125  30.313  0.00  0.00    +0.214 C 
ATOM     54  N   UNL     1       2.900   6.392  30.024  0.00  0.00    -0.304 N 
ATOM     55  H   UNL     1       2.254   7.164  29.906  0.00  0.00    +0.149 HD
ATOM     56  O   UNL     1       3.215   4.171  30.482  0.00  0.00    -0.276 OA
BRANCH  53  57
ATOM     57  C   UNL     1       0.960   4.973  30.451  0.00  0.00    +0.096 C 
BRANCH  57  58
ATOM     58  C   UNL     1       0.466   3.655  29.869  0.00  0.00    +0.009 C 
BRANCH  58  59
ATOM     59  C   UNL     1       1.299   2.501  30.404  0.00  0.00    +0.001 C 
BRANCH  59  60
ATOM     60  C   UNL     1       2.559   2.282  29.567  0.00  0.00    +0.003 C 
BRANCH  60  61
ATOM     61  C   UNL     1       2.365   2.744  28.111  0.00  0.00    -0.014 C 
ATOM     62  C   UNL     1       0.985   2.332  27.585  0.00  0.00    +0.007 C 
BRANCH  61  64
ATOM     63  C   UNL     1       4.262   1.062  27.926  0.00  0.00    +0.004 C 
ATOM     64  C   UNL     1       3.486   2.169  27.227  0.00  0.00    -0.000 C 
ENDBRANCH  61  64
ENDBRANCH  60  61
ENDBRANCH  59  60
ENDBRANCH  58  59
ENDBRANCH  57  58
ENDBRANCH  53  57
ENDBRANCH  52  54
BRANCH  52  65
ATOM     65  C   UNL     1       5.191   5.591  30.479  0.00  0.00    +0.047 C 
BRANCH  65  66
ATOM     66  C   UNL     1       5.588   4.550  29.426  0.00  0.00    +0.084 C 
BRANCH  66  67
ATOM     67  N   UNL     1       6.460   3.501  29.958  0.00  0.00    -0.299 NA
ATOM     68  H   UNL     1       5.976   2.808  30.513  0.00  0.00    +0.123 HD
BRANCH  67  69
ATOM     69  C   UNL     1       7.101   2.748  28.825  0.00  0.00    +0.236 C 
BRANCH  69  70
ATOM     70  S   UNL     1       7.462   0.956  29.014  0.00  0.00    -0.067 S 
ATOM     71  O   UNL     1       7.411   0.704  30.456  0.00  0.00    -0.184 OA
ATOM     72  O   UNL     1       8.802   0.812  28.446  0.00  0.00    -0.184 OA
ATOM     73  O   UNL     1       6.400   0.307  28.245  0.00  0.00    -0.723 OA
ENDBRANCH  69  70
ENDBRANCH  67  69
ENDBRANCH  66  67
ENDBRANCH  65  66
ENDBRANCH  52  65
ENDBRANCH  48  52
ENDBRANCH  47  49
BRANCH  47  74
ATOM     74  C   UNL     1       7.983   6.450  26.613  0.00  0.00    +0.141 C 
ATOM     75  C   UNL     1       8.170   5.533  27.817  0.00  0.00    +0.040 C 
BRANCH  74  76
ATOM     76  O   UNL     1       8.298   5.756  25.406  0.00  0.00    -0.390 OA
ATOM     77  H   UNL     1       9.040   5.152  25.607  0.00  0.00    +0.210 HD
ENDBRANCH  74  76
ENDBRANCH  47  74
ENDBRANCH  43  47
ENDBRANCH  42  44
BRANCH  42  78
ATOM     78  C   UNL     1       3.159   6.665  23.052  0.00  0.00    +0.047 C 
BRANCH  78  79
ATOM     79  C   UNL     1       3.173   5.755  21.889  0.00  0.00    +0.084 C 
BRANCH  79  80
ATOM     80  N   UNL     1       3.244   6.555  20.696  0.00  0.00    -0.299 NA
ATOM     81  H   UNL     1       4.154   6.995  20.545  0.00  0.00    +0.123 HD
BRANCH  80  82
ATOM     82  C   UNL     1       3.052   5.613  19.562  0.00  0.00    +0.236 C 
BRANCH  82  83
ATOM     83  S   UNL     1       1.428   5.597  18.767  0.00  0.00    -0.067 S 
ATOM     84  O   UNL     1       0.492   5.569  19.890  0.00  0.00    -0.184 OA
ATOM     85  O   UNL     1       1.457   4.368  17.970  0.00  0.00    -0.184 OA
ATOM     86  O   UNL     1       1.394   6.830  17.979  0.00  0.00    -0.723 OA
ENDBRANCH  82  83
ENDBRANCH  80  82
ENDBRANCH  79  80
ENDBRANCH  78  79
ENDBRANCH  42  78
ENDBRANCH  38  42
ENDBRANCH   1  39
BRANCH  31  87
ATOM     87  C   UNL     1      11.520   5.347  23.022  0.00  0.00    +0.141 C 
ATOM     88  C   UNL     1      12.772   5.383  23.899  0.00  0.00    +0.040 C 
BRANCH  87  89
ATOM     89  O   UNL     1      11.937   4.689  21.781  0.00  0.00    -0.390 OA
ATOM     90  H   UNL     1      12.794   5.054  21.484  0.00  0.00    +0.210 HD
ENDBRANCH  87  89
ENDBRANCH  31  87
BRANCH  16  91
ATOM     91  C   UNL     1       7.352  -6.064  25.388  0.00  0.00    +0.034 C 
BRANCH  91  92
ATOM     92  C   UNL     1       8.686  -5.845  24.730  0.00  0.00    -0.015 C 
ATOM     93  C   UNL     1       9.170  -7.173  24.157  0.00  0.00    +0.007 C 
ATOM     94  C   UNL     1       9.587  -5.242  25.760  0.00  0.00    +0.007 C 
ENDBRANCH  91  92
ENDBRANCH  16  91
BRANCH   6  95
ATOM     95  C   UNL     1       3.071  -7.150  27.869  0.00  0.00    +0.047 C 
BRANCH  95  96
ATOM     96  C   UNL     1       4.152  -7.939  29.493  0.00  0.00    +0.084 C 
BRANCH  96  97
ATOM     97  N   UNL     1       5.685  -8.355  30.465  0.00  0.00    -0.299 NA
ATOM     98  H   UNL     1       5.799  -7.833  31.365  0.00  0.00    +0.123 HD
BRANCH  97  99
ATOM     99  C   UNL     1       6.914  -9.429  30.462  0.00  0.00    +0.236 C 
BRANCH  99 100
ATOM    100  S   UNL     1       8.548  -9.836  29.170  0.00  0.00    -0.067 S 
ATOM    101  O   UNL     1       9.573 -10.382  30.080  0.00  0.00    -0.184 OA
ATOM    102  O   UNL     1       9.013  -8.591  28.550  0.00  0.00    -0.184 OA
ATOM    103  O   UNL     1       8.144 -10.841  28.182  0.00  0.00    -0.723 OA
ENDBRANCH  99 100
ENDBRANCH  97  99
ENDBRANCH  96  97
ENDBRANCH  95  96
ENDBRANCH   6  95
BRANCH  26 104
ATOM    104  C   UNL     1      10.921   0.349  24.249  0.00  0.00    +0.047 C 
BRANCH 104 105
ATOM    105  C   UNL     1      11.091  -1.138  23.867  0.00  0.00    +0.084 C 
BRANCH 105 106
ATOM    106  N   UNL     1      11.770  -1.275  22.611  0.00  0.00    -0.299 NA
ATOM    107  H   UNL     1      12.424  -0.508  22.454  0.00  0.00    +0.123 HD
BRANCH 106 108
ATOM    108  C   UNL     1      12.561  -2.527  22.565  0.00  0.00    +0.236 C 
BRANCH 108 109
ATOM    109  S   UNL     1      14.156  -2.438  21.731  0.00  0.00    -0.067 S 
ATOM    110  O   UNL     1      14.805  -3.706  22.054  0.00  0.00    -0.184 OA
ATOM    111  O   UNL     1      14.782  -1.259  22.335  0.00  0.00    -0.184 OA
ATOM    112  O   UNL     1      13.777  -2.268  20.326  0.00  0.00    -0.723 OA
ENDBRANCH 108 109
ENDBRANCH 106 108
ENDBRANCH 105 106
ENDBRANCH 104 105
ENDBRANCH  26 104
BRANCH  21 113
ATOM    113  C   UNL     1       6.322  -1.374  23.884  0.00  0.00    +0.047 C 
BRANCH 113 114
ATOM    114  C   UNL     1       6.613  -1.054  22.488  0.00  0.00    +0.084 C 
BRANCH 114 115
ATOM    115  N   UNL     1       5.778   0.085  22.425  0.00  0.00    -0.299 NA
ATOM    116  H   UNL     1       4.954   0.032  23.014  0.00  0.00    +0.123 HD
BRANCH 115 117
ATOM    117  C   UNL     1       6.753   1.196  22.730  0.00  0.00    +0.236 C 
BRANCH 117 118
ATOM    118  S   UNL     1       8.136   1.882  20.976  0.00  0.00    -0.067 S 
ATOM    119  O   UNL     1       8.032   3.326  20.813  0.00  0.00    -0.184 OA
ATOM    120  O   UNL     1       7.707   1.319  19.669  0.00  0.00    -0.184 OA
ATOM    121  O   UNL     1       9.489   1.427  21.243  0.00  0.00    -0.723 OA
ENDBRANCH 117 118
ENDBRANCH 115 117
ENDBRANCH 114 115
ENDBRANCH 113 114
ENDBRANCH  21 113
BRANCH  11 122
ATOM    122  C   UNL     1       1.899  -7.267  24.053  0.00  0.00    +0.034 C 
BRANCH 122 123
ATOM    123  C   UNL     1       1.555  -8.311  23.007  0.00  0.00    -0.015 C 
ATOM    124  C   UNL     1       0.747  -8.148  21.731  0.00  0.00    +0.007 C 
ATOM    125  C   UNL     1       1.312  -9.517  23.845  0.00  0.00    +0.007 C 
ENDBRANCH 122 123
ENDBRANCH  11 122
TORSDOF 46
ENDMDL
