MODEL 1
REMARK VINA RESULT:      -6.3      0.000      0.000
REMARK  Name = 
REMARK  6 active torsions:
REMARK  status: ('A' for Active; 'I' for Inactive)
REMARK    1  A    between atoms: C_1  and  S_2
REMARK    2  A    between atoms: S_2  and  C_3
REMARK    3  A    between atoms: C_3  and  C_4
REMARK    4  A    between atoms: C_7  and  N_15
REMARK    5  A    between atoms: C_9  and  O_11
REMARK    6  A    between atoms: C_12  and  O_14
REMARK                            x       y       z     vdW  Elec       q    Type
REMARK                         _______ _______ _______ _____ _____    ______ ____
ROOT
ATOM      1  C   UNL     1       8.382  -3.958  26.424  0.00  0.00    +0.162 C 
ATOM      2  C   UNL     1       8.632  -5.128  25.467  0.00  0.00    +0.177 C 
ATOM      3  C   UNL     1       8.565  -4.533  24.062  0.00  0.00    +0.195 C 
ATOM      4  C   UNL     1       8.208  -3.065  24.301  0.00  0.00    +0.253 C 
ATOM      5  O   UNL     1       8.642  -2.768  25.644  0.00  0.00    -0.347 OA
ENDROOT
BRANCH   4   6
ATOM      6  N   UNL     1       8.780  -2.098  23.385  0.00  0.00    -0.286 N 
ATOM      7  C   UNL     1       8.220  -0.901  23.019  0.00  0.00    +0.167 A 
ATOM      8  N   UNL     1       6.949  -0.491  23.189  0.00  0.00    -0.216 NA
ATOM      9  C   UNL     1       6.792   0.773  22.733  0.00  0.00    +0.225 A 
ATOM     10  N   UNL     1       7.728   1.612  22.238  0.00  0.00    -0.219 NA
ATOM     11  C   UNL     1       9.000   1.166  22.138  0.00  0.00    +0.147 A 
ATOM     12  N   UNL     1       9.983   2.050  21.722  0.00  0.00    -0.341 N 
ATOM     13  H   UNL     1      10.840   1.614  21.405  0.00  0.00    +0.144 HD
ATOM     14  H   UNL     1       9.630   2.857  21.230  0.00  0.00    +0.144 HD
ATOM     15  C   UNL     1       9.270  -0.168  22.486  0.00  0.00    +0.147 A 
ATOM     16  N   UNL     1      10.422  -0.922  22.437  0.00  0.00    -0.231 NA
ATOM     17  C   UNL     1      10.090  -2.076  22.974  0.00  0.00    +0.203 A 
ENDBRANCH   4   6
BRANCH   2  18
ATOM     18  O   UNL     1       9.952  -5.654  25.701  0.00  0.00    -0.386 OA
ATOM     19  H   UNL     1      10.466  -5.585  24.876  0.00  0.00    +0.210 HD
ENDBRANCH   2  18
BRANCH   3  20
ATOM     20  O   UNL     1       7.563  -5.187  23.280  0.00  0.00    -0.385 OA
ATOM     21  H   UNL     1       7.997  -5.965  22.874  0.00  0.00    +0.210 HD
ENDBRANCH   3  20
BRANCH   1  22
ATOM     22  C   UNL     1       6.953  -3.874  26.995  0.00  0.00    +0.103 C 
BRANCH  22  24
ATOM     23  C   UNL     1       4.797  -4.772  25.472  0.00  0.00    +0.084 C 
ATOM     24  S   UNL     1       5.914  -5.355  26.770  0.00  0.00    -0.161 S 
ENDBRANCH  22  24
ENDBRANCH   1  22
TORSDOF 5
ENDMDL
MODEL 2
REMARK VINA RESULT:      -6.2      2.108      2.707
REMARK  Name = 
REMARK  6 active torsions:
REMARK  status: ('A' for Active; 'I' for Inactive)
REMARK    1  A    between atoms: C_1  and  S_2
REMARK    2  A    between atoms: S_2  and  C_3
REMARK    3  A    between atoms: C_3  and  C_4
REMARK    4  A    between atoms: C_7  and  N_15
REMARK    5  A    between atoms: C_9  and  O_11
REMARK    6  A    between atoms: C_12  and  O_14
REMARK                            x       y       z     vdW  Elec       q    Type
REMARK                         _______ _______ _______ _____ _____    ______ ____
ROOT
ATOM      1  C   UNL     1       6.630  -4.895  25.553  0.00  0.00    +0.162 C 
ATOM      2  C   UNL     1       7.914  -5.572  26.042  0.00  0.00    +0.177 C 
ATOM      3  C   UNL     1       9.049  -4.614  25.681  0.00  0.00    +0.195 C 
ATOM      4  C   UNL     1       8.347  -3.476  24.940  0.00  0.00    +0.253 C 
ATOM      5  O   UNL     1       6.977  -3.500  25.389  0.00  0.00    -0.347 OA
ENDROOT
BRANCH   4   6
ATOM      6  N   UNL     1       8.891  -2.145  25.125  0.00  0.00    -0.286 N 
ATOM      7  C   UNL     1       9.380  -1.327  24.139  0.00  0.00    +0.167 A 
ATOM      8  N   UNL     1       9.717  -1.655  22.878  0.00  0.00    -0.216 NA
ATOM      9  C   UNL     1      10.121  -0.561  22.193  0.00  0.00    +0.225 A 
ATOM     10  N   UNL     1      10.141   0.727  22.601  0.00  0.00    -0.219 NA
ATOM     11  C   UNL     1       9.741   1.007  23.862  0.00  0.00    +0.147 A 
ATOM     12  N   UNL     1       9.668   2.334  24.256  0.00  0.00    -0.341 N 
ATOM     13  H   UNL     1       9.634   2.478  25.258  0.00  0.00    +0.144 HD
ATOM     14  H   UNL     1      10.211   2.965  23.686  0.00  0.00    +0.144 HD
ATOM     15  C   UNL     1       9.395  -0.061  24.706  0.00  0.00    +0.147 A 
ATOM     16  N   UNL     1       9.016  -0.110  26.030  0.00  0.00    -0.231 NA
ATOM     17  C   UNL     1       8.731  -1.374  26.250  0.00  0.00    +0.203 A 
ENDBRANCH   4   6
BRANCH   2  18
ATOM     18  O   UNL     1       7.853  -5.722  27.474  0.00  0.00    -0.386 OA
ATOM     19  H   UNL     1       8.488  -6.410  27.743  0.00  0.00    +0.210 HD
ENDBRANCH   2  18
BRANCH   3  20
ATOM     20  O   UNL     1      10.011  -5.260  24.844  0.00  0.00    -0.385 OA
ATOM     21  H   UNL     1       9.501  -5.715  24.142  0.00  0.00    +0.210 HD
ENDBRANCH   3  20
BRANCH   1  22
ATOM     22  C   UNL     1       6.078  -5.429  24.218  0.00  0.00    +0.103 C 
BRANCH  22  24
ATOM     23  C   UNL     1       5.973  -3.814  21.947  0.00  0.00    +0.084 C 
ATOM     24  S   UNL     1       4.927  -4.328  23.331  0.00  0.00    -0.161 S 
ENDBRANCH  22  24
ENDBRANCH   1  22
TORSDOF 5
ENDMDL
MODEL 3
REMARK VINA RESULT:      -6.0      2.190      3.162
REMARK  Name = 
REMARK  6 active torsions:
REMARK  status: ('A' for Active; 'I' for Inactive)
REMARK    1  A    between atoms: C_1  and  S_2
REMARK    2  A    between atoms: S_2  and  C_3
REMARK    3  A    between atoms: C_3  and  C_4
REMARK    4  A    between atoms: C_7  and  N_15
REMARK    5  A    between atoms: C_9  and  O_11
REMARK    6  A    between atoms: C_12  and  O_14
REMARK                            x       y       z     vdW  Elec       q    Type
REMARK                         _______ _______ _______ _____ _____    ______ ____
ROOT
ATOM      1  C   UNL     1       7.485  -3.803  22.694  0.00  0.00    +0.162 C 
ATOM      2  C   UNL     1       6.081  -3.191  22.690  0.00  0.00    +0.177 C 
ATOM      3  C   UNL     1       6.278  -1.704  22.985  0.00  0.00    +0.195 C 
ATOM      4  C   UNL     1       7.785  -1.571  23.210  0.00  0.00    +0.253 C 
ATOM      5  O   UNL     1       8.386  -2.685  22.519  0.00  0.00    -0.347 OA
ENDROOT
BRANCH   4   6
ATOM      6  N   UNL     1       8.404  -0.337  22.767  0.00  0.00    -0.286 N 
ATOM      7  C   UNL     1       8.440   0.844  23.461  0.00  0.00    +0.167 A 
ATOM      8  N   UNL     1       7.706   1.203  24.531  0.00  0.00    -0.216 NA
ATOM      9  C   UNL     1       8.062   2.435  24.961  0.00  0.00    +0.225 A 
ATOM     10  N   UNL     1       9.050   3.234  24.502  0.00  0.00    -0.219 NA
ATOM     11  C   UNL     1       9.793   2.800  23.459  0.00  0.00    +0.147 A 
ATOM     12  N   UNL     1      10.869   3.570  23.045  0.00  0.00    -0.341 N 
ATOM     13  H   UNL     1      11.213   3.354  22.117  0.00  0.00    +0.144 HD
ATOM     14  H   UNL     1      10.827   4.533  23.343  0.00  0.00    +0.144 HD
ATOM     15  C   UNL     1       9.452   1.577  22.859  0.00  0.00    +0.147 A 
ATOM     16  N   UNL     1       9.961   0.908  21.767  0.00  0.00    -0.231 NA
ATOM     17  C   UNL     1       9.304  -0.230  21.736  0.00  0.00    +0.203 A 
ENDBRANCH   4   6
BRANCH   2  18
ATOM     18  O   UNL     1       5.502  -3.345  21.380  0.00  0.00    -0.386 OA
ATOM     19  H   UNL     1       6.125  -3.842  20.821  0.00  0.00    +0.210 HD
ENDBRANCH   2  18
BRANCH   3  20
ATOM     20  O   UNL     1       5.546  -1.316  24.149  0.00  0.00    -0.385 OA
ATOM     21  H   UNL     1       6.199  -1.260  24.877  0.00  0.00    +0.210 HD
ENDBRANCH   3  20
BRANCH   1  22
ATOM     22  C   UNL     1       7.869  -4.551  23.985  0.00  0.00    +0.103 C 
BRANCH  22  24
ATOM     23  C   UNL     1       7.429  -5.321  26.629  0.00  0.00    +0.084 C 
ATOM     24  S   UNL     1       6.499  -4.930  25.127  0.00  0.00    -0.161 S 
ENDBRANCH  22  24
ENDBRANCH   1  22
TORSDOF 5
ENDMDL
MODEL 4
REMARK VINA RESULT:      -6.0      3.683      6.264
REMARK  Name = 
REMARK  6 active torsions:
REMARK  status: ('A' for Active; 'I' for Inactive)
REMARK    1  A    between atoms: C_1  and  S_2
REMARK    2  A    between atoms: S_2  and  C_3
REMARK    3  A    between atoms: C_3  and  C_4
REMARK    4  A    between atoms: C_7  and  N_15
REMARK    5  A    between atoms: C_9  and  O_11
REMARK    6  A    between atoms: C_12  and  O_14
REMARK                            x       y       z     vdW  Elec       q    Type
REMARK                         _______ _______ _______ _____ _____    ______ ____
ROOT
ATOM      1  C   UNL     1       7.905  -0.267  22.662  0.00  0.00    +0.162 C 
ATOM      2  C   UNL     1       9.254  -0.909  22.322  0.00  0.00    +0.177 C 
ATOM      3  C   UNL     1       9.110  -2.387  22.685  0.00  0.00    +0.195 C 
ATOM      4  C   UNL     1       7.704  -2.484  23.279  0.00  0.00    +0.253 C 
ATOM      5  O   UNL     1       6.970  -1.368  22.737  0.00  0.00    -0.347 OA
ENDROOT
BRANCH   4   6
ATOM      6  N   UNL     1       6.974  -3.711  23.027  0.00  0.00    -0.286 N 
ATOM      7  C   UNL     1       6.515  -4.588  23.975  0.00  0.00    +0.167 A 
ATOM      8  N   UNL     1       6.860  -4.665  25.274  0.00  0.00    -0.216 NA
ATOM      9  C   UNL     1       6.156  -5.637  25.897  0.00  0.00    +0.225 A 
ATOM     10  N   UNL     1       5.172  -6.417  25.397  0.00  0.00    -0.219 NA
ATOM     11  C   UNL     1       4.828  -6.260  24.099  0.00  0.00    +0.147 A 
ATOM     12  N   UNL     1       3.757  -6.987  23.604  0.00  0.00    -0.341 N 
ATOM     13  H   UNL     1       3.713  -7.046  22.593  0.00  0.00    +0.144 HD
ATOM     14  H   UNL     1       3.518  -7.798  24.155  0.00  0.00    +0.144 HD
ATOM     15  C   UNL     1       5.559  -5.350  23.318  0.00  0.00    +0.147 A 
ATOM     16  N   UNL     1       5.497  -5.017  21.982  0.00  0.00    -0.231 NA
ATOM     17  C   UNL     1       6.365  -4.039  21.841  0.00  0.00    +0.203 A 
ENDBRANCH   4   6
BRANCH   2  18
ATOM     18  O   UNL     1       9.492  -0.786  20.907  0.00  0.00    -0.386 OA
ATOM     19  H   UNL     1      10.205  -0.138  20.766  0.00  0.00    +0.210 HD
ENDBRANCH   2  18
BRANCH   3  20
ATOM     20  O   UNL     1      10.102  -2.774  23.639  0.00  0.00    -0.385 OA
ATOM     21  H   UNL     1       9.748  -3.565  24.095  0.00  0.00    +0.210 HD
ENDBRANCH   3  20
BRANCH   1  22
ATOM     22  C   UNL     1       7.866   0.508  23.993  0.00  0.00    +0.103 C 
BRANCH  22  24
ATOM     23  C   UNL     1       9.438   2.805  24.154  0.00  0.00    +0.084 C 
ATOM     24  S   UNL     1       9.477   1.063  24.642  0.00  0.00    -0.161 S 
ENDBRANCH  22  24
ENDBRANCH   1  22
TORSDOF 5
ENDMDL
MODEL 5
REMARK VINA RESULT:      -5.8      3.738      6.435
REMARK  Name = 
REMARK  6 active torsions:
REMARK  status: ('A' for Active; 'I' for Inactive)
REMARK    1  A    between atoms: C_1  and  S_2
REMARK    2  A    between atoms: S_2  and  C_3
REMARK    3  A    between atoms: C_3  and  C_4
REMARK    4  A    between atoms: C_7  and  N_15
REMARK    5  A    between atoms: C_9  and  O_11
REMARK    6  A    between atoms: C_12  and  O_14
REMARK                            x       y       z     vdW  Elec       q    Type
REMARK                         _______ _______ _______ _____ _____    ______ ____
ROOT
ATOM      1  C   UNL     1       8.917   2.155  22.230  0.00  0.00    +0.162 C 
ATOM      2  C   UNL     1       9.373   2.694  23.589  0.00  0.00    +0.177 C 
ATOM      3  C   UNL     1       9.372   1.491  24.531  0.00  0.00    +0.195 C 
ATOM      4  C   UNL     1       8.844   0.346  23.665  0.00  0.00    +0.253 C 
ATOM      5  O   UNL     1       9.121   0.725  22.302  0.00  0.00    -0.347 OA
ENDROOT
BRANCH   4   6
ATOM      6  N   UNL     1       9.392  -0.971  23.922  0.00  0.00    -0.286 N 
ATOM      7  C   UNL     1       8.960  -1.855  24.876  0.00  0.00    +0.167 A 
ATOM      8  N   UNL     1       8.159  -1.614  25.931  0.00  0.00    -0.216 NA
ATOM      9  C   UNL     1       7.926  -2.753  26.622  0.00  0.00    +0.225 A 
ATOM     10  N   UNL     1       8.324  -4.011  26.330  0.00  0.00    -0.219 NA
ATOM     11  C   UNL     1       9.082  -4.204  25.228  0.00  0.00    +0.147 A 
ATOM     12  N   UNL     1       9.414  -5.501  24.869  0.00  0.00    -0.341 N 
ATOM     13  H   UNL     1      10.189  -5.577  24.220  0.00  0.00    +0.144 HD
ATOM     14  H   UNL     1       9.333  -6.170  25.619  0.00  0.00    +0.144 HD
ATOM     15  C   UNL     1       9.478  -3.080  24.484  0.00  0.00    +0.147 A 
ATOM     16  N   UNL     1      10.283  -2.941  23.374  0.00  0.00    -0.231 NA
ATOM     17  C   UNL     1      10.217  -1.664  23.070  0.00  0.00    +0.203 A 
ENDBRANCH   4   6
BRANCH   2  18
ATOM     18  O   UNL     1      10.714   3.204  23.468  0.00  0.00    -0.386 OA
ATOM     19  H   UNL     1      11.053   2.983  22.582  0.00  0.00    +0.210 HD
ENDBRANCH   2  18
BRANCH   3  20
ATOM     20  O   UNL     1       8.517   1.726  25.653  0.00  0.00    -0.385 OA
ATOM     21  H   UNL     1       8.909   2.479  26.142  0.00  0.00    +0.210 HD
ENDBRANCH   3  20
BRANCH   1  22
ATOM     22  C   UNL     1       7.442   2.428  21.879  0.00  0.00    +0.103 C 
BRANCH  22  24
ATOM     23  C   UNL     1       7.163   5.188  22.160  0.00  0.00    +0.084 C 
ATOM     24  S   UNL     1       6.585   3.652  22.924  0.00  0.00    -0.161 S 
ENDBRANCH  22  24
ENDBRANCH   1  22
TORSDOF 5
ENDMDL
MODEL 6
REMARK VINA RESULT:      -5.8      3.728      5.814
REMARK  Name = 
REMARK  6 active torsions:
REMARK  status: ('A' for Active; 'I' for Inactive)
REMARK    1  A    between atoms: C_1  and  S_2
REMARK    2  A    between atoms: S_2  and  C_3
REMARK    3  A    between atoms: C_3  and  C_4
REMARK    4  A    between atoms: C_7  and  N_15
REMARK    5  A    between atoms: C_9  and  O_11
REMARK    6  A    between atoms: C_12  and  O_14
REMARK                            x       y       z     vdW  Elec       q    Type
REMARK                         _______ _______ _______ _____ _____    ______ ____
ROOT
ATOM      1  C   UNL     1       9.823   1.078  23.050  0.00  0.00    +0.162 C 
ATOM      2  C   UNL     1      10.229   1.049  24.527  0.00  0.00    +0.177 C 
ATOM      3  C   UNL     1       9.444  -0.107  25.147  0.00  0.00    +0.195 C 
ATOM      4  C   UNL     1       8.579  -0.624  23.996  0.00  0.00    +0.253 C 
ATOM      5  O   UNL     1       9.257  -0.226  22.786  0.00  0.00    -0.347 OA
ENDROOT
BRANCH   4   6
ATOM      6  N   UNL     1       8.326  -2.050  23.961  0.00  0.00    -0.286 N 
ATOM      7  C   UNL     1       7.338  -2.679  23.249  0.00  0.00    +0.167 A 
ATOM      8  N   UNL     1       6.251  -2.132  22.673  0.00  0.00    -0.216 NA
ATOM      9  C   UNL     1       5.532  -3.074  22.022  0.00  0.00    +0.225 A 
ATOM     10  N   UNL     1       5.820  -4.383  21.849  0.00  0.00    -0.219 NA
ATOM     11  C   UNL     1       6.953  -4.869  22.405  0.00  0.00    +0.147 A 
ATOM     12  N   UNL     1       7.304  -6.186  22.152  0.00  0.00    -0.341 N 
ATOM     13  H   UNL     1       7.986  -6.574  22.793  0.00  0.00    +0.144 HD
ATOM     14  H   UNL     1       6.540  -6.764  21.838  0.00  0.00    +0.144 HD
ATOM     15  C   UNL     1       7.733  -4.008  23.194  0.00  0.00    +0.147 A 
ATOM     16  N   UNL     1       8.881  -4.211  23.929  0.00  0.00    -0.231 NA
ATOM     17  C   UNL     1       9.203  -3.019  24.382  0.00  0.00    +0.203 A 
ENDBRANCH   4   6
BRANCH   2  18
ATOM     18  O   UNL     1      11.639   0.773  24.623  0.00  0.00    -0.386 OA
ATOM     19  H   UNL     1      11.761  -0.070  25.095  0.00  0.00    +0.210 HD
ENDBRANCH   2  18
BRANCH   3  20
ATOM     20  O   UNL     1       8.636   0.354  26.233  0.00  0.00    -0.385 OA
ATOM     21  H   UNL     1       8.965  -0.106  27.033  0.00  0.00    +0.210 HD
ENDBRANCH   3  20
BRANCH   1  22
ATOM     22  C   UNL     1       8.784   2.154  22.679  0.00  0.00    +0.103 C 
BRANCH  22  24
ATOM     23  C   UNL     1       7.296   4.483  23.045  0.00  0.00    +0.084 C 
ATOM     24  S   UNL     1       8.564   3.503  23.885  0.00  0.00    -0.161 S 
ENDBRANCH  22  24
ENDBRANCH   1  22
TORSDOF 5
ENDMDL
MODEL 7
REMARK VINA RESULT:      -5.6      1.750      2.076
REMARK  Name = 
REMARK  6 active torsions:
REMARK  status: ('A' for Active; 'I' for Inactive)
REMARK    1  A    between atoms: C_1  and  S_2
REMARK    2  A    between atoms: S_2  and  C_3
REMARK    3  A    between atoms: C_3  and  C_4
REMARK    4  A    between atoms: C_7  and  N_15
REMARK    5  A    between atoms: C_9  and  O_11
REMARK    6  A    between atoms: C_12  and  O_14
REMARK                            x       y       z     vdW  Elec       q    Type
REMARK                         _______ _______ _______ _____ _____    ______ ____
ROOT
ATOM      1  C   UNL     1       7.094  -4.105  24.558  0.00  0.00    +0.162 C 
ATOM      2  C   UNL     1       6.685  -4.738  23.225  0.00  0.00    +0.177 C 
ATOM      3  C   UNL     1       6.744  -3.609  22.197  0.00  0.00    +0.195 C 
ATOM      4  C   UNL     1       7.116  -2.378  23.024  0.00  0.00    +0.253 C 
ATOM      5  O   UNL     1       7.778  -2.881  24.202  0.00  0.00    -0.347 OA
ENDROOT
BRANCH   4   6
ATOM      6  N   UNL     1       7.960  -1.391  22.381  0.00  0.00    -0.286 N 
ATOM      7  C   UNL     1       7.809  -0.031  22.446  0.00  0.00    +0.167 A 
ATOM      8  N   UNL     1       6.735   0.667  22.862  0.00  0.00    -0.216 NA
ATOM      9  C   UNL     1       6.986   1.996  22.819  0.00  0.00    +0.225 A 
ATOM     10  N   UNL     1       8.137   2.626  22.498  0.00  0.00    -0.219 NA
ATOM     11  C   UNL     1       9.201   1.873  22.139  0.00  0.00    +0.147 A 
ATOM     12  N   UNL     1      10.412   2.505  21.902  0.00  0.00    -0.341 N 
ATOM     13  H   UNL     1      11.084   1.953  21.382  0.00  0.00    +0.144 HD
ATOM     14  H   UNL     1      10.332   3.492  21.710  0.00  0.00    +0.144 HD
ATOM     15  C   UNL     1       9.035   0.481  22.046  0.00  0.00    +0.147 A 
ATOM     16  N   UNL     1       9.886  -0.529  21.656  0.00  0.00    -0.231 NA
ATOM     17  C   UNL     1       9.207  -1.637  21.860  0.00  0.00    +0.203 A 
ENDBRANCH   4   6
BRANCH   2  18
ATOM     18  O   UNL     1       7.642  -5.755  22.872  0.00  0.00    -0.386 OA
ATOM     19  H   UNL     1       8.257  -5.389  22.212  0.00  0.00    +0.210 HD
ENDBRANCH   2  18
BRANCH   3  20
ATOM     20  O   UNL     1       5.477  -3.438  21.558  0.00  0.00    -0.385 OA
ATOM     21  H   UNL     1       5.647  -2.913  20.749  0.00  0.00    +0.210 HD
ENDBRANCH   3  20
BRANCH   1  22
ATOM     22  C   UNL     1       5.928  -3.764  25.505  0.00  0.00    +0.103 C 
BRANCH  22  24
ATOM     23  C   UNL     1       4.728  -2.527  27.698  0.00  0.00    +0.084 C 
ATOM     24  S   UNL     1       6.237  -2.426  26.705  0.00  0.00    -0.161 S 
ENDBRANCH  22  24
ENDBRANCH   1  22
TORSDOF 5
ENDMDL
MODEL 8
REMARK VINA RESULT:      -5.6      3.589      5.906
REMARK  Name = 
REMARK  6 active torsions:
REMARK  status: ('A' for Active; 'I' for Inactive)
REMARK    1  A    between atoms: C_1  and  S_2
REMARK    2  A    between atoms: S_2  and  C_3
REMARK    3  A    between atoms: C_3  and  C_4
REMARK    4  A    between atoms: C_7  and  N_15
REMARK    5  A    between atoms: C_9  and  O_11
REMARK    6  A    between atoms: C_12  and  O_14
REMARK                            x       y       z     vdW  Elec       q    Type
REMARK                         _______ _______ _______ _____ _____    ______ ____
ROOT
ATOM      1  C   UNL     1       8.933  -0.018  23.147  0.00  0.00    +0.162 C 
ATOM      2  C   UNL     1       9.860  -1.078  22.545  0.00  0.00    +0.177 C 
ATOM      3  C   UNL     1       9.423  -2.406  23.162  0.00  0.00    +0.195 C 
ATOM      4  C   UNL     1       8.315  -2.011  24.139  0.00  0.00    +0.253 C 
ATOM      5  O   UNL     1       7.797  -0.754  23.658  0.00  0.00    -0.347 OA
ENDROOT
BRANCH   4   6
ATOM      6  N   UNL     1       7.224  -2.952  24.302  0.00  0.00    -0.286 N 
ATOM      7  C   UNL     1       6.633  -3.686  23.307  0.00  0.00    +0.167 A 
ATOM      8  N   UNL     1       6.726  -3.508  21.976  0.00  0.00    -0.216 NA
ATOM      9  C   UNL     1       6.031  -4.465  21.319  0.00  0.00    +0.225 A 
ATOM     10  N   UNL     1       5.377  -5.531  21.829  0.00  0.00    -0.219 NA
ATOM     11  C   UNL     1       5.361  -5.691  23.171  0.00  0.00    +0.147 A 
ATOM     12  N   UNL     1       4.775  -6.831  23.697  0.00  0.00    -0.341 N 
ATOM     13  H   UNL     1       4.546  -6.776  24.682  0.00  0.00    +0.144 HD
ATOM     14  H   UNL     1       4.136  -7.294  23.069  0.00  0.00    +0.144 HD
ATOM     15  C   UNL     1       5.962  -4.703  23.970  0.00  0.00    +0.147 A 
ATOM     16  N   UNL     1       6.057  -4.548  25.335  0.00  0.00    -0.231 NA
ATOM     17  C   UNL     1       6.811  -3.483  25.499  0.00  0.00    +0.203 A 
ENDBRANCH   4   6
BRANCH   2  18
ATOM     18  O   UNL     1       9.658  -1.126  21.119  0.00  0.00    -0.386 OA
ATOM     19  H   UNL     1       9.639  -2.058  20.838  0.00  0.00    +0.210 HD
ENDBRANCH   2  18
BRANCH   3  20
ATOM     20  O   UNL     1      10.513  -3.031  23.844  0.00  0.00    -0.385 OA
ATOM     21  H   UNL     1      11.054  -2.305  24.218  0.00  0.00    +0.210 HD
ENDBRANCH   3  20
BRANCH   1  22
ATOM     22  C   UNL     1       9.544   0.809  24.294  0.00  0.00    +0.103 C 
BRANCH  22  24
ATOM     23  C   UNL     1       8.446   2.742  22.610  0.00  0.00    +0.084 C 
ATOM     24  S   UNL     1       9.441   2.621  24.117  0.00  0.00    -0.161 S 
ENDBRANCH  22  24
ENDBRANCH   1  22
TORSDOF 5
ENDMDL
MODEL 9
REMARK VINA RESULT:      -5.6      2.296      3.008
REMARK  Name = 
REMARK  6 active torsions:
REMARK  status: ('A' for Active; 'I' for Inactive)
REMARK    1  A    between atoms: C_1  and  S_2
REMARK    2  A    between atoms: S_2  and  C_3
REMARK    3  A    between atoms: C_3  and  C_4
REMARK    4  A    between atoms: C_7  and  N_15
REMARK    5  A    between atoms: C_9  and  O_11
REMARK    6  A    between atoms: C_12  and  O_14
REMARK                            x       y       z     vdW  Elec       q    Type
REMARK                         _______ _______ _______ _____ _____    ______ ____
ROOT
ATOM      1  C   UNL     1       5.378  -5.640  23.838  0.00  0.00    +0.162 C 
ATOM      2  C   UNL     1       5.556  -5.676  22.317  0.00  0.00    +0.177 C 
ATOM      3  C   UNL     1       6.304  -4.393  21.959  0.00  0.00    +0.195 C 
ATOM      4  C   UNL     1       6.445  -3.664  23.297  0.00  0.00    +0.253 C 
ATOM      5  O   UNL     1       6.355  -4.684  24.312  0.00  0.00    -0.347 OA
ENDROOT
BRANCH   4   6
ATOM      6  N   UNL     1       7.656  -2.892  23.494  0.00  0.00    -0.286 N 
ATOM      7  C   UNL     1       7.742  -1.527  23.569  0.00  0.00    +0.167 A 
ATOM      8  N   UNL     1       6.818  -0.615  23.212  0.00  0.00    -0.216 NA
ATOM      9  C   UNL     1       7.258   0.637  23.478  0.00  0.00    +0.225 A 
ATOM     10  N   UNL     1       8.404   1.016  24.085  0.00  0.00    -0.219 NA
ATOM     11  C   UNL     1       9.273   0.055  24.472  0.00  0.00    +0.147 A 
ATOM     12  N   UNL     1      10.404   0.428  25.180  0.00  0.00    -0.341 N 
ATOM     13  H   UNL     1      11.139  -0.268  25.203  0.00  0.00    +0.144 HD
ATOM     14  H   UNL     1      10.651   1.401  25.080  0.00  0.00    +0.144 HD
ATOM     15  C   UNL     1       8.974  -1.282  24.158  0.00  0.00    +0.147 A 
ATOM     16  N   UNL     1       9.668  -2.456  24.354  0.00  0.00    -0.231 NA
ATOM     17  C   UNL     1       8.853  -3.400  23.936  0.00  0.00    +0.203 A 
ENDBRANCH   4   6
BRANCH   2  18
ATOM     18  O   UNL     1       6.365  -6.814  21.964  0.00  0.00    -0.386 OA
ATOM     19  H   UNL     1       7.244  -6.710  22.371  0.00  0.00    +0.210 HD
ENDBRANCH   2  18
BRANCH   3  20
ATOM     20  O   UNL     1       5.556  -3.613  21.023  0.00  0.00    -0.385 OA
ATOM     21  H   UNL     1       4.611  -3.784  21.219  0.00  0.00    +0.210 HD
ENDBRANCH   3  20
BRANCH   1  22
ATOM     22  C   UNL     1       3.982  -5.203  24.323  0.00  0.00    +0.103 C 
BRANCH  22  24
ATOM     23  C   UNL     1       4.475  -6.859  26.511  0.00  0.00    +0.084 C 
ATOM     24  S   UNL     1       3.115  -6.370  25.422  0.00  0.00    -0.161 S 
ENDBRANCH  22  24
ENDBRANCH   1  22
TORSDOF 5
ENDMDL
