MODEL 1
REMARK VINA RESULT:      -7.9      0.000      0.000
REMARK  Name = 
REMARK  9 active torsions:
REMARK  status: ('A' for Active; 'I' for Inactive)
REMARK    1  A    between atoms: C_2  and  C_3
REMARK    2  A    between atoms: C_6  and  O_7
REMARK    3  A    between atoms: C_12  and  C_14
REMARK    4  A    between atoms: C_17  and  O_18
REMARK    5  A    between atoms: O_18  and  C_19
REMARK    6  A    between atoms: C_19  and  C_20
REMARK    7  A    between atoms: C_20  and  N_21
REMARK    8  A    between atoms: C_28  and  C_30
REMARK    9  A    between atoms: C_33  and  O_34
REMARK                            x       y       z     vdW  Elec       q    Type
REMARK                         _______ _______ _______ _____ _____    ______ ____
ROOT
ATOM      1  C   UNL     1       7.517   4.409  22.943  0.00  0.00    +0.031 C 
ATOM      2  C   UNL     1       8.517   4.452  24.149  0.00  0.00    +0.071 C 
ATOM      3  C   UNL     1       8.248   3.233  25.107  0.00  0.00    +0.211 C 
ATOM      4  O   UNL     1       6.899   3.324  25.618  0.00  0.00    -0.483 OA
ATOM      5  C   UNL     1       5.933   3.381  24.650  0.00  0.00    +0.125 A 
ATOM      6  C   UNL     1       4.672   2.916  25.029  0.00  0.00    +0.049 A 
ATOM      7  C   UNL     1       3.646   2.828  24.090  0.00  0.00    +0.049 A 
ATOM      8  C   UNL     1       3.893   3.206  22.779  0.00  0.00    +0.117 A 
ATOM      9  C   UNL     1       5.133   3.720  22.403  0.00  0.00    +0.053 A 
ATOM     10  C   UNL     1       6.166   3.848  23.350  0.00  0.00    +0.001 A 
ATOM     11  C   UNL     1       7.395   5.779  22.256  0.00  0.00    +0.013 C 
ENDROOT
BRANCH   2  12
ATOM     12  C   UNL     1      10.014   4.633  23.830  0.00  0.00    -0.040 A 
ATOM     13  C   UNL     1      10.635   5.856  24.141  0.00  0.00    +0.007 A 
ATOM     14  C   UNL     1      12.011   6.049  23.939  0.00  0.00    +0.045 A 
ATOM     15  C   UNL     1      12.777   5.016  23.411  0.00  0.00    +0.117 A 
ATOM     16  C   UNL     1      12.192   3.807  23.070  0.00  0.00    +0.045 A 
ATOM     17  C   UNL     1      10.819   3.624  23.268  0.00  0.00    +0.007 A 
BRANCH  15  18
ATOM     18  O   UNL     1      14.112   5.233  23.242  0.00  0.00    -0.507 OA
ATOM     19  H   UNL     1      14.496   4.458  22.799  0.00  0.00    +0.292 HD
ENDBRANCH  15  18
ENDBRANCH   2  12
BRANCH   3  20
ATOM     20  C   UNL     1       8.538   1.817  24.606  0.00  0.00    -0.007 A 
ATOM     21  C   UNL     1       8.028   1.323  23.394  0.00  0.00    +0.011 A 
ATOM     22  C   UNL     1       8.372   0.033  22.930  0.00  0.00    +0.046 A 
ATOM     23  C   UNL     1       9.238  -0.775  23.668  0.00  0.00    +0.121 A 
ATOM     24  C   UNL     1       9.692  -0.305  24.890  0.00  0.00    +0.046 A 
ATOM     25  C   UNL     1       9.335   0.951  25.344  0.00  0.00    +0.011 A 
BRANCH  23  26
ATOM     26  O   UNL     1       9.616  -2.000  23.155  0.00  0.00    -0.491 OA
BRANCH  26  27
ATOM     27  C   UNL     1       9.571  -3.033  24.156  0.00  0.00    +0.244 C 
BRANCH  27  28
ATOM     28  C   UNL     1       8.244  -3.778  24.239  0.00  0.00    +0.125 C 
BRANCH  28  29
ATOM     29  N   UNL     1       7.757  -4.111  22.886  0.00  0.00    -0.299 NA
ATOM     30  C   UNL     1       6.508  -3.437  22.508  0.00  0.00    +0.084 C 
ATOM     31  C   UNL     1       5.816  -4.367  21.519  0.00  0.00    +0.017 C 
ATOM     32  C   UNL     1       6.711  -5.594  21.441  0.00  0.00    +0.017 C 
ATOM     33  C   UNL     1       7.523  -5.542  22.720  0.00  0.00    +0.084 C 
ENDBRANCH  28  29
ENDBRANCH  27  28
ENDBRANCH  26  27
ENDBRANCH  23  26
ENDBRANCH   3  20
BRANCH   8  34
ATOM     34  O   UNL     1       2.885   3.052  21.872  0.00  0.00    -0.507 OA
ATOM     35  H   UNL     1       2.194   3.707  22.061  0.00  0.00    +0.292 HD
ENDBRANCH   8  34
TORSDOF 8
ENDMDL
MODEL 2
REMARK VINA RESULT:      -7.5      3.304      7.394
REMARK  Name = 
REMARK  9 active torsions:
REMARK  status: ('A' for Active; 'I' for Inactive)
REMARK    1  A    between atoms: C_2  and  C_3
REMARK    2  A    between atoms: C_6  and  O_7
REMARK    3  A    between atoms: C_12  and  C_14
REMARK    4  A    between atoms: C_17  and  O_18
REMARK    5  A    between atoms: O_18  and  C_19
REMARK    6  A    between atoms: C_19  and  C_20
REMARK    7  A    between atoms: C_20  and  N_21
REMARK    8  A    between atoms: C_28  and  C_30
REMARK    9  A    between atoms: C_33  and  O_34
REMARK                            x       y       z     vdW  Elec       q    Type
REMARK                         _______ _______ _______ _____ _____    ______ ____
ROOT
ATOM      1  C   UNL     1       8.579  -2.918  24.943  0.00  0.00    +0.031 C 
ATOM      2  C   UNL     1       7.916  -2.042  23.827  0.00  0.00    +0.071 C 
ATOM      3  C   UNL     1       6.451  -1.656  24.253  0.00  0.00    +0.211 C 
ATOM      4  O   UNL     1       5.676  -2.864  24.418  0.00  0.00    -0.483 OA
ATOM      5  C   UNL     1       6.204  -3.755  25.313  0.00  0.00    +0.125 A 
ATOM      6  C   UNL     1       5.287  -4.617  25.919  0.00  0.00    +0.049 A 
ATOM      7  C   UNL     1       5.703  -5.488  26.924  0.00  0.00    +0.049 A 
ATOM      8  C   UNL     1       7.033  -5.488  27.314  0.00  0.00    +0.117 A 
ATOM      9  C   UNL     1       7.965  -4.668  26.679  0.00  0.00    +0.053 A 
ATOM     10  C   UNL     1       7.565  -3.811  25.638  0.00  0.00    +0.001 A 
ATOM     11  C   UNL     1       9.780  -3.712  24.406  0.00  0.00    +0.013 C 
ENDROOT
BRANCH   2  12
ATOM     12  C   UNL     1       8.714  -0.834  23.299  0.00  0.00    -0.040 A 
ATOM     13  C   UNL     1       8.352  -0.264  22.065  0.00  0.00    +0.007 A 
ATOM     14  C   UNL     1       8.998   0.881  21.572  0.00  0.00    +0.045 A 
ATOM     15  C   UNL     1      10.023   1.461  22.310  0.00  0.00    +0.117 A 
ATOM     16  C   UNL     1      10.420   0.910  23.518  0.00  0.00    +0.045 A 
ATOM     17  C   UNL     1       9.777  -0.234  24.000  0.00  0.00    +0.007 A 
BRANCH  15  18
ATOM     18  O   UNL     1      10.618   2.581  21.808  0.00  0.00    -0.507 OA
ATOM     19  H   UNL     1      11.437   2.743  22.305  0.00  0.00    +0.292 HD
ENDBRANCH  15  18
ENDBRANCH   2  12
BRANCH   3  20
ATOM     20  C   UNL     1       6.246  -0.719  25.446  0.00  0.00    -0.007 A 
ATOM     21  C   UNL     1       7.316  -0.222  26.210  0.00  0.00    +0.011 A 
ATOM     22  C   UNL     1       7.094   0.695  27.262  0.00  0.00    +0.046 A 
ATOM     23  C   UNL     1       5.802   1.134  27.557  0.00  0.00    +0.121 A 
ATOM     24  C   UNL     1       4.747   0.596  26.836  0.00  0.00    +0.046 A 
ATOM     25  C   UNL     1       4.972  -0.315  25.821  0.00  0.00    +0.011 A 
BRANCH  23  26
ATOM     26  O   UNL     1       5.623   2.086  28.540  0.00  0.00    -0.491 OA
BRANCH  26  27
ATOM     27  C   UNL     1       6.269   3.327  28.204  0.00  0.00    +0.244 C 
BRANCH  27  28
ATOM     28  C   UNL     1       5.533   4.162  27.163  0.00  0.00    +0.125 C 
BRANCH  28  29
ATOM     29  N   UNL     1       6.332   4.261  25.926  0.00  0.00    -0.299 NA
ATOM     30  C   UNL     1       5.887   3.374  24.844  0.00  0.00    +0.084 C 
ATOM     31  C   UNL     1       7.130   3.069  24.018  0.00  0.00    +0.017 C 
ATOM     32  C   UNL     1       8.268   3.769  24.745  0.00  0.00    +0.017 C 
ATOM     33  C   UNL     1       7.742   3.962  26.154  0.00  0.00    +0.084 C 
ENDBRANCH  28  29
ENDBRANCH  27  28
ENDBRANCH  26  27
ENDBRANCH  23  26
ENDBRANCH   3  20
BRANCH   8  34
ATOM     34  O   UNL     1       7.395  -6.310  28.341  0.00  0.00    -0.507 OA
ATOM     35  H   UNL     1       8.106  -6.896  28.035  0.00  0.00    +0.292 HD
ENDBRANCH   8  34
TORSDOF 8
ENDMDL
MODEL 3
REMARK VINA RESULT:      -7.4      3.119      7.122
REMARK  Name = 
REMARK  9 active torsions:
REMARK  status: ('A' for Active; 'I' for Inactive)
REMARK    1  A    between atoms: C_2  and  C_3
REMARK    2  A    between atoms: C_6  and  O_7
REMARK    3  A    between atoms: C_12  and  C_14
REMARK    4  A    between atoms: C_17  and  O_18
REMARK    5  A    between atoms: O_18  and  C_19
REMARK    6  A    between atoms: C_19  and  C_20
REMARK    7  A    between atoms: C_20  and  N_21
REMARK    8  A    between atoms: C_28  and  C_30
REMARK    9  A    between atoms: C_33  and  O_34
REMARK                            x       y       z     vdW  Elec       q    Type
REMARK                         _______ _______ _______ _____ _____    ______ ____
ROOT
ATOM      1  C   UNL     1       9.105  -1.299  23.677  0.00  0.00    +0.031 C 
ATOM      2  C   UNL     1       7.952  -0.411  23.096  0.00  0.00    +0.071 C 
ATOM      3  C   UNL     1       6.595  -0.768  23.807  0.00  0.00    +0.211 C 
ATOM      4  O   UNL     1       6.283  -2.157  23.556  0.00  0.00    -0.483 OA
ATOM      5  C   UNL     1       7.260  -3.032  23.945  0.00  0.00    +0.125 A 
ATOM      6  C   UNL     1       6.825  -4.324  24.252  0.00  0.00    +0.049 A 
ATOM      7  C   UNL     1       7.720  -5.262  24.762  0.00  0.00    +0.049 A 
ATOM      8  C   UNL     1       9.043  -4.899  24.963  0.00  0.00    +0.117 A 
ATOM      9  C   UNL     1       9.497  -3.628  24.613  0.00  0.00    +0.053 A 
ATOM     10  C   UNL     1       8.612  -2.683  24.062  0.00  0.00    +0.001 A 
ATOM     11  C   UNL     1      10.314  -1.355  22.730  0.00  0.00    +0.013 C 
ENDROOT
BRANCH   2  12
ATOM     12  C   UNL     1       8.194   1.109  23.015  0.00  0.00    -0.040 A 
ATOM     13  C   UNL     1       7.323   1.898  22.242  0.00  0.00    +0.007 A 
ATOM     14  C   UNL     1       7.454   3.295  22.191  0.00  0.00    +0.045 A 
ATOM     15  C   UNL     1       8.469   3.915  22.910  0.00  0.00    +0.117 A 
ATOM     16  C   UNL     1       9.359   3.164  23.663  0.00  0.00    +0.045 A 
ATOM     17  C   UNL     1       9.227   1.772  23.703  0.00  0.00    +0.007 A 
BRANCH  15  18
ATOM     18  O   UNL     1       8.557   5.274  22.851  0.00  0.00    -0.507 OA
ATOM     19  H   UNL     1       7.893   5.598  22.220  0.00  0.00    +0.292 HD
ENDBRANCH  15  18
ENDBRANCH   2  12
BRANCH   3  20
ATOM     20  C   UNL     1       6.424  -0.439  25.291  0.00  0.00    -0.007 A 
ATOM     21  C   UNL     1       7.469   0.076  26.077  0.00  0.00    +0.011 A 
ATOM     22  C   UNL     1       7.257   0.432  27.428  0.00  0.00    +0.046 A 
ATOM     23  C   UNL     1       5.995   0.287  28.008  0.00  0.00    +0.121 A 
ATOM     24  C   UNL     1       4.984  -0.275  27.244  0.00  0.00    +0.046 A 
ATOM     25  C   UNL     1       5.207  -0.638  25.928  0.00  0.00    +0.011 A 
BRANCH  23  26
ATOM     26  O   UNL     1       5.798   0.712  29.306  0.00  0.00    -0.491 OA
BRANCH  26  27
ATOM     27  C   UNL     1       6.118   2.105  29.465  0.00  0.00    +0.244 C 
BRANCH  27  28
ATOM     28  C   UNL     1       5.006   3.062  29.053  0.00  0.00    +0.125 C 
BRANCH  28  29
ATOM     29  N   UNL     1       5.415   3.847  27.873  0.00  0.00    -0.299 NA
ATOM     30  C   UNL     1       4.898   3.337  26.596  0.00  0.00    +0.084 C 
ATOM     31  C   UNL     1       5.917   3.746  25.540  0.00  0.00    +0.017 C 
ATOM     32  C   UNL     1       7.033   4.431  26.315  0.00  0.00    +0.017 C 
ATOM     33  C   UNL     1       6.865   3.920  27.733  0.00  0.00    +0.084 C 
ENDBRANCH  28  29
ENDBRANCH  27  28
ENDBRANCH  26  27
ENDBRANCH  23  26
ENDBRANCH   3  20
BRANCH   8  34
ATOM     34  O   UNL     1       9.878  -5.822  25.520  0.00  0.00    -0.507 OA
ATOM     35  H   UNL     1       9.825  -5.747  26.486  0.00  0.00    +0.292 HD
ENDBRANCH   8  34
TORSDOF 8
ENDMDL
MODEL 4
REMARK VINA RESULT:      -7.4      3.607      9.339
REMARK  Name = 
REMARK  9 active torsions:
REMARK  status: ('A' for Active; 'I' for Inactive)
REMARK    1  A    between atoms: C_2  and  C_3
REMARK    2  A    between atoms: C_6  and  O_7
REMARK    3  A    between atoms: C_12  and  C_14
REMARK    4  A    between atoms: C_17  and  O_18
REMARK    5  A    between atoms: O_18  and  C_19
REMARK    6  A    between atoms: C_19  and  C_20
REMARK    7  A    between atoms: C_20  and  N_21
REMARK    8  A    between atoms: C_28  and  C_30
REMARK    9  A    between atoms: C_33  and  O_34
REMARK                            x       y       z     vdW  Elec       q    Type
REMARK                         _______ _______ _______ _____ _____    ______ ____
ROOT
ATOM      1  C   UNL     1       6.563  -4.280  22.727  0.00  0.00    +0.031 C 
ATOM      2  C   UNL     1       6.378  -5.267  23.929  0.00  0.00    +0.071 C 
ATOM      3  C   UNL     1       6.928  -4.608  25.248  0.00  0.00    +0.211 C 
ATOM      4  O   UNL     1       8.337  -4.333  25.085  0.00  0.00    -0.483 OA
ATOM      5  C   UNL     1       8.636  -3.544  24.008  0.00  0.00    +0.125 A 
ATOM      6  C   UNL     1       9.818  -2.807  24.110  0.00  0.00    +0.049 A 
ATOM      7  C   UNL     1      10.160  -1.890  23.118  0.00  0.00    +0.049 A 
ATOM      8  C   UNL     1       9.315  -1.718  22.033  0.00  0.00    +0.117 A 
ATOM      9  C   UNL     1       8.159  -2.485  21.897  0.00  0.00    +0.053 A 
ATOM     10  C   UNL     1       7.821  -3.441  22.873  0.00  0.00    +0.001 A 
ATOM     11  C   UNL     1       6.506  -5.010  21.376  0.00  0.00    +0.013 C 
ENDROOT
BRANCH   2  12
ATOM     12  C   UNL     1       4.988  -5.904  24.122  0.00  0.00    -0.040 A 
ATOM     13  C   UNL     1       3.962  -5.591  23.212  0.00  0.00    +0.007 A 
ATOM     14  C   UNL     1       2.699  -6.198  23.298  0.00  0.00    +0.045 A 
ATOM     15  C   UNL     1       2.450  -7.121  24.307  0.00  0.00    +0.117 A 
ATOM     16  C   UNL     1       3.431  -7.433  25.235  0.00  0.00    +0.045 A 
ATOM     17  C   UNL     1       4.685  -6.819  25.147  0.00  0.00    +0.007 A 
BRANCH  15  18
ATOM     18  O   UNL     1       1.218  -7.703  24.352  0.00  0.00    -0.507 OA
ATOM     19  H   UNL     1       1.002  -7.896  25.279  0.00  0.00    +0.292 HD
ENDBRANCH  15  18
ENDBRANCH   2  12
BRANCH   3  20
ATOM     20  C   UNL     1       6.206  -3.389  25.826  0.00  0.00    -0.007 A 
ATOM     21  C   UNL     1       6.850  -2.447  26.647  0.00  0.00    +0.011 A 
ATOM     22  C   UNL     1       6.169  -1.298  27.107  0.00  0.00    +0.046 A 
ATOM     23  C   UNL     1       4.840  -1.071  26.746  0.00  0.00    +0.121 A 
ATOM     24  C   UNL     1       4.195  -2.032  25.985  0.00  0.00    +0.046 A 
ATOM     25  C   UNL     1       4.863  -3.163  25.554  0.00  0.00    +0.011 A 
BRANCH  23  26
ATOM     26  O   UNL     1       4.223   0.097  27.150  0.00  0.00    -0.491 OA
BRANCH  26  27
ATOM     27  C   UNL     1       5.159   1.185  27.251  0.00  0.00    +0.244 C 
BRANCH  27  28
ATOM     28  C   UNL     1       5.051   2.219  26.137  0.00  0.00    +0.125 C 
BRANCH  28  29
ATOM     29  N   UNL     1       6.216   2.126  25.236  0.00  0.00    -0.299 NA
ATOM     30  C   UNL     1       6.082   1.123  24.171  0.00  0.00    +0.084 C 
ATOM     31  C   UNL     1       7.498   0.666  23.848  0.00  0.00    +0.017 C 
ATOM     32  C   UNL     1       8.387   1.411  24.833  0.00  0.00    +0.017 C 
ATOM     33  C   UNL     1       7.445   1.805  25.954  0.00  0.00    +0.084 C 
ENDBRANCH  28  29
ENDBRANCH  27  28
ENDBRANCH  26  27
ENDBRANCH  23  26
ENDBRANCH   3  20
BRANCH   8  34
ATOM     34  O   UNL     1       9.649  -0.770  21.110  0.00  0.00    -0.507 OA
ATOM     35  H   UNL     1      10.071  -1.208  20.353  0.00  0.00    +0.292 HD
ENDBRANCH   8  34
TORSDOF 8
ENDMDL
MODEL 5
REMARK VINA RESULT:      -7.4      3.164      8.067
REMARK  Name = 
REMARK  9 active torsions:
REMARK  status: ('A' for Active; 'I' for Inactive)
REMARK    1  A    between atoms: C_2  and  C_3
REMARK    2  A    between atoms: C_6  and  O_7
REMARK    3  A    between atoms: C_12  and  C_14
REMARK    4  A    between atoms: C_17  and  O_18
REMARK    5  A    between atoms: O_18  and  C_19
REMARK    6  A    between atoms: C_19  and  C_20
REMARK    7  A    between atoms: C_20  and  N_21
REMARK    8  A    between atoms: C_28  and  C_30
REMARK    9  A    between atoms: C_33  and  O_34
REMARK                            x       y       z     vdW  Elec       q    Type
REMARK                         _______ _______ _______ _____ _____    ______ ____
ROOT
ATOM      1  C   UNL     1       8.224  -1.931  23.711  0.00  0.00    +0.031 C 
ATOM      2  C   UNL     1       8.529  -2.626  25.082  0.00  0.00    +0.071 C 
ATOM      3  C   UNL     1       8.637  -1.540  26.216  0.00  0.00    +0.211 C 
ATOM      4  O   UNL     1       9.721  -0.637  25.901  0.00  0.00    -0.483 OA
ATOM      5  C   UNL     1       9.610  -0.029  24.680  0.00  0.00    +0.125 A 
ATOM      6  C   UNL     1      10.258   1.202  24.558  0.00  0.00    +0.049 A 
ATOM      7  C   UNL     1      10.118   1.956  23.395  0.00  0.00    +0.049 A 
ATOM      8  C   UNL     1       9.330   1.470  22.362  0.00  0.00    +0.117 A 
ATOM      9  C   UNL     1       8.722   0.220  22.455  0.00  0.00    +0.053 A 
ATOM     10  C   UNL     1       8.885  -0.567  23.609  0.00  0.00    +0.001 A 
ATOM     11  C   UNL     1       8.578  -2.839  22.522  0.00  0.00    +0.013 C 
ENDROOT
BRANCH   2  12
ATOM     12  C   UNL     1       7.644  -3.819  25.490  0.00  0.00    -0.040 A 
ATOM     13  C   UNL     1       7.887  -4.460  26.718  0.00  0.00    +0.007 A 
ATOM     14  C   UNL     1       7.066  -5.505  27.172  0.00  0.00    +0.045 A 
ATOM     15  C   UNL     1       5.996  -5.925  26.391  0.00  0.00    +0.117 A 
ATOM     16  C   UNL     1       5.744  -5.330  25.165  0.00  0.00    +0.045 A 
ATOM     17  C   UNL     1       6.569  -4.295  24.715  0.00  0.00    +0.007 A 
BRANCH  15  18
ATOM     18  O   UNL     1       5.210  -6.931  26.869  0.00  0.00    -0.507 OA
ATOM     19  H   UNL     1       5.475  -7.760  26.437  0.00  0.00    +0.292 HD
ENDBRANCH  15  18
ENDBRANCH   2  12
BRANCH   3  20
ATOM     20  C   UNL     1       7.385  -0.758  26.617  0.00  0.00    -0.007 A 
ATOM     21  C   UNL     1       7.410   0.269  27.576  0.00  0.00    +0.011 A 
ATOM     22  C   UNL     1       6.247   1.016  27.873  0.00  0.00    +0.046 A 
ATOM     23  C   UNL     1       5.048   0.752  27.208  0.00  0.00    +0.121 A 
ATOM     24  C   UNL     1       5.018  -0.299  26.305  0.00  0.00    +0.046 A 
ATOM     25  C   UNL     1       6.156  -1.037  26.036  0.00  0.00    +0.011 A 
BRANCH  23  26
ATOM     26  O   UNL     1       3.948   1.545  27.464  0.00  0.00    -0.491 OA
BRANCH  26  27
ATOM     27  C   UNL     1       4.266   2.945  27.363  0.00  0.00    +0.244 C 
BRANCH  27  28
ATOM     28  C   UNL     1       3.652   3.649  26.159  0.00  0.00    +0.125 C 
BRANCH  28  29
ATOM     29  N   UNL     1       4.634   3.739  25.061  0.00  0.00    -0.299 NA
ATOM     30  C   UNL     1       4.575   2.630  24.100  0.00  0.00    +0.084 C 
ATOM     31  C   UNL     1       5.985   2.486  23.543  0.00  0.00    +0.017 C 
ATOM     32  C   UNL     1       6.814   3.515  24.298  0.00  0.00    +0.017 C 
ATOM     33  C   UNL     1       6.008   3.790  25.552  0.00  0.00    +0.084 C 
ENDBRANCH  28  29
ENDBRANCH  27  28
ENDBRANCH  26  27
ENDBRANCH  23  26
ENDBRANCH   3  20
BRANCH   8  34
ATOM     34  O   UNL     1       9.167   2.260  21.262  0.00  0.00    -0.507 OA
ATOM     35  H   UNL     1       9.954   2.819  21.161  0.00  0.00    +0.292 HD
ENDBRANCH   8  34
TORSDOF 8
ENDMDL
MODEL 6
REMARK VINA RESULT:      -7.2      3.991      7.888
REMARK  Name = 
REMARK  9 active torsions:
REMARK  status: ('A' for Active; 'I' for Inactive)
REMARK    1  A    between atoms: C_2  and  C_3
REMARK    2  A    between atoms: C_6  and  O_7
REMARK    3  A    between atoms: C_12  and  C_14
REMARK    4  A    between atoms: C_17  and  O_18
REMARK    5  A    between atoms: O_18  and  C_19
REMARK    6  A    between atoms: C_19  and  C_20
REMARK    7  A    between atoms: C_20  and  N_21
REMARK    8  A    between atoms: C_28  and  C_30
REMARK    9  A    between atoms: C_33  and  O_34
REMARK                            x       y       z     vdW  Elec       q    Type
REMARK                         _______ _______ _______ _____ _____    ______ ____
ROOT
ATOM      1  C   UNL     1       8.207  -1.902  23.797  0.00  0.00    +0.031 C 
ATOM      2  C   UNL     1       8.465  -2.548  25.201  0.00  0.00    +0.071 C 
ATOM      3  C   UNL     1       8.498  -1.426  26.304  0.00  0.00    +0.211 C 
ATOM      4  O   UNL     1       9.574  -0.507  26.009  0.00  0.00    -0.483 OA
ATOM      5  C   UNL     1       9.504   0.061  24.766  0.00  0.00    +0.125 A 
ATOM      6  C   UNL     1      10.129   1.303  24.635  0.00  0.00    +0.049 A 
ATOM      7  C   UNL     1      10.025   2.018  23.444  0.00  0.00    +0.049 A 
ATOM      8  C   UNL     1       9.295   1.483  22.393  0.00  0.00    +0.117 A 
ATOM      9  C   UNL     1       8.711   0.221  22.497  0.00  0.00    +0.053 A 
ATOM     10  C   UNL     1       8.840  -0.527  23.682  0.00  0.00    +0.001 A 
ATOM     11  C   UNL     1       8.634  -2.837  22.653  0.00  0.00    +0.013 C 
ENDROOT
BRANCH   2  12
ATOM     12  C   UNL     1       7.590  -3.749  25.607  0.00  0.00    -0.040 A 
ATOM     13  C   UNL     1       7.921  -4.474  26.766  0.00  0.00    +0.007 A 
ATOM     14  C   UNL     1       7.117  -5.532  27.221  0.00  0.00    +0.045 A 
ATOM     15  C   UNL     1       5.975  -5.879  26.509  0.00  0.00    +0.117 A 
ATOM     16  C   UNL     1       5.633  -5.201  25.350  0.00  0.00    +0.045 A 
ATOM     17  C   UNL     1       6.442  -4.153  24.899  0.00  0.00    +0.007 A 
BRANCH  15  18
ATOM     18  O   UNL     1       5.209  -6.900  26.988  0.00  0.00    -0.507 OA
ATOM     19  H   UNL     1       4.591  -7.174  26.291  0.00  0.00    +0.292 HD
ENDBRANCH  15  18
ENDBRANCH   2  12
BRANCH   3  20
ATOM     20  C   UNL     1       7.212  -0.662  26.626  0.00  0.00    -0.007 A 
ATOM     21  C   UNL     1       6.037  -0.807  25.869  0.00  0.00    +0.011 A 
ATOM     22  C   UNL     1       4.848  -0.137  26.236  0.00  0.00    +0.046 A 
ATOM     23  C   UNL     1       4.816   0.678  27.369  0.00  0.00    +0.121 A 
ATOM     24  C   UNL     1       5.993   0.860  28.077  0.00  0.00    +0.046 A 
ATOM     25  C   UNL     1       7.156   0.215  27.700  0.00  0.00    +0.011 A 
BRANCH  23  26
ATOM     26  O   UNL     1       3.623   1.260  27.745  0.00  0.00    -0.491 OA
BRANCH  26  27
ATOM     27  C   UNL     1       2.526   0.333  27.658  0.00  0.00    +0.244 C 
BRANCH  27  28
ATOM     28  C   UNL     1       2.190  -0.376  28.965  0.00  0.00    +0.125 C 
BRANCH  28  29
ATOM     29  N   UNL     1       2.537  -1.807  28.877  0.00  0.00    -0.299 NA
ATOM     30  C   UNL     1       3.896  -2.131  29.329  0.00  0.00    +0.084 C 
ATOM     31  C   UNL     1       4.313  -3.367  28.543  0.00  0.00    +0.017 C 
ATOM     32  C   UNL     1       3.151  -3.647  27.603  0.00  0.00    +0.017 C 
ATOM     33  C   UNL     1       2.419  -2.322  27.517  0.00  0.00    +0.084 C 
ENDBRANCH  28  29
ENDBRANCH  27  28
ENDBRANCH  26  27
ENDBRANCH  23  26
ENDBRANCH   3  20
BRANCH   8  34
ATOM     34  O   UNL     1       9.163   2.235  21.263  0.00  0.00    -0.507 OA
ATOM     35  H   UNL     1       9.815   2.953  21.290  0.00  0.00    +0.292 HD
ENDBRANCH   8  34
TORSDOF 8
ENDMDL
MODEL 7
REMARK VINA RESULT:      -7.0      3.843      8.280
REMARK  Name = 
REMARK  9 active torsions:
REMARK  status: ('A' for Active; 'I' for Inactive)
REMARK    1  A    between atoms: C_2  and  C_3
REMARK    2  A    between atoms: C_6  and  O_7
REMARK    3  A    between atoms: C_12  and  C_14
REMARK    4  A    between atoms: C_17  and  O_18
REMARK    5  A    between atoms: O_18  and  C_19
REMARK    6  A    between atoms: C_19  and  C_20
REMARK    7  A    between atoms: C_20  and  N_21
REMARK    8  A    between atoms: C_28  and  C_30
REMARK    9  A    between atoms: C_33  and  O_34
REMARK                            x       y       z     vdW  Elec       q    Type
REMARK                         _______ _______ _______ _____ _____    ______ ____
ROOT
ATOM      1  C   UNL     1       4.283  -3.660  25.096  0.00  0.00    +0.031 C 
ATOM      2  C   UNL     1       4.750  -3.630  26.591  0.00  0.00    +0.071 C 
ATOM      3  C   UNL     1       6.298  -3.359  26.660  0.00  0.00    +0.211 C 
ATOM      4  O   UNL     1       6.994  -4.425  25.977  0.00  0.00    -0.483 OA
ATOM      5  C   UNL     1       6.608  -4.607  24.677  0.00  0.00    +0.125 A 
ATOM      6  C   UNL     1       7.566  -5.180  23.838  0.00  0.00    +0.049 A 
ATOM      7  C   UNL     1       7.317  -5.309  22.473  0.00  0.00    +0.049 A 
ATOM      8  C   UNL     1       6.110  -4.860  21.959  0.00  0.00    +0.117 A 
ATOM      9  C   UNL     1       5.127  -4.333  22.796  0.00  0.00    +0.053 A 
ATOM     10  C   UNL     1       5.353  -4.232  24.181  0.00  0.00    +0.001 A 
ATOM     11  C   UNL     1       2.934  -4.379  24.934  0.00  0.00    +0.013 C 
ENDROOT
BRANCH   2  12
ATOM     12  C   UNL     1       3.951  -2.749  27.571  0.00  0.00    -0.040 A 
ATOM     13  C   UNL     1       3.088  -1.766  27.055  0.00  0.00    +0.007 A 
ATOM     14  C   UNL     1       2.283  -0.985  27.900  0.00  0.00    +0.045 A 
ATOM     15  C   UNL     1       2.344  -1.177  29.275  0.00  0.00    +0.117 A 
ATOM     16  C   UNL     1       3.202  -2.120  29.817  0.00  0.00    +0.045 A 
ATOM     17  C   UNL     1       4.006  -2.890  28.970  0.00  0.00    +0.007 A 
BRANCH  15  18
ATOM     18  O   UNL     1       1.537  -0.412  30.065  0.00  0.00    -0.507 OA
ATOM     19  H   UNL     1       0.900  -0.995  30.510  0.00  0.00    +0.292 HD
ENDBRANCH  15  18
ENDBRANCH   2  12
BRANCH   3  20
ATOM     20  C   UNL     1       6.834  -1.997  26.217  0.00  0.00    -0.007 A 
ATOM     21  C   UNL     1       6.021  -1.025  25.608  0.00  0.00    +0.011 A 
ATOM     22  C   UNL     1       6.535   0.248  25.273  0.00  0.00    +0.046 A 
ATOM     23  C   UNL     1       7.865   0.569  25.551  0.00  0.00    +0.121 A 
ATOM     24  C   UNL     1       8.675  -0.413  26.098  0.00  0.00    +0.046 A 
ATOM     25  C   UNL     1       8.168  -1.662  26.406  0.00  0.00    +0.011 A 
BRANCH  23  26
ATOM     26  O   UNL     1       8.320   1.844  25.281  0.00  0.00    -0.491 OA
BRANCH  26  27
ATOM     27  C   UNL     1       9.557   1.824  24.547  0.00  0.00    +0.244 C 
BRANCH  27  28
ATOM     28  C   UNL     1       9.399   1.935  23.035  0.00  0.00    +0.125 C 
BRANCH  28  29
ATOM     29  N   UNL     1       9.625   0.623  22.399  0.00  0.00    -0.299 NA
ATOM     30  C   UNL     1       8.404  -0.164  22.180  0.00  0.00    +0.084 C 
ATOM     31  C   UNL     1       8.836  -1.624  22.226  0.00  0.00    +0.017 C 
ATOM     32  C   UNL     1      10.322  -1.585  22.549  0.00  0.00    +0.017 C 
ATOM     33  C   UNL     1      10.528  -0.220  23.175  0.00  0.00    +0.084 C 
ENDBRANCH  28  29
ENDBRANCH  27  28
ENDBRANCH  26  27
ENDBRANCH  23  26
ENDBRANCH   3  20
BRANCH   8  34
ATOM     34  O   UNL     1       5.921  -4.946  20.611  0.00  0.00    -0.507 OA
ATOM     35  H   UNL     1       5.219  -4.327  20.355  0.00  0.00    +0.292 HD
ENDBRANCH   8  34
TORSDOF 8
ENDMDL
MODEL 8
REMARK VINA RESULT:      -7.0      2.901      5.774
REMARK  Name = 
REMARK  9 active torsions:
REMARK  status: ('A' for Active; 'I' for Inactive)
REMARK    1  A    between atoms: C_2  and  C_3
REMARK    2  A    between atoms: C_6  and  O_7
REMARK    3  A    between atoms: C_12  and  C_14
REMARK    4  A    between atoms: C_17  and  O_18
REMARK    5  A    between atoms: O_18  and  C_19
REMARK    6  A    between atoms: C_19  and  C_20
REMARK    7  A    between atoms: C_20  and  N_21
REMARK    8  A    between atoms: C_28  and  C_30
REMARK    9  A    between atoms: C_33  and  O_34
REMARK                            x       y       z     vdW  Elec       q    Type
REMARK                         _______ _______ _______ _____ _____    ______ ____
ROOT
ATOM      1  C   UNL     1       8.118   1.201  22.467  0.00  0.00    +0.031 C 
ATOM      2  C   UNL     1       8.945   0.353  23.493  0.00  0.00    +0.071 C 
ATOM      3  C   UNL     1       8.776   0.952  24.938  0.00  0.00    +0.211 C 
ATOM      4  O   UNL     1       9.275   2.308  24.946  0.00  0.00    -0.483 OA
ATOM      5  C   UNL     1       8.685   3.131  24.026  0.00  0.00    +0.125 A 
ATOM      6  C   UNL     1       8.693   4.492  24.341  0.00  0.00    +0.049 A 
ATOM      7  C   UNL     1       8.024   5.404  23.527  0.00  0.00    +0.049 A 
ATOM      8  C   UNL     1       7.351   4.945  22.405  0.00  0.00    +0.117 A 
ATOM      9  C   UNL     1       7.380   3.596  22.055  0.00  0.00    +0.053 A 
ATOM     10  C   UNL     1       8.083   2.671  22.848  0.00  0.00    +0.001 A 
ATOM     11  C   UNL     1       8.605   0.985  21.026  0.00  0.00    +0.013 C 
ENDROOT
BRANCH   2  12
ATOM     12  C   UNL     1       8.765  -1.177  23.464  0.00  0.00    -0.040 A 
ATOM     13  C   UNL     1       9.579  -1.976  24.288  0.00  0.00    +0.007 A 
ATOM     14  C   UNL     1       9.408  -3.368  24.355  0.00  0.00    +0.045 A 
ATOM     15  C   UNL     1       8.423  -3.975  23.585  0.00  0.00    +0.117 A 
ATOM     16  C   UNL     1       7.620  -3.220  22.745  0.00  0.00    +0.045 A 
ATOM     17  C   UNL     1       7.800  -1.835  22.678  0.00  0.00    +0.007 A 
BRANCH  15  18
ATOM     18  O   UNL     1       8.274  -5.327  23.686  0.00  0.00    -0.507 OA
ATOM     19  H   UNL     1       8.712  -5.624  24.501  0.00  0.00    +0.292 HD
ENDBRANCH  15  18
ENDBRANCH   2  12
BRANCH   3  20
ATOM     20  C   UNL     1       7.407   0.879  25.617  0.00  0.00    -0.007 A 
ATOM     21  C   UNL     1       6.248   0.464  24.941  0.00  0.00    +0.011 A 
ATOM     22  C   UNL     1       5.013   0.344  25.618  0.00  0.00    +0.046 A 
ATOM     23  C   UNL     1       4.925   0.628  26.982  0.00  0.00    +0.121 A 
ATOM     24  C   UNL     1       6.059   1.092  27.629  0.00  0.00    +0.046 A 
ATOM     25  C   UNL     1       7.258   1.224  26.954  0.00  0.00    +0.011 A 
BRANCH  23  26
ATOM     26  O   UNL     1       3.724   0.431  27.633  0.00  0.00    -0.491 OA
BRANCH  26  27
ATOM     27  C   UNL     1       3.043  -0.742  27.152  0.00  0.00    +0.244 C 
BRANCH  27  28
ATOM     28  C   UNL     1       3.239  -1.986  28.009  0.00  0.00    +0.125 C 
BRANCH  28  29
ATOM     29  N   UNL     1       3.978  -3.017  27.256  0.00  0.00    -0.299 NA
ATOM     30  C   UNL     1       5.437  -2.958  27.417  0.00  0.00    +0.084 C 
ATOM     31  C   UNL     1       6.022  -3.521  26.128  0.00  0.00    +0.017 C 
ATOM     32  C   UNL     1       4.818  -3.816  25.246  0.00  0.00    +0.017 C 
ATOM     33  C   UNL     1       3.716  -2.948  25.823  0.00  0.00    +0.084 C 
ENDBRANCH  28  29
ENDBRANCH  27  28
ENDBRANCH  26  27
ENDBRANCH  23  26
ENDBRANCH   3  20
BRANCH   8  34
ATOM     34  O   UNL     1       6.656   5.856  21.664  0.00  0.00    -0.507 OA
ATOM     35  H   UNL     1       6.628   5.550  20.743  0.00  0.00    +0.292 HD
ENDBRANCH   8  34
TORSDOF 8
ENDMDL
MODEL 9
REMARK VINA RESULT:      -7.0      3.161      7.960
REMARK  Name = 
REMARK  9 active torsions:
REMARK  status: ('A' for Active; 'I' for Inactive)
REMARK    1  A    between atoms: C_2  and  C_3
REMARK    2  A    between atoms: C_6  and  O_7
REMARK    3  A    between atoms: C_12  and  C_14
REMARK    4  A    between atoms: C_17  and  O_18
REMARK    5  A    between atoms: O_18  and  C_19
REMARK    6  A    between atoms: C_19  and  C_20
REMARK    7  A    between atoms: C_20  and  N_21
REMARK    8  A    between atoms: C_28  and  C_30
REMARK    9  A    between atoms: C_33  and  O_34
REMARK                            x       y       z     vdW  Elec       q    Type
REMARK                         _______ _______ _______ _____ _____    ______ ____
ROOT
ATOM      1  C   UNL     1       5.037  -3.382  24.434  0.00  0.00    +0.031 C 
ATOM      2  C   UNL     1       5.592  -3.324  25.898  0.00  0.00    +0.071 C 
ATOM      3  C   UNL     1       7.158  -3.478  25.879  0.00  0.00    +0.211 C 
ATOM      4  O   UNL     1       7.498  -4.759  25.304  0.00  0.00    -0.483 OA
ATOM      5  C   UNL     1       6.993  -4.964  24.048  0.00  0.00    +0.125 A 
ATOM      6  C   UNL     1       7.706  -5.862  23.250  0.00  0.00    +0.049 A 
ATOM      7  C   UNL     1       7.341  -6.060  21.921  0.00  0.00    +0.049 A 
ATOM      8  C   UNL     1       6.266  -5.356  21.400  0.00  0.00    +0.117 A 
ATOM      9  C   UNL     1       5.517  -4.497  22.203  0.00  0.00    +0.053 A 
ATOM     10  C   UNL     1       5.852  -4.316  23.557  0.00  0.00    +0.001 A 
ATOM     11  C   UNL     1       3.538  -3.719  24.406  0.00  0.00    +0.013 C 
ENDROOT
BRANCH   2  12
ATOM     12  C   UNL     1       5.124  -2.160  26.793  0.00  0.00    -0.040 A 
ATOM     13  C   UNL     1       5.102  -0.858  26.263  0.00  0.00    +0.007 A 
ATOM     14  C   UNL     1       4.616   0.227  27.011  0.00  0.00    +0.045 A 
ATOM     15  C   UNL     1       4.156   0.016  28.305  0.00  0.00    +0.117 A 
ATOM     16  C   UNL     1       4.187  -1.251  28.866  0.00  0.00    +0.045 A 
ATOM     17  C   UNL     1       4.678  -2.326  28.118  0.00  0.00    +0.007 A 
BRANCH  15  18
ATOM     18  O   UNL     1       3.676   1.088  28.997  0.00  0.00    -0.507 OA
ATOM     19  H   UNL     1       4.390   1.741  29.085  0.00  0.00    +0.292 HD
ENDBRANCH  15  18
ENDBRANCH   2  12
BRANCH   3  20
ATOM     20  C   UNL     1       8.007  -2.367  25.258  0.00  0.00    -0.007 A 
ATOM     21  C   UNL     1       8.649  -1.384  26.030  0.00  0.00    +0.011 A 
ATOM     22  C   UNL     1       9.481  -0.413  25.427  0.00  0.00    +0.046 A 
ATOM     23  C   UNL     1       9.688  -0.419  24.046  0.00  0.00    +0.121 A 
ATOM     24  C   UNL     1       9.007  -1.356  23.286  0.00  0.00    +0.046 A 
ATOM     25  C   UNL     1       8.180  -2.290  23.883  0.00  0.00    +0.011 A 
BRANCH  23  26
ATOM     26  O   UNL     1      10.563   0.494  23.494  0.00  0.00    -0.491 OA
BRANCH  26  27
ATOM     27  C   UNL     1      10.476   1.775  24.143  0.00  0.00    +0.244 C 
BRANCH  27  28
ATOM     28  C   UNL     1      10.119   2.932  23.217  0.00  0.00    +0.125 C 
BRANCH  28  29
ATOM     29  N   UNL     1       8.654   3.066  23.104  0.00  0.00    -0.299 NA
ATOM     30  C   UNL     1       7.916   2.701  24.320  0.00  0.00    +0.084 C 
ATOM     31  C   UNL     1       6.553   2.210  23.848  0.00  0.00    +0.017 C 
ATOM     32  C   UNL     1       6.621   2.259  22.330  0.00  0.00    +0.017 C 
ATOM     33  C   UNL     1       8.107   2.249  22.026  0.00  0.00    +0.084 C 
ENDBRANCH  28  29
ENDBRANCH  27  28
ENDBRANCH  26  27
ENDBRANCH  23  26
ENDBRANCH   3  20
BRANCH   8  34
ATOM     34  O   UNL     1       5.973  -5.529  20.079  0.00  0.00    -0.507 OA
ATOM     35  H   UNL     1       5.375  -4.818  19.797  0.00  0.00    +0.292 HD
ENDBRANCH   8  34
TORSDOF 8
ENDMDL
