MODEL 1
REMARK VINA RESULT:      -8.4      0.000      0.000
REMARK  Name = 
REMARK  7 active torsions:
REMARK  status: ('A' for Active; 'I' for Inactive)
REMARK    1  A    between atoms: C_1  and  C_2
REMARK    2  A    between atoms: C_3  and  N_4
REMARK    3  A    between atoms: N_4  and  C_5
REMARK    4  A    between atoms: C_7  and  C_11
REMARK    5  A    between atoms: C_15  and  C_18
REMARK    6  A    between atoms: N_20  and  C_21
REMARK    7  A    between atoms: C_25  and  C_27
REMARK                            x       y       z     vdW  Elec       q    Type
REMARK                         _______ _______ _______ _____ _____    ______ ____
ROOT
ATOM      1  C   UNL     1       7.571  -4.270  22.585  0.00  0.00    +0.045 C 
ATOM      2  C   UNL     1       8.219  -3.005  23.083  0.00  0.00    -0.029 A 
ATOM      3  C   UNL     1       8.408  -1.971  22.151  0.00  0.00    +0.006 A 
ATOM      4  C   UNL     1       8.997  -0.769  22.533  0.00  0.00    +0.013 A 
ATOM      5  C   UNL     1       9.415  -0.582  23.853  0.00  0.00    +0.039 A 
ATOM      6  C   UNL     1       9.285  -1.625  24.777  0.00  0.00    +0.036 A 
ATOM      7  C   UNL     1       8.674  -2.840  24.409  0.00  0.00    +0.035 A 
ENDROOT
BRANCH   5   8
ATOM      8  C   UNL     1       9.988   0.743  24.214  0.00  0.00    +0.248 C 
ATOM      9  N   UNL     1       9.327   1.850  23.702  0.00  0.00    -0.281 N 
ATOM     10  H   UNL     1       8.556   1.679  23.070  0.00  0.00    +0.155 HD
ATOM     11  O   UNL     1      11.024   0.747  24.870  0.00  0.00    -0.270 OA
BRANCH   9  12
ATOM     12  C   UNL     1       9.723   3.201  23.850  0.00  0.00    +0.034 A 
ATOM     13  C   UNL     1      10.963   3.589  23.321  0.00  0.00    +0.035 A 
ATOM     14  C   UNL     1      11.427   4.914  23.450  0.00  0.00    +0.057 A 
ATOM     15  C   UNL     1      10.631   5.853  24.118  0.00  0.00    +0.012 A 
ATOM     16  C   UNL     1       9.395   5.478  24.634  0.00  0.00    +0.002 A 
ATOM     17  C   UNL     1       8.945   4.163  24.497  0.00  0.00    +0.023 A 
BRANCH  14  18
ATOM     18  C   UNL     1      12.764   5.315  22.876  0.00  0.00    +0.417 C 
ATOM     19  F   UNL     1      13.777   4.515  23.311  0.00  0.00    -0.166 F 
ATOM     20  F   UNL     1      13.118   6.585  23.216  0.00  0.00    -0.166 F 
ATOM     21  F   UNL     1      12.812   5.266  21.515  0.00  0.00    -0.166 F 
ENDBRANCH  14  18
ENDBRANCH   9  12
ENDBRANCH   5   8
BRANCH   7  22
ATOM     22  N   UNL     1       8.461  -3.869  25.359  0.00  0.00    -0.313 N 
ATOM     23  H   UNL     1       8.869  -4.743  25.033  0.00  0.00    +0.152 HD
BRANCH  22  24
ATOM     24  C   UNL     1       7.360  -4.052  26.215  0.00  0.00    +0.050 A 
ATOM     25  C   UNL     1       6.272  -3.177  26.207  0.00  0.00    +0.134 A 
ATOM     26  N   UNL     1       5.204  -3.274  27.031  0.00  0.00    -0.261 NA
ATOM     27  C   UNL     1       5.202  -4.317  27.898  0.00  0.00    +0.123 A 
ATOM     28  C   UNL     1       6.215  -5.268  27.971  0.00  0.00    +0.056 A 
ATOM     29  C   UNL     1       7.313  -5.115  27.121  0.00  0.00    +0.039 A 
BRANCH  28  30
ATOM     30  C   UNL     1       6.067  -6.379  28.938  0.00  0.00    +0.243 C 
ATOM     31  O   UNL     1       6.503  -6.288  30.079  0.00  0.00    -0.270 OA
ATOM     32  N   UNL     1       5.411  -7.513  28.541  0.00  0.00    -0.325 N 
ATOM     33  H   UNL     1       5.286  -8.233  29.240  0.00  0.00    +0.145 HD
ATOM     34  H   UNL     1       4.949  -7.643  27.654  0.00  0.00    +0.145 HD
ENDBRANCH  28  30
ENDBRANCH  22  24
ENDBRANCH   7  22
TORSDOF 6
ENDMDL
MODEL 2
REMARK VINA RESULT:      -8.2      5.391      9.505
REMARK  Name = 
REMARK  7 active torsions:
REMARK  status: ('A' for Active; 'I' for Inactive)
REMARK    1  A    between atoms: C_1  and  C_2
REMARK    2  A    between atoms: C_3  and  N_4
REMARK    3  A    between atoms: N_4  and  C_5
REMARK    4  A    between atoms: C_7  and  C_11
REMARK    5  A    between atoms: C_15  and  C_18
REMARK    6  A    between atoms: N_20  and  C_21
REMARK    7  A    between atoms: C_25  and  C_27
REMARK                            x       y       z     vdW  Elec       q    Type
REMARK                         _______ _______ _______ _____ _____    ______ ____
ROOT
ATOM      1  C   UNL     1      10.816   3.398  23.579  0.00  0.00    +0.045 C 
ATOM      2  C   UNL     1      10.317   1.983  23.439  0.00  0.00    -0.029 A 
ATOM      3  C   UNL     1      10.952   0.999  24.215  0.00  0.00    +0.006 A 
ATOM      4  C   UNL     1      10.547  -0.331  24.145  0.00  0.00    +0.013 A 
ATOM      5  C   UNL     1       9.506  -0.702  23.292  0.00  0.00    +0.039 A 
ATOM      6  C   UNL     1       8.903   0.258  22.472  0.00  0.00    +0.036 A 
ATOM      7  C   UNL     1       9.289   1.611  22.546  0.00  0.00    +0.035 A 
ENDROOT
BRANCH   5   8
ATOM      8  C   UNL     1       9.082  -2.129  23.301  0.00  0.00    +0.248 C 
ATOM      9  N   UNL     1       7.780  -2.378  22.893  0.00  0.00    -0.281 N 
ATOM     10  H   UNL     1       7.196  -1.578  22.688  0.00  0.00    +0.155 HD
ATOM     11  O   UNL     1       9.886  -2.950  23.730  0.00  0.00    -0.270 OA
BRANCH   9  12
ATOM     12  C   UNL     1       7.135  -3.638  22.885  0.00  0.00    +0.034 A 
ATOM     13  C   UNL     1       6.625  -4.128  24.097  0.00  0.00    +0.035 A 
ATOM     14  C   UNL     1       5.987  -5.384  24.164  0.00  0.00    +0.057 A 
ATOM     15  C   UNL     1       5.865  -6.149  22.997  0.00  0.00    +0.012 A 
ATOM     16  C   UNL     1       6.357  -5.664  21.790  0.00  0.00    +0.002 A 
ATOM     17  C   UNL     1       6.983  -4.417  21.735  0.00  0.00    +0.023 A 
BRANCH  14  18
ATOM     18  C   UNL     1       5.445  -5.897  25.475  0.00  0.00    +0.417 C 
ATOM     19  F   UNL     1       4.881  -7.131  25.358  0.00  0.00    -0.166 F 
ATOM     20  F   UNL     1       4.476  -5.090  25.990  0.00  0.00    -0.166 F 
ATOM     21  F   UNL     1       6.391  -6.012  26.450  0.00  0.00    -0.166 F 
ENDBRANCH  14  18
ENDBRANCH   9  12
ENDBRANCH   5   8
BRANCH   7  22
ATOM     22  N   UNL     1       8.628   2.603  21.782  0.00  0.00    -0.313 N 
ATOM     23  H   UNL     1       9.294   3.103  21.195  0.00  0.00    +0.152 HD
BRANCH  22  24
ATOM     24  C   UNL     1       7.509   3.377  22.138  0.00  0.00    +0.050 A 
ATOM     25  C   UNL     1       7.594   4.762  22.291  0.00  0.00    +0.134 A 
ATOM     26  N   UNL     1       6.567   5.556  22.670  0.00  0.00    -0.261 NA
ATOM     27  C   UNL     1       5.376   4.944  22.885  0.00  0.00    +0.123 A 
ATOM     28  C   UNL     1       5.167   3.578  22.730  0.00  0.00    +0.056 A 
ATOM     29  C   UNL     1       6.261   2.789  22.364  0.00  0.00    +0.039 A 
BRANCH  28  30
ATOM     30  C   UNL     1       3.805   3.044  22.959  0.00  0.00    +0.243 C 
ATOM     31  O   UNL     1       3.453   2.660  24.068  0.00  0.00    -0.270 OA
ATOM     32  N   UNL     1       2.928   3.006  21.908  0.00  0.00    -0.325 N 
ATOM     33  H   UNL     1       1.992   2.681  22.110  0.00  0.00    +0.145 HD
ATOM     34  H   UNL     1       3.102   3.376  20.986  0.00  0.00    +0.145 HD
ENDBRANCH  28  30
ENDBRANCH  22  24
ENDBRANCH   7  22
TORSDOF 6
ENDMDL
MODEL 3
REMARK VINA RESULT:      -8.1      2.863      3.260
REMARK  Name = 
REMARK  7 active torsions:
REMARK  status: ('A' for Active; 'I' for Inactive)
REMARK    1  A    between atoms: C_1  and  C_2
REMARK    2  A    between atoms: C_3  and  N_4
REMARK    3  A    between atoms: N_4  and  C_5
REMARK    4  A    between atoms: C_7  and  C_11
REMARK    5  A    between atoms: C_15  and  C_18
REMARK    6  A    between atoms: N_20  and  C_21
REMARK    7  A    between atoms: C_25  and  C_27
REMARK                            x       y       z     vdW  Elec       q    Type
REMARK                         _______ _______ _______ _____ _____    ______ ____
ROOT
ATOM      1  C   UNL     1       8.388  -4.710  24.079  0.00  0.00    +0.045 C 
ATOM      2  C   UNL     1       8.563  -3.257  23.724  0.00  0.00    -0.029 A 
ATOM      3  C   UNL     1       9.736  -2.624  24.167  0.00  0.00    +0.006 A 
ATOM      4  C   UNL     1       9.973  -1.283  23.877  0.00  0.00    +0.013 A 
ATOM      5  C   UNL     1       9.036  -0.548  23.148  0.00  0.00    +0.039 A 
ATOM      6  C   UNL     1       7.837  -1.150  22.750  0.00  0.00    +0.036 A 
ATOM      7  C   UNL     1       7.592  -2.511  23.020  0.00  0.00    +0.035 A 
ENDROOT
BRANCH   5   8
ATOM      8  C   UNL     1       9.370   0.866  22.822  0.00  0.00    +0.248 C 
ATOM      9  N   UNL     1       9.393   1.746  23.894  0.00  0.00    -0.281 N 
ATOM     10  H   UNL     1       9.116   1.386  24.797  0.00  0.00    +0.155 HD
ATOM     11  O   UNL     1       9.528   1.146  21.639  0.00  0.00    -0.270 OA
BRANCH   9  12
ATOM     12  C   UNL     1       9.615   3.142  23.822  0.00  0.00    +0.034 A 
ATOM     13  C   UNL     1      10.910   3.592  23.522  0.00  0.00    +0.035 A 
ATOM     14  C   UNL     1      11.204   4.970  23.452  0.00  0.00    +0.057 A 
ATOM     15  C   UNL     1      10.181   5.897  23.687  0.00  0.00    +0.012 A 
ATOM     16  C   UNL     1       8.892   5.458  23.972  0.00  0.00    +0.002 A 
ATOM     17  C   UNL     1       8.613   4.091  24.035  0.00  0.00    +0.023 A 
BRANCH  14  18
ATOM     18  C   UNL     1      12.602   5.437  23.130  0.00  0.00    +0.417 C 
ATOM     19  F   UNL     1      12.945   6.561  23.817  0.00  0.00    -0.166 F 
ATOM     20  F   UNL     1      12.759   5.742  21.812  0.00  0.00    -0.166 F 
ATOM     21  F   UNL     1      13.566   4.517  23.417  0.00  0.00    -0.166 F 
ENDBRANCH  14  18
ENDBRANCH   9  12
ENDBRANCH   5   8
BRANCH   7  22
ATOM     22  N   UNL     1       6.420  -3.151  22.549  0.00  0.00    -0.313 N 
ATOM     23  H   UNL     1       6.245  -2.903  21.576  0.00  0.00    +0.152 HD
BRANCH  22  24
ATOM     24  C   UNL     1       5.249  -3.463  23.264  0.00  0.00    +0.050 A 
ATOM     25  C   UNL     1       4.855  -2.726  24.381  0.00  0.00    +0.134 A 
ATOM     26  N   UNL     1       3.765  -2.998  25.135  0.00  0.00    -0.261 NA
ATOM     27  C   UNL     1       3.005  -4.049  24.739  0.00  0.00    +0.123 A 
ATOM     28  C   UNL     1       3.282  -4.832  23.623  0.00  0.00    +0.056 A 
ATOM     29  C   UNL     1       4.432  -4.534  22.889  0.00  0.00    +0.039 A 
BRANCH  28  30
ATOM     30  C   UNL     1       2.345  -5.926  23.282  0.00  0.00    +0.243 C 
ATOM     31  O   UNL     1       1.161  -5.702  23.064  0.00  0.00    -0.270 OA
ATOM     32  N   UNL     1       2.831  -7.203  23.190  0.00  0.00    -0.325 N 
ATOM     33  H   UNL     1       2.175  -7.918  22.908  0.00  0.00    +0.145 HD
ATOM     34  H   UNL     1       3.801  -7.467  23.269  0.00  0.00    +0.145 HD
ENDBRANCH  28  30
ENDBRANCH  22  24
ENDBRANCH   7  22
TORSDOF 6
ENDMDL
MODEL 4
REMARK VINA RESULT:      -7.9      5.249      9.330
REMARK  Name = 
REMARK  7 active torsions:
REMARK  status: ('A' for Active; 'I' for Inactive)
REMARK    1  A    between atoms: C_1  and  C_2
REMARK    2  A    between atoms: C_3  and  N_4
REMARK    3  A    between atoms: N_4  and  C_5
REMARK    4  A    between atoms: C_7  and  C_11
REMARK    5  A    between atoms: C_15  and  C_18
REMARK    6  A    between atoms: N_20  and  C_21
REMARK    7  A    between atoms: C_25  and  C_27
REMARK                            x       y       z     vdW  Elec       q    Type
REMARK                         _______ _______ _______ _____ _____    ______ ____
ROOT
ATOM      1  C   UNL     1      10.993   3.933  23.332  0.00  0.00    +0.045 C 
ATOM      2  C   UNL     1      10.495   2.512  23.349  0.00  0.00    -0.029 A 
ATOM      3  C   UNL     1      11.229   1.583  24.106  0.00  0.00    +0.006 A 
ATOM      4  C   UNL     1      10.831   0.251  24.174  0.00  0.00    +0.013 A 
ATOM      5  C   UNL     1       9.698  -0.179  23.481  0.00  0.00    +0.039 A 
ATOM      6  C   UNL     1       8.991   0.723  22.678  0.00  0.00    +0.036 A 
ATOM      7  C   UNL     1       9.370   2.079  22.614  0.00  0.00    +0.035 A 
ENDROOT
BRANCH   5   8
ATOM      8  C   UNL     1       9.292  -1.602  23.638  0.00  0.00    +0.248 C 
ATOM      9  N   UNL     1       7.940  -1.828  23.848  0.00  0.00    -0.281 N 
ATOM     10  H   UNL     1       7.344  -1.018  23.949  0.00  0.00    +0.155 HD
ATOM     11  O   UNL     1      10.185  -2.443  23.637  0.00  0.00    -0.270 OA
BRANCH   9  12
ATOM     12  C   UNL     1       7.332  -3.083  24.092  0.00  0.00    +0.034 A 
ATOM     13  C   UNL     1       7.063  -3.914  22.994  0.00  0.00    +0.035 A 
ATOM     14  C   UNL     1       6.443  -5.169  23.165  0.00  0.00    +0.057 A 
ATOM     15  C   UNL     1       6.093  -5.586  24.455  0.00  0.00    +0.012 A 
ATOM     16  C   UNL     1       6.368  -4.773  25.550  0.00  0.00    +0.002 A 
ATOM     17  C   UNL     1       6.986  -3.534  25.368  0.00  0.00    +0.023 A 
BRANCH  14  18
ATOM     18  C   UNL     1       6.160  -6.050  21.973  0.00  0.00    +0.417 C 
ATOM     19  F   UNL     1       4.826  -6.212  21.753  0.00  0.00    -0.166 F 
ATOM     20  F   UNL     1       6.671  -7.304  22.118  0.00  0.00    -0.166 F 
ATOM     21  F   UNL     1       6.674  -5.571  20.805  0.00  0.00    -0.166 F 
ENDBRANCH  14  18
ENDBRANCH   9  12
ENDBRANCH   5   8
BRANCH   7  22
ATOM     22  N   UNL     1       8.612   3.016  21.872  0.00  0.00    -0.313 N 
ATOM     23  H   UNL     1       9.218   3.561  21.262  0.00  0.00    +0.152 HD
BRANCH  22  24
ATOM     24  C   UNL     1       7.450   3.706  22.265  0.00  0.00    +0.050 A 
ATOM     25  C   UNL     1       7.476   5.067  22.575  0.00  0.00    +0.134 A 
ATOM     26  N   UNL     1       6.406   5.778  22.997  0.00  0.00    -0.261 NA
ATOM     27  C   UNL     1       5.233   5.105  23.092  0.00  0.00    +0.123 A 
ATOM     28  C   UNL     1       5.082   3.759  22.777  0.00  0.00    +0.056 A 
ATOM     29  C   UNL     1       6.218   3.054  22.371  0.00  0.00    +0.039 A 
BRANCH  28  30
ATOM     30  C   UNL     1       3.734   3.157  22.887  0.00  0.00    +0.243 C 
ATOM     31  O   UNL     1       3.263   2.853  23.977  0.00  0.00    -0.270 OA
ATOM     32  N   UNL     1       3.004   2.963  21.745  0.00  0.00    -0.325 N 
ATOM     33  H   UNL     1       2.070   2.595  21.862  0.00  0.00    +0.145 HD
ATOM     34  H   UNL     1       3.275   3.259  20.820  0.00  0.00    +0.145 HD
ENDBRANCH  28  30
ENDBRANCH  22  24
ENDBRANCH   7  22
TORSDOF 6
ENDMDL
MODEL 5
REMARK VINA RESULT:      -7.5      1.303      1.906
REMARK  Name = 
REMARK  7 active torsions:
REMARK  status: ('A' for Active; 'I' for Inactive)
REMARK    1  A    between atoms: C_1  and  C_2
REMARK    2  A    between atoms: C_3  and  N_4
REMARK    3  A    between atoms: N_4  and  C_5
REMARK    4  A    between atoms: C_7  and  C_11
REMARK    5  A    between atoms: C_15  and  C_18
REMARK    6  A    between atoms: N_20  and  C_21
REMARK    7  A    between atoms: C_25  and  C_27
REMARK                            x       y       z     vdW  Elec       q    Type
REMARK                         _______ _______ _______ _____ _____    ______ ____
ROOT
ATOM      1  C   UNL     1       7.887  -4.728  23.657  0.00  0.00    +0.045 C 
ATOM      2  C   UNL     1       8.324  -3.294  23.520  0.00  0.00    -0.029 A 
ATOM      3  C   UNL     1       8.242  -2.716  22.242  0.00  0.00    +0.006 A 
ATOM      4  C   UNL     1       8.625  -1.394  22.034  0.00  0.00    +0.013 A 
ATOM      5  C   UNL     1       9.105  -0.628  23.099  0.00  0.00    +0.039 A 
ATOM      6  C   UNL     1       9.246  -1.208  24.364  0.00  0.00    +0.036 A 
ATOM      7  C   UNL     1       8.845  -2.539  24.594  0.00  0.00    +0.035 A 
ENDROOT
BRANCH   5   8
ATOM      8  C   UNL     1       9.447   0.795  22.826  0.00  0.00    +0.248 C 
ATOM      9  N   UNL     1       9.573   1.613  23.938  0.00  0.00    -0.281 N 
ATOM     10  H   UNL     1       9.358   1.208  24.840  0.00  0.00    +0.155 HD
ATOM     11  O   UNL     1       9.519   1.138  21.650  0.00  0.00    -0.270 OA
BRANCH   9  12
ATOM     12  C   UNL     1       9.822   3.006  23.925  0.00  0.00    +0.034 A 
ATOM     13  C   UNL     1      11.066   3.452  23.453  0.00  0.00    +0.035 A 
ATOM     14  C   UNL     1      11.386   4.826  23.429  0.00  0.00    +0.057 A 
ATOM     15  C   UNL     1      10.441   5.753  23.886  0.00  0.00    +0.012 A 
ATOM     16  C   UNL     1       9.201   5.319  24.343  0.00  0.00    +0.002 A 
ATOM     17  C   UNL     1       8.894   3.956  24.358  0.00  0.00    +0.023 A 
BRANCH  14  18
ATOM     18  C   UNL     1      12.729   5.288  22.920  0.00  0.00    +0.417 C 
ATOM     19  F   UNL     1      13.753   4.522  23.387  0.00  0.00    -0.166 F 
ATOM     20  F   UNL     1      13.016   6.566  23.295  0.00  0.00    -0.166 F 
ATOM     21  F   UNL     1      12.837   5.265  21.562  0.00  0.00    -0.166 F 
ENDBRANCH  14  18
ENDBRANCH   9  12
ENDBRANCH   5   8
BRANCH   7  22
ATOM     22  N   UNL     1       8.905  -3.108  25.889  0.00  0.00    -0.313 N 
ATOM     23  H   UNL     1       9.833  -3.488  26.068  0.00  0.00    +0.152 HD
BRANCH  22  24
ATOM     24  C   UNL     1       7.886  -3.766  26.601  0.00  0.00    +0.050 A 
ATOM     25  C   UNL     1       8.041  -5.075  27.061  0.00  0.00    +0.134 A 
ATOM     26  N   UNL     1       7.087  -5.777  27.715  0.00  0.00    -0.261 NA
ATOM     27  C   UNL     1       5.918  -5.132  27.951  0.00  0.00    +0.123 A 
ATOM     28  C   UNL     1       5.665  -3.819  27.570  0.00  0.00    +0.056 A 
ATOM     29  C   UNL     1       6.666  -3.139  26.872  0.00  0.00    +0.039 A 
BRANCH  28  30
ATOM     30  C   UNL     1       4.357  -3.222  27.925  0.00  0.00    +0.243 C 
ATOM     31  O   UNL     1       3.822  -3.464  29.001  0.00  0.00    -0.270 OA
ATOM     32  N   UNL     1       3.759  -2.371  27.036  0.00  0.00    -0.325 N 
ATOM     33  H   UNL     1       2.890  -1.945  27.331  0.00  0.00    +0.145 HD
ATOM     34  H   UNL     1       4.163  -2.051  26.169  0.00  0.00    +0.145 HD
ENDBRANCH  28  30
ENDBRANCH  22  24
ENDBRANCH   7  22
TORSDOF 6
ENDMDL
MODEL 6
REMARK VINA RESULT:      -7.5      5.356      9.919
REMARK  Name = 
REMARK  7 active torsions:
REMARK  status: ('A' for Active; 'I' for Inactive)
REMARK    1  A    between atoms: C_1  and  C_2
REMARK    2  A    between atoms: C_3  and  N_4
REMARK    3  A    between atoms: N_4  and  C_5
REMARK    4  A    between atoms: C_7  and  C_11
REMARK    5  A    between atoms: C_15  and  C_18
REMARK    6  A    between atoms: N_20  and  C_21
REMARK    7  A    between atoms: C_25  and  C_27
REMARK                            x       y       z     vdW  Elec       q    Type
REMARK                         _______ _______ _______ _____ _____    ______ ____
ROOT
ATOM      1  C   UNL     1      10.887   3.204  23.427  0.00  0.00    +0.045 C 
ATOM      2  C   UNL     1      10.358   1.798  23.323  0.00  0.00    -0.029 A 
ATOM      3  C   UNL     1      11.026   0.805  24.059  0.00  0.00    +0.006 A 
ATOM      4  C   UNL     1      10.597  -0.519  24.018  0.00  0.00    +0.013 A 
ATOM      5  C   UNL     1       9.497  -0.875  23.234  0.00  0.00    +0.039 A 
ATOM      6  C   UNL     1       8.859   0.093  22.452  0.00  0.00    +0.036 A 
ATOM      7  C   UNL     1       9.270   1.440  22.497  0.00  0.00    +0.035 A 
ENDROOT
BRANCH   5   8
ATOM      8  C   UNL     1       9.052  -2.295  23.274  0.00  0.00    +0.248 C 
ATOM      9  N   UNL     1       7.737  -2.529  22.900  0.00  0.00    -0.281 N 
ATOM     10  H   UNL     1       7.161  -1.724  22.697  0.00  0.00    +0.155 HD
ATOM     11  O   UNL     1       9.853  -3.122  23.696  0.00  0.00    -0.270 OA
BRANCH   9  12
ATOM     12  C   UNL     1       7.074  -3.780  22.925  0.00  0.00    +0.034 A 
ATOM     13  C   UNL     1       6.285  -4.088  24.044  0.00  0.00    +0.035 A 
ATOM     14  C   UNL     1       5.611  -5.323  24.143  0.00  0.00    +0.057 A 
ATOM     15  C   UNL     1       5.736  -6.252  23.102  0.00  0.00    +0.012 A 
ATOM     16  C   UNL     1       6.506  -5.948  21.984  0.00  0.00    +0.002 A 
ATOM     17  C   UNL     1       7.165  -4.719  21.896  0.00  0.00    +0.023 A 
BRANCH  14  18
ATOM     18  C   UNL     1       4.769  -5.639  25.354  0.00  0.00    +0.417 C 
ATOM     19  F   UNL     1       5.238  -6.713  26.047  0.00  0.00    -0.166 F 
ATOM     20  F   UNL     1       3.480  -5.938  25.029  0.00  0.00    -0.166 F 
ATOM     21  F   UNL     1       4.699  -4.617  26.254  0.00  0.00    -0.166 F 
ENDBRANCH  14  18
ENDBRANCH   9  12
ENDBRANCH   5   8
BRANCH   7  22
ATOM     22  N   UNL     1       8.578   2.442  21.774  0.00  0.00    -0.313 N 
ATOM     23  H   UNL     1       9.225   2.978  21.199  0.00  0.00    +0.152 HD
BRANCH  22  24
ATOM     24  C   UNL     1       7.443   3.175  22.167  0.00  0.00    +0.050 A 
ATOM     25  C   UNL     1       6.152   2.665  22.014  0.00  0.00    +0.134 A 
ATOM     26  N   UNL     1       5.021   3.334  22.333  0.00  0.00    -0.261 NA
ATOM     27  C   UNL     1       5.179   4.572  22.863  0.00  0.00    +0.123 A 
ATOM     28  C   UNL     1       6.416   5.165  23.093  0.00  0.00    +0.056 A 
ATOM     29  C   UNL     1       7.559   4.452  22.723  0.00  0.00    +0.039 A 
BRANCH  28  30
ATOM     30  C   UNL     1       6.447   6.509  23.714  0.00  0.00    +0.243 C 
ATOM     31  O   UNL     1       7.506   7.091  23.912  0.00  0.00    -0.270 OA
ATOM     32  N   UNL     1       5.261   7.106  24.048  0.00  0.00    -0.325 N 
ATOM     33  H   UNL     1       5.316   8.043  24.426  0.00  0.00    +0.145 HD
ATOM     34  H   UNL     1       4.343   6.740  23.847  0.00  0.00    +0.145 HD
ENDBRANCH  28  30
ENDBRANCH  22  24
ENDBRANCH   7  22
TORSDOF 6
ENDMDL
MODEL 7
REMARK VINA RESULT:      -7.3      3.336      4.270
REMARK  Name = 
REMARK  7 active torsions:
REMARK  status: ('A' for Active; 'I' for Inactive)
REMARK    1  A    between atoms: C_1  and  C_2
REMARK    2  A    between atoms: C_3  and  N_4
REMARK    3  A    between atoms: N_4  and  C_5
REMARK    4  A    between atoms: C_7  and  C_11
REMARK    5  A    between atoms: C_15  and  C_18
REMARK    6  A    between atoms: N_20  and  C_21
REMARK    7  A    between atoms: C_25  and  C_27
REMARK                            x       y       z     vdW  Elec       q    Type
REMARK                         _______ _______ _______ _____ _____    ______ ____
ROOT
ATOM      1  C   UNL     1       8.520  -3.703  26.619  0.00  0.00    +0.045 C 
ATOM      2  C   UNL     1       8.569  -2.448  25.788  0.00  0.00    -0.029 A 
ATOM      3  C   UNL     1       8.627  -1.224  26.476  0.00  0.00    +0.006 A 
ATOM      4  C   UNL     1       8.677  -0.020  25.779  0.00  0.00    +0.013 A 
ATOM      5  C   UNL     1       8.662  -0.017  24.383  0.00  0.00    +0.039 A 
ATOM      6  C   UNL     1       8.547  -1.225  23.687  0.00  0.00    +0.036 A 
ATOM      7  C   UNL     1       8.515  -2.453  24.377  0.00  0.00    +0.035 A 
ENDROOT
BRANCH   5   8
ATOM      8  C   UNL     1       8.774   1.298  23.695  0.00  0.00    +0.248 C 
ATOM      9  N   UNL     1       8.729   2.417  24.513  0.00  0.00    -0.281 N 
ATOM     10  H   UNL     1       8.554   2.266  25.497  0.00  0.00    +0.155 HD
ATOM     11  O   UNL     1       8.827   1.287  22.469  0.00  0.00    -0.270 OA
BRANCH   9  12
ATOM     12  C   UNL     1       8.745   3.766  24.082  0.00  0.00    +0.034 A 
ATOM     13  C   UNL     1       7.542   4.332  23.635  0.00  0.00    +0.035 A 
ATOM     14  C   UNL     1       7.491   5.665  23.175  0.00  0.00    +0.057 A 
ATOM     15  C   UNL     1       8.666   6.428  23.169  0.00  0.00    +0.012 A 
ATOM     16  C   UNL     1       9.859   5.877  23.623  0.00  0.00    +0.002 A 
ATOM     17  C   UNL     1       9.896   4.557  24.080  0.00  0.00    +0.023 A 
BRANCH  14  18
ATOM     18  C   UNL     1       6.190   6.258  22.696  0.00  0.00    +0.417 C 
ATOM     19  F   UNL     1       5.639   7.108  23.607  0.00  0.00    -0.166 F 
ATOM     20  F   UNL     1       5.244   5.310  22.450  0.00  0.00    -0.166 F 
ATOM     21  F   UNL     1       6.307   6.976  21.543  0.00  0.00    -0.166 F 
ENDBRANCH  14  18
ENDBRANCH   9  12
ENDBRANCH   5   8
BRANCH   7  22
ATOM     22  N   UNL     1       8.483  -3.685  23.679  0.00  0.00    -0.313 N 
ATOM     23  H   UNL     1       9.310  -3.782  23.093  0.00  0.00    +0.152 HD
BRANCH  22  24
ATOM     24  C   UNL     1       7.364  -4.379  23.186  0.00  0.00    +0.050 A 
ATOM     25  C   UNL     1       6.992  -4.309  21.842  0.00  0.00    +0.134 A 
ATOM     26  N   UNL     1       5.906  -4.918  21.314  0.00  0.00    -0.261 NA
ATOM     27  C   UNL     1       5.159  -5.666  22.164  0.00  0.00    +0.123 A 
ATOM     28  C   UNL     1       5.454  -5.836  23.513  0.00  0.00    +0.056 A 
ATOM     29  C   UNL     1       6.569  -5.166  24.024  0.00  0.00    +0.039 A 
BRANCH  28  30
ATOM     30  C   UNL     1       4.576  -6.712  24.320  0.00  0.00    +0.243 C 
ATOM     31  O   UNL     1       4.833  -6.960  25.492  0.00  0.00    -0.270 OA
ATOM     32  N   UNL     1       3.449  -7.229  23.739  0.00  0.00    -0.325 N 
ATOM     33  H   UNL     1       2.847  -7.783  24.332  0.00  0.00    +0.145 HD
ATOM     34  H   UNL     1       3.116  -7.012  22.812  0.00  0.00    +0.145 HD
ENDBRANCH  28  30
ENDBRANCH  22  24
ENDBRANCH   7  22
TORSDOF 6
ENDMDL
MODEL 8
REMARK VINA RESULT:      -7.2      3.308      3.893
REMARK  Name = 
REMARK  7 active torsions:
REMARK  status: ('A' for Active; 'I' for Inactive)
REMARK    1  A    between atoms: C_1  and  C_2
REMARK    2  A    between atoms: C_3  and  N_4
REMARK    3  A    between atoms: N_4  and  C_5
REMARK    4  A    between atoms: C_7  and  C_11
REMARK    5  A    between atoms: C_15  and  C_18
REMARK    6  A    between atoms: N_20  and  C_21
REMARK    7  A    between atoms: C_25  and  C_27
REMARK                            x       y       z     vdW  Elec       q    Type
REMARK                         _______ _______ _______ _____ _____    ______ ____
ROOT
ATOM      1  C   UNL     1       8.298  -4.783  24.268  0.00  0.00    +0.045 C 
ATOM      2  C   UNL     1       8.503  -3.345  23.868  0.00  0.00    -0.029 A 
ATOM      3  C   UNL     1       9.684  -2.721  24.301  0.00  0.00    +0.006 A 
ATOM      4  C   UNL     1       9.948  -1.395  23.971  0.00  0.00    +0.013 A 
ATOM      5  C   UNL     1       9.033  -0.666  23.209  0.00  0.00    +0.039 A 
ATOM      6  C   UNL     1       7.826  -1.258  22.820  0.00  0.00    +0.036 A 
ATOM      7  C   UNL     1       7.553  -2.606  23.131  0.00  0.00    +0.035 A 
ENDROOT
BRANCH   5   8
ATOM      8  C   UNL     1       9.396   0.730  22.842  0.00  0.00    +0.248 C 
ATOM      9  N   UNL     1       9.864   1.527  23.876  0.00  0.00    -0.281 N 
ATOM     10  H   UNL     1       9.858   1.132  24.806  0.00  0.00    +0.155 HD
ATOM     11  O   UNL     1       9.190   1.076  21.684  0.00  0.00    -0.270 OA
BRANCH   9  12
ATOM     12  C   UNL     1      10.202   2.899  23.783  0.00  0.00    +0.034 A 
ATOM     13  C   UNL     1       9.223   3.846  24.116  0.00  0.00    +0.035 A 
ATOM     14  C   UNL     1       9.487   5.229  24.029  0.00  0.00    +0.057 A 
ATOM     15  C   UNL     1      10.751   5.655  23.601  0.00  0.00    +0.012 A 
ATOM     16  C   UNL     1      11.731   4.721  23.282  0.00  0.00    +0.002 A 
ATOM     17  C   UNL     1      11.458   3.354  23.376  0.00  0.00    +0.023 A 
BRANCH  14  18
ATOM     18  C   UNL     1       8.422   6.235  24.390  0.00  0.00    +0.417 C 
ATOM     19  F   UNL     1       7.230   5.645  24.686  0.00  0.00    -0.166 F 
ATOM     20  F   UNL     1       8.165   7.108  23.377  0.00  0.00    -0.166 F 
ATOM     21  F   UNL     1       8.736   7.001  25.472  0.00  0.00    -0.166 F 
ENDBRANCH  14  18
ENDBRANCH   9  12
ENDBRANCH   5   8
BRANCH   7  22
ATOM     22  N   UNL     1       6.373  -3.238  22.669  0.00  0.00    -0.313 N 
ATOM     23  H   UNL     1       6.213  -3.019  21.688  0.00  0.00    +0.152 HD
BRANCH  22  24
ATOM     24  C   UNL     1       5.190  -3.505  23.382  0.00  0.00    +0.050 A 
ATOM     25  C   UNL     1       4.815  -2.742  24.490  0.00  0.00    +0.134 A 
ATOM     26  N   UNL     1       3.714  -2.971  25.241  0.00  0.00    -0.261 NA
ATOM     27  C   UNL     1       2.922  -4.002  24.855  0.00  0.00    +0.123 A 
ATOM     28  C   UNL     1       3.179  -4.806  23.749  0.00  0.00    +0.056 A 
ATOM     29  C   UNL     1       4.342  -4.554  23.017  0.00  0.00    +0.039 A 
BRANCH  28  30
ATOM     30  C   UNL     1       2.210  -5.875  23.416  0.00  0.00    +0.243 C 
ATOM     31  O   UNL     1       1.029  -5.779  23.729  0.00  0.00    -0.270 OA
ATOM     32  N   UNL     1       2.652  -6.971  22.727  0.00  0.00    -0.325 N 
ATOM     33  H   UNL     1       1.954  -7.659  22.473  0.00  0.00    +0.145 HD
ATOM     34  H   UNL     1       3.582  -7.095  22.356  0.00  0.00    +0.145 HD
ENDBRANCH  28  30
ENDBRANCH  22  24
ENDBRANCH   7  22
TORSDOF 6
ENDMDL
MODEL 9
REMARK VINA RESULT:      -7.2      5.544     10.089
REMARK  Name = 
REMARK  7 active torsions:
REMARK  status: ('A' for Active; 'I' for Inactive)
REMARK    1  A    between atoms: C_1  and  C_2
REMARK    2  A    between atoms: C_3  and  N_4
REMARK    3  A    between atoms: N_4  and  C_5
REMARK    4  A    between atoms: C_7  and  C_11
REMARK    5  A    between atoms: C_15  and  C_18
REMARK    6  A    between atoms: N_20  and  C_21
REMARK    7  A    between atoms: C_25  and  C_27
REMARK                            x       y       z     vdW  Elec       q    Type
REMARK                         _______ _______ _______ _____ _____    ______ ____
ROOT
ATOM      1  C   UNL     1      10.338   1.860  22.227  0.00  0.00    +0.045 C 
ATOM      2  C   UNL     1       9.690   0.548  22.581  0.00  0.00    -0.029 A 
ATOM      3  C   UNL     1      10.512  -0.445  23.137  0.00  0.00    +0.006 A 
ATOM      4  C   UNL     1       9.988  -1.684  23.495  0.00  0.00    +0.013 A 
ATOM      5  C   UNL     1       8.633  -1.955  23.295  0.00  0.00    +0.039 A 
ATOM      6  C   UNL     1       7.814  -0.995  22.690  0.00  0.00    +0.036 A 
ATOM      7  C   UNL     1       8.327   0.270  22.340  0.00  0.00    +0.035 A 
ENDROOT
BRANCH   5   8
ATOM      8  C   UNL     1       8.120  -3.277  23.748  0.00  0.00    +0.248 C 
ATOM      9  N   UNL     1       6.742  -3.383  23.873  0.00  0.00    -0.281 N 
ATOM     10  H   UNL     1       6.196  -2.546  23.719  0.00  0.00    +0.155 HD
ATOM     11  O   UNL     1       8.950  -4.132  24.036  0.00  0.00    -0.270 OA
BRANCH   9  12
ATOM     12  C   UNL     1       6.033  -4.511  24.351  0.00  0.00    +0.034 A 
ATOM     13  C   UNL     1       5.906  -4.673  25.739  0.00  0.00    +0.035 A 
ATOM     14  C   UNL     1       5.227  -5.784  26.283  0.00  0.00    +0.057 A 
ATOM     15  C   UNL     1       4.674  -6.735  25.417  0.00  0.00    +0.012 A 
ATOM     16  C   UNL     1       4.786  -6.574  24.040  0.00  0.00    +0.002 A 
ATOM     17  C   UNL     1       5.457  -5.468  23.513  0.00  0.00    +0.023 A 
BRANCH  14  18
ATOM     18  C   UNL     1       5.100  -5.944  27.778  0.00  0.00    +0.417 C 
ATOM     19  F   UNL     1       3.811  -5.843  28.204  0.00  0.00    -0.166 F 
ATOM     20  F   UNL     1       5.796  -4.995  28.465  0.00  0.00    -0.166 F 
ATOM     21  F   UNL     1       5.551  -7.144  28.240  0.00  0.00    -0.166 F 
ENDBRANCH  14  18
ENDBRANCH   9  12
ENDBRANCH   5   8
BRANCH   7  22
ATOM     22  N   UNL     1       7.487   1.277  21.805  0.00  0.00    -0.313 N 
ATOM     23  H   UNL     1       7.783   1.523  20.862  0.00  0.00    +0.152 HD
BRANCH  22  24
ATOM     24  C   UNL     1       6.848   2.331  22.482  0.00  0.00    +0.050 A 
ATOM     25  C   UNL     1       5.922   2.094  23.499  0.00  0.00    +0.134 A 
ATOM     26  N   UNL     1       5.244   3.060  24.160  0.00  0.00    -0.261 NA
ATOM     27  C   UNL     1       5.522   4.341  23.810  0.00  0.00    +0.123 A 
ATOM     28  C   UNL     1       6.450   4.695  22.837  0.00  0.00    +0.056 A 
ATOM     29  C   UNL     1       7.108   3.666  22.159  0.00  0.00    +0.039 A 
BRANCH  28  30
ATOM     30  C   UNL     1       6.686   6.134  22.581  0.00  0.00    +0.243 C 
ATOM     31  O   UNL     1       6.478   6.975  23.448  0.00  0.00    -0.270 OA
ATOM     32  N   UNL     1       7.165   6.514  21.356  0.00  0.00    -0.325 N 
ATOM     33  H   UNL     1       7.361   7.499  21.232  0.00  0.00    +0.145 HD
ATOM     34  H   UNL     1       7.444   5.889  20.616  0.00  0.00    +0.145 HD
ENDBRANCH  28  30
ENDBRANCH  22  24
ENDBRANCH   7  22
TORSDOF 6
ENDMDL
