MODEL 1
REMARK VINA RESULT:      -6.9      0.000      0.000
REMARK  Name = 
REMARK  1 active torsions:
REMARK  status: ('A' for Active; 'I' for Inactive)
REMARK    1  A    between atoms: C_4  and  C_12
REMARK                            x       y       z     vdW  Elec       q    Type
REMARK                         _______ _______ _______ _____ _____    ______ ____
ROOT
ATOM      1  O   UNL     1       9.792  -4.683  24.877  0.00  0.00    -0.287 OA
ATOM      2  C   UNL     1       9.227  -3.852  24.177  0.00  0.00    +0.193 A 
ATOM      3  C   UNL     1       8.035  -4.166  23.386  0.00  0.00    +0.064 A 
ATOM      4  C   UNL     1       7.430  -3.145  22.656  0.00  0.00    +0.139 A 
ATOM      5  C   UNL     1       6.310  -3.429  21.876  0.00  0.00    +0.047 A 
ATOM      6  C   UNL     1       5.810  -4.735  21.821  0.00  0.00    +0.004 A 
ATOM      7  C   UNL     1       6.421  -5.754  22.554  0.00  0.00    +0.001 A 
ATOM      8  O   UNL     1       7.895  -1.852  22.658  0.00  0.00    -0.455 OA
ATOM      9  C   UNL     1       9.072  -1.571  23.346  0.00  0.00    +0.139 A 
ATOM     10  C   UNL     1       7.535  -5.471  23.344  0.00  0.00    +0.015 A 
ATOM     11  C   UNL     1       9.741  -2.481  24.071  0.00  0.00    +0.098 A 
ENDROOT
BRANCH   9  12
ATOM     12  C   UNL     1       9.584  -0.188  23.176  0.00  0.00    +0.017 A 
ATOM     13  C   UNL     1       9.442   0.513  21.965  0.00  0.00    +0.011 A 
ATOM     14  C   UNL     1       9.863   1.840  21.840  0.00  0.00    +0.001 A 
ATOM     15  C   UNL     1      10.458   2.485  22.918  0.00  0.00    +0.000 A 
ATOM     16  C   UNL     1      10.647   1.799  24.115  0.00  0.00    +0.001 A 
ATOM     17  C   UNL     1      10.218   0.473  24.241  0.00  0.00    +0.011 A 
ENDBRANCH   9  12
TORSDOF 1
ENDMDL
MODEL 2
REMARK VINA RESULT:      -6.6      1.348      5.848
REMARK  Name = 
REMARK  1 active torsions:
REMARK  status: ('A' for Active; 'I' for Inactive)
REMARK    1  A    between atoms: C_4  and  C_12
REMARK                            x       y       z     vdW  Elec       q    Type
REMARK                         _______ _______ _______ _____ _____    ______ ____
ROOT
ATOM      1  O   UNL     1       9.121  -0.659  26.342  0.00  0.00    -0.287 OA
ATOM      2  C   UNL     1       8.978  -0.863  25.143  0.00  0.00    +0.193 A 
ATOM      3  C   UNL     1       9.417   0.092  24.123  0.00  0.00    +0.064 A 
ATOM      4  C   UNL     1       9.257  -0.245  22.780  0.00  0.00    +0.139 A 
ATOM      5  C   UNL     1       9.645   0.660  21.794  0.00  0.00    +0.047 A 
ATOM      6  C   UNL     1      10.178   1.902  22.156  0.00  0.00    +0.004 A 
ATOM      7  C   UNL     1      10.336   2.234  23.504  0.00  0.00    +0.001 A 
ATOM      8  O   UNL     1       8.717  -1.441  22.371  0.00  0.00    -0.455 OA
ATOM      9  C   UNL     1       8.228  -2.313  23.340  0.00  0.00    +0.139 A 
ATOM     10  C   UNL     1       9.959   1.326  24.492  0.00  0.00    +0.015 A 
ATOM     11  C   UNL     1       8.320  -2.082  24.659  0.00  0.00    +0.098 A 
ENDROOT
BRANCH   9  12
ATOM     12  C   UNL     1       7.530  -3.511  22.811  0.00  0.00    +0.017 A 
ATOM     13  C   UNL     1       6.504  -3.411  21.854  0.00  0.00    +0.011 A 
ATOM     14  C   UNL     1       5.904  -4.550  21.310  0.00  0.00    +0.001 A 
ATOM     15  C   UNL     1       6.303  -5.815  21.730  0.00  0.00    +0.000 A 
ATOM     16  C   UNL     1       7.288  -5.938  22.705  0.00  0.00    +0.001 A 
ATOM     17  C   UNL     1       7.893  -4.798  23.244  0.00  0.00    +0.011 A 
ENDBRANCH   9  12
TORSDOF 1
ENDMDL
MODEL 3
REMARK VINA RESULT:      -6.5      1.584      2.512
REMARK  Name = 
REMARK  1 active torsions:
REMARK  status: ('A' for Active; 'I' for Inactive)
REMARK    1  A    between atoms: C_4  and  C_12
REMARK                            x       y       z     vdW  Elec       q    Type
REMARK                         _______ _______ _______ _____ _____    ______ ____
ROOT
ATOM      1  O   UNL     1       6.835  -4.120  21.879  0.00  0.00    -0.287 OA
ATOM      2  C   UNL     1       7.417  -3.505  22.764  0.00  0.00    +0.193 A 
ATOM      3  C   UNL     1       7.475  -3.981  24.148  0.00  0.00    +0.064 A 
ATOM      4  C   UNL     1       8.200  -3.241  25.079  0.00  0.00    +0.139 A 
ATOM      5  C   UNL     1       8.247  -3.663  26.407  0.00  0.00    +0.047 A 
ATOM      6  C   UNL     1       7.558  -4.816  26.797  0.00  0.00    +0.004 A 
ATOM      7  C   UNL     1       6.832  -5.554  25.859  0.00  0.00    +0.001 A 
ATOM      8  O   UNL     1       8.875  -2.089  24.752  0.00  0.00    -0.455 OA
ATOM      9  C   UNL     1       8.754  -1.595  23.457  0.00  0.00    +0.139 A 
ATOM     10  C   UNL     1       6.793  -5.141  24.529  0.00  0.00    +0.015 A 
ATOM     11  C   UNL     1       8.072  -2.221  22.486  0.00  0.00    +0.098 A 
ENDROOT
BRANCH   9  12
ATOM     12  C   UNL     1       9.391  -0.274  23.227  0.00  0.00    +0.017 A 
ATOM     13  C   UNL     1       9.285   0.397  21.994  0.00  0.00    +0.011 A 
ATOM     14  C   UNL     1       9.827   1.673  21.813  0.00  0.00    +0.001 A 
ATOM     15  C   UNL     1      10.507   2.294  22.854  0.00  0.00    +0.000 A 
ATOM     16  C   UNL     1      10.661   1.634  24.070  0.00  0.00    +0.001 A 
ATOM     17  C   UNL     1      10.111   0.360  24.253  0.00  0.00    +0.011 A 
ENDBRANCH   9  12
TORSDOF 1
ENDMDL
MODEL 4
REMARK VINA RESULT:      -6.4      1.983      3.073
REMARK  Name = 
REMARK  1 active torsions:
REMARK  status: ('A' for Active; 'I' for Inactive)
REMARK    1  A    between atoms: C_4  and  C_12
REMARK                            x       y       z     vdW  Elec       q    Type
REMARK                         _______ _______ _______ _____ _____    ______ ____
ROOT
ATOM      1  O   UNL     1       5.756  -5.068  21.137  0.00  0.00    -0.287 OA
ATOM      2  C   UNL     1       6.283  -4.660  22.165  0.00  0.00    +0.193 A 
ATOM      3  C   UNL     1       5.985  -5.228  23.483  0.00  0.00    +0.064 A 
ATOM      4  C   UNL     1       6.668  -4.733  24.592  0.00  0.00    +0.139 A 
ATOM      5  C   UNL     1       6.381  -5.242  25.858  0.00  0.00    +0.047 A 
ATOM      6  C   UNL     1       5.404  -6.232  26.008  0.00  0.00    +0.004 A 
ATOM      7  C   UNL     1       4.723  -6.723  24.892  0.00  0.00    +0.001 A 
ATOM      8  O   UNL     1       7.619  -3.745  24.502  0.00  0.00    -0.455 OA
ATOM      9  C   UNL     1       7.844  -3.152  23.263  0.00  0.00    +0.139 A 
ATOM     10  C   UNL     1       5.016  -6.225  23.624  0.00  0.00    +0.015 A 
ATOM     11  C   UNL     1       7.234  -3.543  22.133  0.00  0.00    +0.098 A 
ENDROOT
BRANCH   9  12
ATOM     12  C   UNL     1       8.776  -1.997  23.280  0.00  0.00    +0.017 A 
ATOM     13  C   UNL     1       9.171  -1.345  22.097  0.00  0.00    +0.011 A 
ATOM     14  C   UNL     1       9.991  -0.214  22.131  0.00  0.00    +0.001 A 
ATOM     15  C   UNL     1      10.454   0.274  23.349  0.00  0.00    +0.000 A 
ATOM     16  C   UNL     1      10.111  -0.379  24.529  0.00  0.00    +0.001 A 
ATOM     17  C   UNL     1       9.283  -1.506  24.495  0.00  0.00    +0.011 A 
ENDBRANCH   9  12
TORSDOF 1
ENDMDL
MODEL 5
REMARK VINA RESULT:      -6.3      2.554      4.288
REMARK  Name = 
REMARK  1 active torsions:
REMARK  status: ('A' for Active; 'I' for Inactive)
REMARK    1  A    between atoms: C_4  and  C_12
REMARK                            x       y       z     vdW  Elec       q    Type
REMARK                         _______ _______ _______ _____ _____    ______ ____
ROOT
ATOM      1  O   UNL     1       9.676  -0.764  21.208  0.00  0.00    -0.287 OA
ATOM      2  C   UNL     1       9.679  -0.173  22.281  0.00  0.00    +0.193 A 
ATOM      3  C   UNL     1       9.333  -0.828  23.544  0.00  0.00    +0.064 A 
ATOM      4  C   UNL     1       9.410  -0.090  24.723  0.00  0.00    +0.139 A 
ATOM      5  C   UNL     1       9.061  -0.687  25.933  0.00  0.00    +0.047 A 
ATOM      6  C   UNL     1       8.623  -2.016  25.954  0.00  0.00    +0.004 A 
ATOM      7  C   UNL     1       8.547  -2.751  24.770  0.00  0.00    +0.001 A 
ATOM      8  O   UNL     1       9.811   1.225  24.753  0.00  0.00    -0.455 OA
ATOM      9  C   UNL     1      10.064   1.869  23.546  0.00  0.00    +0.139 A 
ATOM     10  C   UNL     1       8.907  -2.160  23.560  0.00  0.00    +0.015 A 
ATOM     11  C   UNL     1      10.007   1.256  22.353  0.00  0.00    +0.098 A 
ENDROOT
BRANCH   9  12
ATOM     12  C   UNL     1      10.347   3.322  23.656  0.00  0.00    +0.017 A 
ATOM     13  C   UNL     1      11.619   3.854  23.377  0.00  0.00    +0.011 A 
ATOM     14  C   UNL     1      11.854   5.232  23.414  0.00  0.00    +0.001 A 
ATOM     15  C   UNL     1      10.826   6.104  23.755  0.00  0.00    +0.000 A 
ATOM     16  C   UNL     1       9.570   5.598  24.075  0.00  0.00    +0.001 A 
ATOM     17  C   UNL     1       9.333   4.220  24.030  0.00  0.00    +0.011 A 
ENDBRANCH   9  12
TORSDOF 1
ENDMDL
MODEL 6
REMARK VINA RESULT:      -6.3      1.658      2.043
REMARK  Name = 
REMARK  1 active torsions:
REMARK  status: ('A' for Active; 'I' for Inactive)
REMARK    1  A    between atoms: C_4  and  C_12
REMARK                            x       y       z     vdW  Elec       q    Type
REMARK                         _______ _______ _______ _____ _____    ______ ____
ROOT
ATOM      1  O   UNL     1       9.985  -4.884  24.820  0.00  0.00    -0.287 OA
ATOM      2  C   UNL     1       9.229  -3.931  24.671  0.00  0.00    +0.193 A 
ATOM      3  C   UNL     1       7.787  -4.023  24.911  0.00  0.00    +0.064 A 
ATOM      4  C   UNL     1       7.011  -2.875  24.763  0.00  0.00    +0.139 A 
ATOM      5  C   UNL     1       5.634  -2.947  24.962  0.00  0.00    +0.047 A 
ATOM      6  C   UNL     1       5.039  -4.168  25.294  0.00  0.00    +0.004 A 
ATOM      7  C   UNL     1       5.821  -5.316  25.441  0.00  0.00    +0.001 A 
ATOM      8  O   UNL     1       7.543  -1.656  24.415  0.00  0.00    -0.455 OA
ATOM      9  C   UNL     1       8.899  -1.587  24.110  0.00  0.00    +0.139 A 
ATOM     10  C   UNL     1       7.201  -5.244  25.255  0.00  0.00    +0.015 A 
ATOM     11  C   UNL     1       9.735  -2.633  24.208  0.00  0.00    +0.098 A 
ENDROOT
BRANCH   9  12
ATOM     12  C   UNL     1       9.363  -0.272  23.602  0.00  0.00    +0.017 A 
ATOM     13  C   UNL     1      10.087   0.623  24.411  0.00  0.00    +0.011 A 
ATOM     14  C   UNL     1      10.581   1.827  23.899  0.00  0.00    +0.001 A 
ATOM     15  C   UNL     1      10.339   2.172  22.574  0.00  0.00    +0.000 A 
ATOM     16  C   UNL     1       9.589   1.322  21.766  0.00  0.00    +0.001 A 
ATOM     17  C   UNL     1       9.102   0.113  22.276  0.00  0.00    +0.011 A 
ENDBRANCH   9  12
TORSDOF 1
ENDMDL
MODEL 7
REMARK VINA RESULT:      -6.2      1.709      6.138
REMARK  Name = 
REMARK  1 active torsions:
REMARK  status: ('A' for Active; 'I' for Inactive)
REMARK    1  A    between atoms: C_4  and  C_12
REMARK                            x       y       z     vdW  Elec       q    Type
REMARK                         _______ _______ _______ _____ _____    ______ ____
ROOT
ATOM      1  O   UNL     1       5.827   0.621  24.604  0.00  0.00    -0.287 OA
ATOM      2  C   UNL     1       6.602  -0.009  23.895  0.00  0.00    +0.193 A 
ATOM      3  C   UNL     1       7.764   0.609  23.252  0.00  0.00    +0.064 A 
ATOM      4  C   UNL     1       8.619  -0.195  22.502  0.00  0.00    +0.139 A 
ATOM      5  C   UNL     1       9.716   0.378  21.861  0.00  0.00    +0.047 A 
ATOM      6  C   UNL     1       9.943   1.755  21.964  0.00  0.00    +0.004 A 
ATOM      7  C   UNL     1       9.083   2.556  22.717  0.00  0.00    +0.001 A 
ATOM      8  O   UNL     1       8.427  -1.548  22.349  0.00  0.00    -0.455 OA
ATOM      9  C   UNL     1       7.281  -2.120  22.894  0.00  0.00    +0.139 A 
ATOM     10  C   UNL     1       7.992   1.983  23.369  0.00  0.00    +0.015 A 
ATOM     11  C   UNL     1       6.386  -1.436  23.624  0.00  0.00    +0.098 A 
ENDROOT
BRANCH   9  12
ATOM     12  C   UNL     1       7.074  -3.551  22.560  0.00  0.00    +0.017 A 
ATOM     13  C   UNL     1       6.228  -3.954  21.510  0.00  0.00    +0.011 A 
ATOM     14  C   UNL     1       6.098  -5.301  21.159  0.00  0.00    +0.001 A 
ATOM     15  C   UNL     1       6.793  -6.275  21.866  0.00  0.00    +0.000 A 
ATOM     16  C   UNL     1       7.604  -5.905  22.935  0.00  0.00    +0.001 A 
ATOM     17  C   UNL     1       7.740  -4.556  23.281  0.00  0.00    +0.011 A 
ENDBRANCH   9  12
TORSDOF 1
ENDMDL
MODEL 8
REMARK VINA RESULT:      -6.1      2.384      2.971
REMARK  Name = 
REMARK  1 active torsions:
REMARK  status: ('A' for Active; 'I' for Inactive)
REMARK    1  A    between atoms: C_4  and  C_12
REMARK                            x       y       z     vdW  Elec       q    Type
REMARK                         _______ _______ _______ _____ _____    ______ ____
ROOT
ATOM      1  O   UNL     1       7.214  -5.268  27.920  0.00  0.00    -0.287 OA
ATOM      2  C   UNL     1       7.156  -4.799  26.790  0.00  0.00    +0.193 A 
ATOM      3  C   UNL     1       6.221  -5.295  25.777  0.00  0.00    +0.064 A 
ATOM      4  C   UNL     1       6.191  -4.669  24.533  0.00  0.00    +0.139 A 
ATOM      5  C   UNL     1       5.326  -5.141  23.547  0.00  0.00    +0.047 A 
ATOM      6  C   UNL     1       4.507  -6.245  23.807  0.00  0.00    +0.004 A 
ATOM      7  C   UNL     1       4.541  -6.868  25.056  0.00  0.00    +0.001 A 
ATOM      8  O   UNL     1       6.992  -3.597  24.218  0.00  0.00    -0.455 OA
ATOM      9  C   UNL     1       7.935  -3.178  25.152  0.00  0.00    +0.139 A 
ATOM     10  C   UNL     1       5.396  -6.391  26.048  0.00  0.00    +0.015 A 
ATOM     11  C   UNL     1       8.057  -3.717  26.375  0.00  0.00    +0.098 A 
ENDROOT
BRANCH   9  12
ATOM     12  C   UNL     1       8.857  -2.114  24.680  0.00  0.00    +0.017 A 
ATOM     13  C   UNL     1       9.509  -2.196  23.437  0.00  0.00    +0.011 A 
ATOM     14  C   UNL     1      10.318  -1.155  22.972  0.00  0.00    +0.001 A 
ATOM     15  C   UNL     1      10.510  -0.020  23.752  0.00  0.00    +0.000 A 
ATOM     16  C   UNL     1       9.908   0.065  25.005  0.00  0.00    +0.001 A 
ATOM     17  C   UNL     1       9.092  -0.974  25.466  0.00  0.00    +0.011 A 
ENDBRANCH   9  12
TORSDOF 1
ENDMDL
MODEL 9
REMARK VINA RESULT:      -6.1      1.690      2.309
REMARK  Name = 
REMARK  1 active torsions:
REMARK  status: ('A' for Active; 'I' for Inactive)
REMARK    1  A    between atoms: C_4  and  C_12
REMARK                            x       y       z     vdW  Elec       q    Type
REMARK                         _______ _______ _______ _____ _____    ______ ____
ROOT
ATOM      1  O   UNL     1       4.428  -2.251  24.877  0.00  0.00    -0.287 OA
ATOM      2  C   UNL     1       5.435  -2.366  24.188  0.00  0.00    +0.193 A 
ATOM      3  C   UNL     1       5.746  -3.588  23.444  0.00  0.00    +0.064 A 
ATOM      4  C   UNL     1       6.889  -3.612  22.647  0.00  0.00    +0.139 A 
ATOM      5  C   UNL     1       7.216  -4.774  21.951  0.00  0.00    +0.047 A 
ATOM      6  C   UNL     1       6.407  -5.909  22.066  0.00  0.00    +0.004 A 
ATOM      7  C   UNL     1       5.263  -5.880  22.867  0.00  0.00    +0.001 A 
ATOM      8  O   UNL     1       7.730  -2.533  22.518  0.00  0.00    -0.455 OA
ATOM      9  C   UNL     1       7.477  -1.400  23.286  0.00  0.00    +0.139 A 
ATOM     10  C   UNL     1       4.926  -4.715  23.555  0.00  0.00    +0.015 A 
ATOM     11  C   UNL     1       6.413  -1.275  24.094  0.00  0.00    +0.098 A 
ENDROOT
BRANCH   9  12
ATOM     12  C   UNL     1       8.511  -0.339  23.200  0.00  0.00    +0.017 A 
ATOM     13  C   UNL     1       8.834   0.287  21.981  0.00  0.00    +0.011 A 
ATOM     14  C   UNL     1       9.757   1.334  21.925  0.00  0.00    +0.001 A 
ATOM     15  C   UNL     1      10.396   1.762  23.084  0.00  0.00    +0.000 A 
ATOM     16  C   UNL     1      10.125   1.131  24.294  0.00  0.00    +0.001 A 
ATOM     17  C   UNL     1       9.194   0.088  24.351  0.00  0.00    +0.011 A 
ENDBRANCH   9  12
TORSDOF 1
ENDMDL
