MODEL 1
REMARK VINA RESULT:      -7.1      0.000      0.000
REMARK  Name = 
REMARK  8 active torsions:
REMARK  status: ('A' for Active; 'I' for Inactive)
REMARK    1  A    between atoms: C_2  and  C_5
REMARK    2  A    between atoms: C_7  and  N_8
REMARK    3  A    between atoms: N_8  and  C_9
REMARK    4  A    between atoms: C_10  and  C_15
REMARK    5  A    between atoms: C_15  and  O_17
REMARK    6  A    between atoms: O_17  and  C_18
REMARK    7  A    between atoms: C_18  and  C_19
REMARK    8  A    between atoms: C_19  and  N_20
REMARK                            x       y       z     vdW  Elec       q    Type
REMARK                         _______ _______ _______ _____ _____    ______ ____
ROOT
ATOM      1  C   UNL     1       7.763  -2.664  25.902  0.00  0.00    +0.137 A 
ATOM      2  N   UNL     1       6.859  -1.999  26.685  0.00  0.00    -0.239 NA
ATOM      3  C   UNL     1       7.034  -0.700  26.958  0.00  0.00    +0.113 A 
ATOM      4  C   UNL     1       8.063   0.039  26.436  0.00  0.00    +0.021 A 
ATOM      5  C   UNL     1       8.896  -0.585  25.517  0.00  0.00    +0.020 A 
ATOM      6  C   UNL     1       8.735  -1.959  25.186  0.00  0.00    +0.099 A 
ENDROOT
BRANCH   1   7
ATOM      7  N   UNL     1       7.734  -4.077  26.036  0.00  0.00    -0.299 N 
ATOM      8  H   UNL     1       8.672  -4.459  26.065  0.00  0.00    +0.154 HD
BRANCH   7  13
ATOM      9  C   UNL     1       6.049  -5.541  23.016  0.00  0.00    +0.057 A 
ATOM     10  C   UNL     1       5.062  -6.337  23.602  0.00  0.00    +0.012 A 
ATOM     11  C   UNL     1       4.934  -6.371  24.997  0.00  0.00    +0.002 A 
ATOM     12  C   UNL     1       5.811  -5.641  25.824  0.00  0.00    +0.023 A 
ATOM     13  C   UNL     1       6.821  -4.861  25.264  0.00  0.00    +0.033 A 
ATOM     14  C   UNL     1       6.866  -4.780  23.858  0.00  0.00    +0.035 A 
BRANCH   9  16
ATOM     15  F   UNL     1       7.563  -5.815  21.169  0.00  0.00    -0.166 F 
ATOM     16  C   UNL     1       6.284  -5.504  21.528  0.00  0.00    +0.417 C 
ATOM     17  F   UNL     1       5.494  -6.383  20.851  0.00  0.00    -0.166 F 
ATOM     18  F   UNL     1       6.037  -4.281  20.985  0.00  0.00    -0.166 F 
ENDBRANCH   9  16
ENDBRANCH   7  13
ENDBRANCH   1   7
BRANCH   6  19
ATOM     19  C   UNL     1       9.699  -2.532  24.194  0.00  0.00    +0.343 C 
ATOM     20  O   UNL     1      10.178  -3.652  24.191  0.00  0.00    -0.245 OA
BRANCH  19  21
ATOM     21  O   UNL     1       9.941  -1.545  23.290  0.00  0.00    -0.460 OA
BRANCH  21  22
ATOM     22  C   UNL     1       9.304  -1.533  21.996  0.00  0.00    +0.248 C 
BRANCH  22  23
ATOM     23  C   UNL     1       9.442  -0.129  21.348  0.00  0.00    +0.125 C 
BRANCH  23  24
ATOM     24  N   UNL     1       9.061   0.990  22.209  0.00  0.00    -0.295 NA
ATOM     25  C   UNL     1      10.165   1.869  22.636  0.00  0.00    +0.112 C 
ATOM     26  C   UNL     1       9.628   2.785  23.750  0.00  0.00    +0.175 C 
ATOM     27  O   UNL     1       8.548   3.604  23.272  0.00  0.00    -0.377 OA
ATOM     28  C   UNL     1       7.494   2.792  22.729  0.00  0.00    +0.175 C 
ATOM     29  C   UNL     1       8.017   1.858  21.623  0.00  0.00    +0.112 C 
ENDBRANCH  23  24
ENDBRANCH  22  23
ENDBRANCH  21  22
ENDBRANCH  19  21
ENDBRANCH   6  19
TORSDOF 8
ENDMDL
MODEL 2
REMARK VINA RESULT:      -7.0      3.207      7.029
REMARK  Name = 
REMARK  8 active torsions:
REMARK  status: ('A' for Active; 'I' for Inactive)
REMARK    1  A    between atoms: C_2  and  C_5
REMARK    2  A    between atoms: C_7  and  N_8
REMARK    3  A    between atoms: N_8  and  C_9
REMARK    4  A    between atoms: C_10  and  C_15
REMARK    5  A    between atoms: C_15  and  O_17
REMARK    6  A    between atoms: O_17  and  C_18
REMARK    7  A    between atoms: C_18  and  C_19
REMARK    8  A    between atoms: C_19  and  N_20
REMARK                            x       y       z     vdW  Elec       q    Type
REMARK                         _______ _______ _______ _____ _____    ______ ____
ROOT
ATOM      1  C   UNL     1       6.781  -3.178  24.195  0.00  0.00    +0.137 A 
ATOM      2  N   UNL     1       5.711  -3.130  23.345  0.00  0.00    -0.239 NA
ATOM      3  C   UNL     1       5.646  -3.963  22.298  0.00  0.00    +0.113 A 
ATOM      4  C   UNL     1       6.588  -4.928  22.056  0.00  0.00    +0.021 A 
ATOM      5  C   UNL     1       7.595  -5.090  22.997  0.00  0.00    +0.020 A 
ATOM      6  C   UNL     1       7.691  -4.238  24.132  0.00  0.00    +0.099 A 
ENDROOT
BRANCH   1   7
ATOM      7  N   UNL     1       6.967  -2.007  24.976  0.00  0.00    -0.299 N 
ATOM      8  H   UNL     1       6.085  -1.538  25.145  0.00  0.00    +0.154 HD
BRANCH   7  13
ATOM      9  C   UNL     1       9.196   0.304  23.028  0.00  0.00    +0.057 A 
ATOM     10  C   UNL     1      10.148   0.653  23.988  0.00  0.00    +0.012 A 
ATOM     11  C   UNL     1      10.071   0.105  25.275  0.00  0.00    +0.002 A 
ATOM     12  C   UNL     1       9.024  -0.769  25.630  0.00  0.00    +0.023 A 
ATOM     13  C   UNL     1       8.046  -1.112  24.698  0.00  0.00    +0.033 A 
ATOM     14  C   UNL     1       8.203  -0.612  23.389  0.00  0.00    +0.035 A 
BRANCH   9  16
ATOM     15  F   UNL     1      10.175   1.810  21.430  0.00  0.00    -0.166 F 
ATOM     16  C   UNL     1       9.180   0.901  21.645  0.00  0.00    +0.417 C 
ATOM     17  F   UNL     1       9.330  -0.037  20.668  0.00  0.00    -0.166 F 
ATOM     18  F   UNL     1       8.020   1.553  21.364  0.00  0.00    -0.166 F 
ENDBRANCH   9  16
ENDBRANCH   7  13
ENDBRANCH   1   7
BRANCH   6  19
ATOM     19  C   UNL     1       8.825  -4.493  25.075  0.00  0.00    +0.343 C 
ATOM     20  O   UNL     1       9.963  -4.823  24.792  0.00  0.00    -0.245 OA
BRANCH  19  21
ATOM     21  O   UNL     1       8.330  -4.285  26.325  0.00  0.00    -0.460 OA
BRANCH  21  22
ATOM     22  C   UNL     1       7.634  -5.323  27.044  0.00  0.00    +0.248 C 
BRANCH  22  23
ATOM     23  C   UNL     1       6.273  -4.788  27.567  0.00  0.00    +0.125 C 
BRANCH  23  24
ATOM     24  N   UNL     1       5.113  -5.144  26.751  0.00  0.00    -0.295 NA
ATOM     25  C   UNL     1       5.312  -6.268  25.819  0.00  0.00    +0.112 C 
ATOM     26  C   UNL     1       4.109  -6.297  24.860  0.00  0.00    +0.175 C 
ATOM     27  O   UNL     1       2.881  -6.507  25.575  0.00  0.00    -0.377 OA
ATOM     28  C   UNL     1       2.701  -5.501  26.586  0.00  0.00    +0.175 C 
ATOM     29  C   UNL     1       3.903  -5.447  27.545  0.00  0.00    +0.112 C 
ENDBRANCH  23  24
ENDBRANCH  22  23
ENDBRANCH  21  22
ENDBRANCH  19  21
ENDBRANCH   6  19
TORSDOF 8
ENDMDL
MODEL 3
REMARK VINA RESULT:      -7.0      3.856      7.370
REMARK  Name = 
REMARK  8 active torsions:
REMARK  status: ('A' for Active; 'I' for Inactive)
REMARK    1  A    between atoms: C_2  and  C_5
REMARK    2  A    between atoms: C_7  and  N_8
REMARK    3  A    between atoms: N_8  and  C_9
REMARK    4  A    between atoms: C_10  and  C_15
REMARK    5  A    between atoms: C_15  and  O_17
REMARK    6  A    between atoms: O_17  and  C_18
REMARK    7  A    between atoms: C_18  and  C_19
REMARK    8  A    between atoms: C_19  and  N_20
REMARK                            x       y       z     vdW  Elec       q    Type
REMARK                         _______ _______ _______ _____ _____    ______ ____
ROOT
ATOM      1  C   UNL     1       8.290  -3.301  23.355  0.00  0.00    +0.137 A 
ATOM      2  N   UNL     1       7.402  -2.872  22.406  0.00  0.00    -0.239 NA
ATOM      3  C   UNL     1       6.585  -3.747  21.805  0.00  0.00    +0.113 A 
ATOM      4  C   UNL     1       6.543  -5.075  22.138  0.00  0.00    +0.021 A 
ATOM      5  C   UNL     1       7.325  -5.493  23.205  0.00  0.00    +0.020 A 
ATOM      6  C   UNL     1       8.195  -4.594  23.882  0.00  0.00    +0.099 A 
ENDROOT
BRANCH   1   7
ATOM      7  N   UNL     1       9.371  -2.415  23.596  0.00  0.00    -0.299 N 
ATOM      8  H   UNL     1      10.140  -2.895  24.051  0.00  0.00    +0.154 HD
BRANCH   7  13
ATOM      9  C   UNL     1       9.562   1.324  23.892  0.00  0.00    +0.057 A 
ATOM     10  C   UNL     1       8.780   1.558  25.025  0.00  0.00    +0.012 A 
ATOM     11  C   UNL     1       8.208   0.476  25.710  0.00  0.00    +0.002 A 
ATOM     12  C   UNL     1       8.381  -0.845  25.252  0.00  0.00    +0.023 A 
ATOM     13  C   UNL     1       9.134  -1.102  24.108  0.00  0.00    +0.033 A 
ATOM     14  C   UNL     1       9.766  -0.001  23.496  0.00  0.00    +0.035 A 
BRANCH   9  16
ATOM     15  F   UNL     1      11.317   2.938  23.584  0.00  0.00    -0.166 F 
ATOM     16  C   UNL     1      10.155   2.439  23.071  0.00  0.00    +0.417 C 
ATOM     17  F   UNL     1      10.458   2.051  21.801  0.00  0.00    -0.166 F 
ATOM     18  F   UNL     1       9.320   3.506  22.948  0.00  0.00    -0.166 F 
ENDBRANCH   9  16
ENDBRANCH   7  13
ENDBRANCH   1   7
BRANCH   6  19
ATOM     19  C   UNL     1       9.004  -5.155  25.010  0.00  0.00    +0.343 C 
ATOM     20  O   UNL     1      10.210  -5.084  25.162  0.00  0.00    -0.245 OA
BRANCH  19  21
ATOM     21  O   UNL     1       8.118  -5.771  25.839  0.00  0.00    -0.460 OA
BRANCH  21  22
ATOM     22  C   UNL     1       7.660  -5.146  27.055  0.00  0.00    +0.248 C 
BRANCH  22  23
ATOM     23  C   UNL     1       6.163  -5.480  27.294  0.00  0.00    +0.125 C 
BRANCH  23  24
ATOM     24  N   UNL     1       5.351  -5.585  26.081  0.00  0.00    -0.295 NA
ATOM     25  C   UNL     1       4.657  -6.870  25.889  0.00  0.00    +0.112 C 
ATOM     26  C   UNL     1       4.113  -6.896  24.450  0.00  0.00    +0.175 C 
ATOM     27  O   UNL     1       3.173  -5.832  24.232  0.00  0.00    -0.377 OA
ATOM     28  C   UNL     1       3.769  -4.557  24.527  0.00  0.00    +0.175 C 
ATOM     29  C   UNL     1       4.333  -4.519  25.959  0.00  0.00    +0.112 C 
ENDBRANCH  23  24
ENDBRANCH  22  23
ENDBRANCH  21  22
ENDBRANCH  19  21
ENDBRANCH   6  19
TORSDOF 8
ENDMDL
MODEL 4
REMARK VINA RESULT:      -7.0      3.103      6.482
REMARK  Name = 
REMARK  8 active torsions:
REMARK  status: ('A' for Active; 'I' for Inactive)
REMARK    1  A    between atoms: C_2  and  C_5
REMARK    2  A    between atoms: C_7  and  N_8
REMARK    3  A    between atoms: N_8  and  C_9
REMARK    4  A    between atoms: C_10  and  C_15
REMARK    5  A    between atoms: C_15  and  O_17
REMARK    6  A    between atoms: O_17  and  C_18
REMARK    7  A    between atoms: C_18  and  C_19
REMARK    8  A    between atoms: C_19  and  N_20
REMARK                            x       y       z     vdW  Elec       q    Type
REMARK                         _______ _______ _______ _____ _____    ______ ____
ROOT
ATOM      1  C   UNL     1       7.178  -3.206  25.795  0.00  0.00    +0.137 A 
ATOM      2  N   UNL     1       6.357  -3.050  26.878  0.00  0.00    -0.239 NA
ATOM      3  C   UNL     1       6.088  -4.093  27.674  0.00  0.00    +0.113 A 
ATOM      4  C   UNL     1       6.651  -5.329  27.496  0.00  0.00    +0.021 A 
ATOM      5  C   UNL     1       7.605  -5.461  26.496  0.00  0.00    +0.020 A 
ATOM      6  C   UNL     1       7.933  -4.374  25.639  0.00  0.00    +0.099 A 
ENDROOT
BRANCH   1   7
ATOM      7  N   UNL     1       7.048  -2.198  24.805  0.00  0.00    -0.299 N 
ATOM      8  H   UNL     1       6.700  -2.586  23.934  0.00  0.00    +0.154 HD
BRANCH   7  13
ATOM      9  C   UNL     1       9.225   0.327  23.075  0.00  0.00    +0.057 A 
ATOM     10  C   UNL     1      10.081   0.715  24.108  0.00  0.00    +0.012 A 
ATOM     11  C   UNL     1       9.958   0.123  25.372  0.00  0.00    +0.002 A 
ATOM     12  C   UNL     1       8.957  -0.835  25.631  0.00  0.00    +0.023 A 
ATOM     13  C   UNL     1       8.073  -1.219  24.624  0.00  0.00    +0.033 A 
ATOM     14  C   UNL     1       8.281  -0.670  23.343  0.00  0.00    +0.035 A 
BRANCH   9  16
ATOM     15  F   UNL     1       8.152   1.708  21.427  0.00  0.00    -0.166 F 
ATOM     16  C   UNL     1       9.258   0.963  21.710  0.00  0.00    +0.417 C 
ATOM     17  F   UNL     1      10.315   1.809  21.553  0.00  0.00    -0.166 F 
ATOM     18  F   UNL     1       9.354   0.051  20.705  0.00  0.00    -0.166 F 
ENDBRANCH   9  16
ENDBRANCH   7  13
ENDBRANCH   1   7
BRANCH   6  19
ATOM     19  C   UNL     1       8.965  -4.630  24.586  0.00  0.00    +0.343 C 
ATOM     20  O   UNL     1      10.083  -4.154  24.513  0.00  0.00    -0.245 OA
BRANCH  19  21
ATOM     21  O   UNL     1       8.401  -5.508  23.712  0.00  0.00    -0.460 OA
BRANCH  21  22
ATOM     22  C   UNL     1       7.561  -5.061  22.628  0.00  0.00    +0.248 C 
BRANCH  22  23
ATOM     23  C   UNL     1       6.233  -5.866  22.617  0.00  0.00    +0.125 C 
BRANCH  23  24
ATOM     24  N   UNL     1       5.292  -5.523  23.683  0.00  0.00    -0.295 NA
ATOM     25  C   UNL     1       4.326  -4.458  23.360  0.00  0.00    +0.112 C 
ATOM     26  C   UNL     1       3.637  -4.040  24.671  0.00  0.00    +0.175 C 
ATOM     27  O   UNL     1       2.926  -5.142  25.257  0.00  0.00    -0.377 OA
ATOM     28  C   UNL     1       3.806  -6.257  25.478  0.00  0.00    +0.175 C 
ATOM     29  C   UNL     1       4.515  -6.679  24.179  0.00  0.00    +0.112 C 
ENDBRANCH  23  24
ENDBRANCH  22  23
ENDBRANCH  21  22
ENDBRANCH  19  21
ENDBRANCH   6  19
TORSDOF 8
ENDMDL
MODEL 5
REMARK VINA RESULT:      -6.8      3.871      7.363
REMARK  Name = 
REMARK  8 active torsions:
REMARK  status: ('A' for Active; 'I' for Inactive)
REMARK    1  A    between atoms: C_2  and  C_5
REMARK    2  A    between atoms: C_7  and  N_8
REMARK    3  A    between atoms: N_8  and  C_9
REMARK    4  A    between atoms: C_10  and  C_15
REMARK    5  A    between atoms: C_15  and  O_17
REMARK    6  A    between atoms: O_17  and  C_18
REMARK    7  A    between atoms: C_18  and  C_19
REMARK    8  A    between atoms: C_19  and  N_20
REMARK                            x       y       z     vdW  Elec       q    Type
REMARK                         _______ _______ _______ _____ _____    ______ ____
ROOT
ATOM      1  C   UNL     1       6.686  -3.601  22.936  0.00  0.00    +0.137 A 
ATOM      2  N   UNL     1       5.883  -3.779  21.842  0.00  0.00    -0.239 NA
ATOM      3  C   UNL     1       5.983  -4.895  21.109  0.00  0.00    +0.113 A 
ATOM      4  C   UNL     1       6.826  -5.925  21.433  0.00  0.00    +0.021 A 
ATOM      5  C   UNL     1       7.531  -5.825  22.624  0.00  0.00    +0.020 A 
ATOM      6  C   UNL     1       7.441  -4.665  23.442  0.00  0.00    +0.099 A 
ENDROOT
BRANCH   1   7
ATOM      7  N   UNL     1       6.813  -2.254  23.363  0.00  0.00    -0.299 N 
ATOM      8  H   UNL     1       5.924  -1.770  23.311  0.00  0.00    +0.154 HD
BRANCH   7  13
ATOM      9  C   UNL     1       9.512   0.356  23.482  0.00  0.00    +0.057 A 
ATOM     10  C   UNL     1      10.096   0.215  22.222  0.00  0.00    +0.012 A 
ATOM     11  C   UNL     1       9.583  -0.726  21.319  0.00  0.00    +0.002 A 
ATOM     12  C   UNL     1       8.505  -1.561  21.676  0.00  0.00    +0.023 A 
ATOM     13  C   UNL     1       7.922  -1.458  22.937  0.00  0.00    +0.033 A 
ATOM     14  C   UNL     1       8.405  -0.443  23.787  0.00  0.00    +0.035 A 
BRANCH   9  16
ATOM     15  F   UNL     1      10.897   0.711  25.414  0.00  0.00    -0.166 F 
ATOM     16  C   UNL     1      10.048   1.301  24.525  0.00  0.00    +0.417 C 
ATOM     17  F   UNL     1      10.753   2.334  23.983  0.00  0.00    -0.166 F 
ATOM     18  F   UNL     1       9.067   1.871  25.276  0.00  0.00    -0.166 F 
ENDBRANCH   9  16
ENDBRANCH   7  13
ENDBRANCH   1   7
BRANCH   6  19
ATOM     19  C   UNL     1       8.256  -4.657  24.697  0.00  0.00    +0.343 C 
ATOM     20  O   UNL     1       9.259  -4.004  24.925  0.00  0.00    -0.245 OA
BRANCH  19  21
ATOM     21  O   UNL     1       7.654  -5.536  25.543  0.00  0.00    -0.460 OA
BRANCH  21  22
ATOM     22  C   UNL     1       6.546  -5.142  26.379  0.00  0.00    +0.248 C 
BRANCH  22  23
ATOM     23  C   UNL     1       5.425  -6.214  26.317  0.00  0.00    +0.125 C 
BRANCH  23  24
ATOM     24  N   UNL     1       4.327  -5.909  25.399  0.00  0.00    -0.295 NA
ATOM     25  C   UNL     1       4.139  -4.482  25.084  0.00  0.00    +0.112 C 
ATOM     26  C   UNL     1       2.788  -4.338  24.363  0.00  0.00    +0.175 C 
ATOM     27  O   UNL     1       2.772  -5.084  23.135  0.00  0.00    -0.377 OA
ATOM     28  C   UNL     1       3.075  -6.469  23.376  0.00  0.00    +0.175 C 
ATOM     29  C   UNL     1       4.417  -6.630  24.111  0.00  0.00    +0.112 C 
ENDBRANCH  23  24
ENDBRANCH  22  23
ENDBRANCH  21  22
ENDBRANCH  19  21
ENDBRANCH   6  19
TORSDOF 8
ENDMDL
MODEL 6
REMARK VINA RESULT:      -6.8      3.823      7.373
REMARK  Name = 
REMARK  8 active torsions:
REMARK  status: ('A' for Active; 'I' for Inactive)
REMARK    1  A    between atoms: C_2  and  C_5
REMARK    2  A    between atoms: C_7  and  N_8
REMARK    3  A    between atoms: N_8  and  C_9
REMARK    4  A    between atoms: C_10  and  C_15
REMARK    5  A    between atoms: C_15  and  O_17
REMARK    6  A    between atoms: O_17  and  C_18
REMARK    7  A    between atoms: C_18  and  C_19
REMARK    8  A    between atoms: C_19  and  N_20
REMARK                            x       y       z     vdW  Elec       q    Type
REMARK                         _______ _______ _______ _____ _____    ______ ____
ROOT
ATOM      1  C   UNL     1       7.114  -3.329  23.307  0.00  0.00    +0.137 A 
ATOM      2  N   UNL     1       6.185  -3.187  22.313  0.00  0.00    -0.239 NA
ATOM      3  C   UNL     1       5.995  -4.172  21.425  0.00  0.00    +0.113 A 
ATOM      4  C   UNL     1       6.654  -5.371  21.492  0.00  0.00    +0.021 A 
ATOM      5  C   UNL     1       7.482  -5.587  22.585  0.00  0.00    +0.020 A 
ATOM      6  C   UNL     1       7.699  -4.574  23.560  0.00  0.00    +0.099 A 
ENDROOT
BRANCH   1   7
ATOM      7  N   UNL     1       7.539  -2.110  23.897  0.00  0.00    -0.299 N 
ATOM      8  H   UNL     1       6.912  -1.827  24.642  0.00  0.00    +0.154 HD
BRANCH   7  13
ATOM      9  C   UNL     1       7.627   1.315  22.357  0.00  0.00    +0.057 A 
ATOM     10  C   UNL     1       8.723   1.209  21.497  0.00  0.00    +0.012 A 
ATOM     11  C   UNL     1       9.419  -0.003  21.405  0.00  0.00    +0.002 A 
ATOM     12  C   UNL     1       9.054  -1.112  22.195  0.00  0.00    +0.023 A 
ATOM     13  C   UNL     1       7.982  -1.023  23.080  0.00  0.00    +0.033 A 
ATOM     14  C   UNL     1       7.250   0.181  23.084  0.00  0.00    +0.035 A 
BRANCH   9  16
ATOM     15  F   UNL     1       6.962   3.457  21.495  0.00  0.00    -0.166 F 
ATOM     16  C   UNL     1       6.871   2.602  22.554  0.00  0.00    +0.417 C 
ATOM     17  F   UNL     1       5.537   2.402  22.744  0.00  0.00    -0.166 F 
ATOM     18  F   UNL     1       7.302   3.308  23.635  0.00  0.00    -0.166 F 
ENDBRANCH   9  16
ENDBRANCH   7  13
ENDBRANCH   1   7
BRANCH   6  19
ATOM     19  C   UNL     1       8.624  -4.909  24.688  0.00  0.00    +0.343 C 
ATOM     20  O   UNL     1       9.683  -5.507  24.625  0.00  0.00    -0.245 OA
BRANCH  19  21
ATOM     21  O   UNL     1       8.041  -4.413  25.813  0.00  0.00    -0.460 OA
BRANCH  21  22
ATOM     22  C   UNL     1       7.722  -5.260  26.936  0.00  0.00    +0.248 C 
BRANCH  22  23
ATOM     23  C   UNL     1       6.201  -5.191  27.240  0.00  0.00    +0.125 C 
BRANCH  23  24
ATOM     24  N   UNL     1       5.332  -5.638  26.151  0.00  0.00    -0.295 NA
ATOM     25  C   UNL     1       4.481  -6.803  26.453  0.00  0.00    +0.112 C 
ATOM     26  C   UNL     1       3.878  -7.296  25.127  0.00  0.00    +0.175 C 
ATOM     27  O   UNL     1       3.064  -6.280  24.518  0.00  0.00    -0.377 OA
ATOM     28  C   UNL     1       3.820  -5.074  24.315  0.00  0.00    +0.175 C 
ATOM     29  C   UNL     1       4.445  -4.575  25.631  0.00  0.00    +0.112 C 
ENDBRANCH  23  24
ENDBRANCH  22  23
ENDBRANCH  21  22
ENDBRANCH  19  21
ENDBRANCH   6  19
TORSDOF 8
ENDMDL
MODEL 7
REMARK VINA RESULT:      -6.7      4.586      8.026
REMARK  Name = 
REMARK  8 active torsions:
REMARK  status: ('A' for Active; 'I' for Inactive)
REMARK    1  A    between atoms: C_2  and  C_5
REMARK    2  A    between atoms: C_7  and  N_8
REMARK    3  A    between atoms: N_8  and  C_9
REMARK    4  A    between atoms: C_10  and  C_15
REMARK    5  A    between atoms: C_15  and  O_17
REMARK    6  A    between atoms: O_17  and  C_18
REMARK    7  A    between atoms: C_18  and  C_19
REMARK    8  A    between atoms: C_19  and  N_20
REMARK                            x       y       z     vdW  Elec       q    Type
REMARK                         _______ _______ _______ _____ _____    ______ ____
ROOT
ATOM      1  C   UNL     1       9.223   0.063  24.525  0.00  0.00    +0.137 A 
ATOM      2  N   UNL     1       9.804  -0.141  25.747  0.00  0.00    -0.239 NA
ATOM      3  C   UNL     1       9.069  -0.582  26.776  0.00  0.00    +0.113 A 
ATOM      4  C   UNL     1       7.743  -0.906  26.658  0.00  0.00    +0.021 A 
ATOM      5  C   UNL     1       7.181  -0.852  25.390  0.00  0.00    +0.020 A 
ATOM      6  C   UNL     1       7.931  -0.406  24.267  0.00  0.00    +0.099 A 
ENDROOT
BRANCH   1   7
ATOM      7  N   UNL     1       9.953   0.919  23.660  0.00  0.00    -0.299 N 
ATOM      8  H   UNL     1      10.894   0.571  23.512  0.00  0.00    +0.154 HD
BRANCH   7  13
ATOM      9  C   UNL     1      11.071   4.504  23.672  0.00  0.00    +0.057 A 
ATOM     10  C   UNL     1       9.917   5.158  24.109  0.00  0.00    +0.012 A 
ATOM     11  C   UNL     1       8.774   4.412  24.425  0.00  0.00    +0.002 A 
ATOM     12  C   UNL     1       8.757   3.011  24.276  0.00  0.00    +0.023 A 
ATOM     13  C   UNL     1       9.887   2.338  23.816  0.00  0.00    +0.033 A 
ATOM     14  C   UNL     1      11.046   3.108  23.592  0.00  0.00    +0.035 A 
BRANCH   9  16
ATOM     15  F   UNL     1      12.565   6.358  24.003  0.00  0.00    -0.166 F 
ATOM     16  C   UNL     1      12.316   5.244  23.256  0.00  0.00    +0.417 C 
ATOM     17  F   UNL     1      13.439   4.480  23.360  0.00  0.00    -0.166 F 
ATOM     18  F   UNL     1      12.270   5.671  21.965  0.00  0.00    -0.166 F 
ENDBRANCH   9  16
ENDBRANCH   7  13
ENDBRANCH   1   7
BRANCH   6  19
ATOM     19  C   UNL     1       7.221  -0.374  22.949  0.00  0.00    +0.343 C 
ATOM     20  O   UNL     1       7.029   0.594  22.236  0.00  0.00    -0.245 OA
BRANCH  19  21
ATOM     21  O   UNL     1       6.824  -1.652  22.703  0.00  0.00    -0.460 OA
BRANCH  21  22
ATOM     22  C   UNL     1       7.758  -2.663  22.272  0.00  0.00    +0.248 C 
BRANCH  22  23
ATOM     23  C   UNL     1       7.255  -4.069  22.699  0.00  0.00    +0.125 C 
BRANCH  23  24
ATOM     24  N   UNL     1       7.781  -4.552  23.976  0.00  0.00    -0.295 NA
ATOM     25  C   UNL     1       9.025  -3.910  24.436  0.00  0.00    +0.112 C 
ATOM     26  C   UNL     1       9.569  -4.738  25.613  0.00  0.00    +0.175 C 
ATOM     27  O   UNL     1       8.636  -4.762  26.705  0.00  0.00    -0.377 OA
ATOM     28  C   UNL     1       7.360  -5.267  26.275  0.00  0.00    +0.175 C 
ATOM     29  C   UNL     1       6.809  -4.460  25.087  0.00  0.00    +0.112 C 
ENDBRANCH  23  24
ENDBRANCH  22  23
ENDBRANCH  21  22
ENDBRANCH  19  21
ENDBRANCH   6  19
TORSDOF 8
ENDMDL
MODEL 8
REMARK VINA RESULT:      -6.6      4.275      7.773
REMARK  Name = 
REMARK  8 active torsions:
REMARK  status: ('A' for Active; 'I' for Inactive)
REMARK    1  A    between atoms: C_2  and  C_5
REMARK    2  A    between atoms: C_7  and  N_8
REMARK    3  A    between atoms: N_8  and  C_9
REMARK    4  A    between atoms: C_10  and  C_15
REMARK    5  A    between atoms: C_15  and  O_17
REMARK    6  A    between atoms: O_17  and  C_18
REMARK    7  A    between atoms: C_18  and  C_19
REMARK    8  A    between atoms: C_19  and  N_20
REMARK                            x       y       z     vdW  Elec       q    Type
REMARK                         _______ _______ _______ _____ _____    ______ ____
ROOT
ATOM      1  C   UNL     1       8.231  -0.160  23.591  0.00  0.00    +0.137 A 
ATOM      2  N   UNL     1       8.455   0.027  22.254  0.00  0.00    -0.239 NA
ATOM      3  C   UNL     1       9.464  -0.610  21.646  0.00  0.00    +0.113 A 
ATOM      4  C   UNL     1      10.271  -1.510  22.289  0.00  0.00    +0.021 A 
ATOM      5  C   UNL     1       9.957  -1.826  23.604  0.00  0.00    +0.020 A 
ATOM      6  C   UNL     1       8.884  -1.186  24.283  0.00  0.00    +0.099 A 
ENDROOT
BRANCH   1   7
ATOM      7  N   UNL     1       7.457   0.856  24.209  0.00  0.00    -0.299 N 
ATOM      8  H   UNL     1       6.535   0.513  24.455  0.00  0.00    +0.154 HD
BRANCH   7  13
ATOM      9  C   UNL     1       8.584   4.379  23.554  0.00  0.00    +0.057 A 
ATOM     10  C   UNL     1       7.557   4.856  22.737  0.00  0.00    +0.012 A 
ATOM     11  C   UNL     1       6.476   4.023  22.422  0.00  0.00    +0.002 A 
ATOM     12  C   UNL     1       6.424   2.694  22.888  0.00  0.00    +0.023 A 
ATOM     13  C   UNL     1       7.450   2.185  23.682  0.00  0.00    +0.033 A 
ATOM     14  C   UNL     1       8.477   3.076  24.052  0.00  0.00    +0.035 A 
BRANCH   9  16
ATOM     15  F   UNL     1       9.967   6.286  23.080  0.00  0.00    -0.166 F 
ATOM     16  C   UNL     1       9.806   5.196  23.884  0.00  0.00    +0.417 C 
ATOM     17  F   UNL     1       9.782   5.684  25.155  0.00  0.00    -0.166 F 
ATOM     18  F   UNL     1      10.961   4.485  23.775  0.00  0.00    -0.166 F 
ENDBRANCH   9  16
ENDBRANCH   7  13
ENDBRANCH   1   7
BRANCH   6  19
ATOM     19  C   UNL     1       8.643  -1.593  25.703  0.00  0.00    +0.343 C 
ATOM     20  O   UNL     1       8.328  -0.875  26.636  0.00  0.00    -0.245 OA
BRANCH  19  21
ATOM     21  O   UNL     1       8.852  -2.936  25.751  0.00  0.00    -0.460 OA
BRANCH  21  22
ATOM     22  C   UNL     1       7.757  -3.873  25.685  0.00  0.00    +0.248 C 
BRANCH  22  23
ATOM     23  C   UNL     1       8.034  -4.938  24.589  0.00  0.00    +0.125 C 
BRANCH  23  24
ATOM     24  N   UNL     1       7.404  -4.673  23.295  0.00  0.00    -0.295 NA
ATOM     25  C   UNL     1       6.798  -5.840  22.631  0.00  0.00    +0.112 C 
ATOM     26  C   UNL     1       6.462  -5.432  21.187  0.00  0.00    +0.175 C 
ATOM     27  O   UNL     1       5.518  -4.349  21.159  0.00  0.00    -0.377 OA
ATOM     28  C   UNL     1       6.014  -3.223  21.903  0.00  0.00    +0.175 C 
ATOM     29  C   UNL     1       6.370  -3.617  23.348  0.00  0.00    +0.112 C 
ENDBRANCH  23  24
ENDBRANCH  22  23
ENDBRANCH  21  22
ENDBRANCH  19  21
ENDBRANCH   6  19
TORSDOF 8
ENDMDL
MODEL 9
REMARK VINA RESULT:      -6.5      4.508      8.433
REMARK  Name = 
REMARK  8 active torsions:
REMARK  status: ('A' for Active; 'I' for Inactive)
REMARK    1  A    between atoms: C_2  and  C_5
REMARK    2  A    between atoms: C_7  and  N_8
REMARK    3  A    between atoms: N_8  and  C_9
REMARK    4  A    between atoms: C_10  and  C_15
REMARK    5  A    between atoms: C_15  and  O_17
REMARK    6  A    between atoms: O_17  and  C_18
REMARK    7  A    between atoms: C_18  and  C_19
REMARK    8  A    between atoms: C_19  and  N_20
REMARK                            x       y       z     vdW  Elec       q    Type
REMARK                         _______ _______ _______ _____ _____    ______ ____
ROOT
ATOM      1  C   UNL     1       8.536   1.202  23.534  0.00  0.00    +0.137 A 
ATOM      2  N   UNL     1       8.484   1.625  22.234  0.00  0.00    -0.239 NA
ATOM      3  C   UNL     1       8.982   0.857  21.257  0.00  0.00    +0.113 A 
ATOM      4  C   UNL     1       9.501  -0.391  21.482  0.00  0.00    +0.021 A 
ATOM      5  C   UNL     1       9.417  -0.896  22.773  0.00  0.00    +0.020 A 
ATOM      6  C   UNL     1       8.880  -0.120  23.837  0.00  0.00    +0.099 A 
ENDROOT
BRANCH   1   7
ATOM      7  N   UNL     1       8.398   2.235  24.498  0.00  0.00    -0.299 N 
ATOM      8  H   UNL     1       7.504   2.172  24.972  0.00  0.00    +0.154 HD
BRANCH   7  13
ATOM      9  C   UNL     1      10.637   5.149  23.725  0.00  0.00    +0.057 A 
ATOM     10  C   UNL     1       9.713   6.189  23.600  0.00  0.00    +0.012 A 
ATOM     11  C   UNL     1       8.349   5.934  23.797  0.00  0.00    +0.002 A 
ATOM     12  C   UNL     1       7.888   4.634  24.085  0.00  0.00    +0.023 A 
ATOM     13  C   UNL     1       8.787   3.574  24.188  0.00  0.00    +0.033 A 
ATOM     14  C   UNL     1      10.157   3.882  24.071  0.00  0.00    +0.035 A 
BRANCH   9  16
ATOM     15  F   UNL     1      12.732   6.119  24.394  0.00  0.00    -0.166 F 
ATOM     16  C   UNL     1      12.109   5.336  23.467  0.00  0.00    +0.417 C 
ATOM     17  F   UNL     1      12.794   4.158  23.469  0.00  0.00    -0.166 F 
ATOM     18  F   UNL     1      12.365   5.917  22.263  0.00  0.00    -0.166 F 
ENDBRANCH   9  16
ENDBRANCH   7  13
ENDBRANCH   1   7
BRANCH   6  19
ATOM     19  C   UNL     1       8.851  -0.757  25.191  0.00  0.00    +0.343 C 
ATOM     20  O   UNL     1       9.335  -0.327  26.223  0.00  0.00    -0.245 OA
BRANCH  19  21
ATOM     21  O   UNL     1       8.174  -1.928  25.042  0.00  0.00    -0.460 OA
BRANCH  21  22
ATOM     22  C   UNL     1       8.553  -3.118  25.762  0.00  0.00    +0.248 C 
BRANCH  22  23
ATOM     23  C   UNL     1       7.859  -4.360  25.142  0.00  0.00    +0.125 C 
BRANCH  23  24
ATOM     24  N   UNL     1       6.849  -4.062  24.127  0.00  0.00    -0.295 NA
ATOM     25  C   UNL     1       7.281  -4.236  22.729  0.00  0.00    +0.112 C 
ATOM     26  C   UNL     1       6.208  -3.602  21.827  0.00  0.00    +0.175 C 
ATOM     27  O   UNL     1       4.938  -4.251  21.997  0.00  0.00    -0.377 OA
ATOM     28  C   UNL     1       4.528  -4.217  23.375  0.00  0.00    +0.175 C 
ATOM     29  C   UNL     1       5.598  -4.833  24.294  0.00  0.00    +0.112 C 
ENDBRANCH  23  24
ENDBRANCH  22  23
ENDBRANCH  21  22
ENDBRANCH  19  21
ENDBRANCH   6  19
TORSDOF 8
ENDMDL
