MODEL 1
REMARK VINA RESULT:      -7.8      0.000      0.000
REMARK  Name = 
REMARK  8 active torsions:
REMARK  status: ('A' for Active; 'I' for Inactive)
REMARK    1  A    between atoms: C_1  and  C_2
REMARK    2  A    between atoms: C_5  and  N_6
REMARK    3  A    between atoms: N_6  and  S_7
REMARK    4  A    between atoms: S_7  and  C_10
REMARK    5  A    between atoms: C_11  and  C_15
REMARK    6  A    between atoms: C_15  and  C_17
REMARK    7  A    between atoms: C_17  and  C_18
REMARK    8  A    between atoms: C_26  and  C_27
REMARK                            x       y       z     vdW  Elec       q    Type
REMARK                         _______ _______ _______ _____ _____    ______ ____
ROOT
ATOM      1  C   UNL     1       7.836  -4.117  23.332  0.00  0.00    +0.126 A 
ATOM      2  C   UNL     1       7.306  -5.346  22.800  0.00  0.00    +0.037 A 
ATOM      3  C   UNL     1       6.335  -5.150  21.851  0.00  0.00    +0.048 A 
ATOM      4  S   UNL     1       6.046  -3.499  21.589  0.00  0.00    -0.092 S 
ATOM      5  C   UNL     1       7.220  -3.001  22.772  0.00  0.00    +0.081 A 
ENDROOT
BRANCH   1   6
ATOM      6  S   UNL     1       9.042  -4.206  24.592  0.00  0.00    +0.076 S 
ATOM      7  O   UNL     1       9.247  -5.628  24.775  0.00  0.00    -0.150 OA
ATOM      8  O   UNL     1      10.144  -3.360  24.193  0.00  0.00    -0.150 OA
BRANCH   6   9
ATOM      9  N   UNL     1       8.457  -3.622  26.063  0.00  0.00    -0.182 N 
ATOM     10  H   UNL     1       7.959  -2.769  25.794  0.00  0.00    +0.177 HD
BRANCH   9  15
ATOM     11  C   UNL     1       4.410  -6.308  27.266  0.00  0.00    +0.071 C 
ATOM     12  C   UNL     1       5.761  -5.706  27.212  0.00  0.00    +0.101 A 
ATOM     13  C   UNL     1       6.174  -4.538  26.530  0.00  0.00    +0.126 A 
ATOM     14 CL   UNL     1       5.195  -3.500  25.615  0.00  0.00    -0.076 Cl
ATOM     15  C   UNL     1       7.536  -4.504  26.700  0.00  0.00    +0.255 A 
ATOM     16  O   UNL     1       7.914  -5.566  27.463  0.00  0.00    -0.336 OA
ATOM     17  N   UNL     1       6.797  -6.306  27.811  0.00  0.00    -0.080 NA
ENDBRANCH   9  15
ENDBRANCH   6   9
ENDBRANCH   1   6
BRANCH   5  18
ATOM     18  C   UNL     1       7.301  -1.549  22.969  0.00  0.00    +0.176 C 
ATOM     19  O   UNL     1       6.417  -0.945  23.583  0.00  0.00    -0.291 OA
BRANCH  18  20
ATOM     20  C   UNL     1       8.491  -0.784  22.421  0.00  0.00    +0.115 C 
BRANCH  20  21
ATOM     21  C   UNL     1       8.540   0.669  22.840  0.00  0.00    -0.033 A 
ATOM     22  C   UNL     1       9.320   1.098  23.952  0.00  0.00    -0.043 A 
ATOM     23  C   UNL     1       9.969   0.122  24.898  0.00  0.00    +0.044 C 
ATOM     24  C   UNL     1       9.468   2.470  24.208  0.00  0.00    +0.053 A 
ATOM     25  C   UNL     1       8.745   3.356  23.443  0.00  0.00    +0.166 A 
ATOM     26  O   UNL     1       8.717   4.706  23.610  0.00  0.00    -0.453 OA
ATOM     27  C   UNL     1       7.596   5.035  22.770  0.00  0.00    +0.466 C 
ATOM     28  O   UNL     1       7.232   3.970  21.867  0.00  0.00    -0.453 OA
ATOM     29  C   UNL     1       7.914   2.937  22.434  0.00  0.00    +0.167 A 
ATOM     30  C   UNL     1       7.811   1.611  22.087  0.00  0.00    +0.054 A 
ENDBRANCH  20  21
ENDBRANCH  18  20
ENDBRANCH   5  18
TORSDOF 6
ENDMDL
MODEL 2
REMARK VINA RESULT:      -7.5      3.197      7.359
REMARK  Name = 
REMARK  8 active torsions:
REMARK  status: ('A' for Active; 'I' for Inactive)
REMARK    1  A    between atoms: C_1  and  C_2
REMARK    2  A    between atoms: C_5  and  N_6
REMARK    3  A    between atoms: N_6  and  S_7
REMARK    4  A    between atoms: S_7  and  C_10
REMARK    5  A    between atoms: C_11  and  C_15
REMARK    6  A    between atoms: C_15  and  C_17
REMARK    7  A    between atoms: C_17  and  C_18
REMARK    8  A    between atoms: C_26  and  C_27
REMARK                            x       y       z     vdW  Elec       q    Type
REMARK                         _______ _______ _______ _____ _____    ______ ____
ROOT
ATOM      1  C   UNL     1       9.363  -1.321  24.444  0.00  0.00    +0.126 A 
ATOM      2  C   UNL     1       9.403  -0.485  25.616  0.00  0.00    +0.037 A 
ATOM      3  C   UNL     1       8.822  -1.065  26.715  0.00  0.00    +0.048 A 
ATOM      4  S   UNL     1       8.222  -2.611  26.357  0.00  0.00    -0.092 S 
ATOM      5  C   UNL     1       8.718  -2.530  24.692  0.00  0.00    +0.081 A 
ENDROOT
BRANCH   1   6
ATOM      6  S   UNL     1      10.014  -0.694  22.950  0.00  0.00    +0.076 S 
ATOM      7  O   UNL     1      10.687   0.525  23.350  0.00  0.00    -0.150 OA
ATOM      8  O   UNL     1      10.760  -1.762  22.324  0.00  0.00    -0.150 OA
BRANCH   6   9
ATOM      9  N   UNL     1       8.795  -0.229  21.881  0.00  0.00    -0.182 N 
ATOM     10  H   UNL     1       8.090  -0.962  21.996  0.00  0.00    +0.177 HD
BRANCH   9  15
ATOM     11  C   UNL     1       6.259   3.468  24.105  0.00  0.00    +0.071 C 
ATOM     12  C   UNL     1       7.106   2.659  23.200  0.00  0.00    +0.101 A 
ATOM     13  C   UNL     1       7.176   1.251  23.088  0.00  0.00    +0.126 A 
ATOM     14 CL   UNL     1       6.262   0.120  23.959  0.00  0.00    -0.076 Cl
ATOM     15  C   UNL     1       8.202   1.027  22.203  0.00  0.00    +0.255 A 
ATOM     16  O   UNL     1       8.696   2.224  21.785  0.00  0.00    -0.336 OA
ATOM     17  N   UNL     1       7.990   3.251  22.386  0.00  0.00    -0.080 NA
ENDBRANCH   9  15
ENDBRANCH   6   9
ENDBRANCH   1   6
BRANCH   5  18
ATOM     18  C   UNL     1       8.336  -3.698  23.890  0.00  0.00    +0.176 C 
ATOM     19  O   UNL     1       8.813  -4.812  24.129  0.00  0.00    -0.291 OA
BRANCH  18  20
ATOM     20  C   UNL     1       7.338  -3.537  22.759  0.00  0.00    +0.115 C 
BRANCH  20  21
ATOM     21  C   UNL     1       5.947  -4.035  23.086  0.00  0.00    -0.033 A 
ATOM     22  C   UNL     1       5.445  -5.254  22.543  0.00  0.00    -0.043 A 
ATOM     23  C   UNL     1       6.173  -6.007  21.461  0.00  0.00    +0.044 C 
ATOM     24  C   UNL     1       4.218  -5.762  22.997  0.00  0.00    +0.053 A 
ATOM     25  C   UNL     1       3.477  -4.994  23.865  0.00  0.00    +0.166 A 
ATOM     26  O   UNL     1       2.239  -5.304  24.338  0.00  0.00    -0.453 OA
ATOM     27  C   UNL     1       1.868  -4.036  24.909  0.00  0.00    +0.466 C 
ATOM     28  O   UNL     1       2.989  -3.147  25.090  0.00  0.00    -0.453 OA
ATOM     29  C   UNL     1       3.915  -3.771  24.312  0.00  0.00    +0.167 A 
ATOM     30  C   UNL     1       5.151  -3.278  23.968  0.00  0.00    +0.054 A 
ENDBRANCH  20  21
ENDBRANCH  18  20
ENDBRANCH   5  18
TORSDOF 6
ENDMDL
MODEL 3
REMARK VINA RESULT:      -7.5      1.942      2.311
REMARK  Name = 
REMARK  8 active torsions:
REMARK  status: ('A' for Active; 'I' for Inactive)
REMARK    1  A    between atoms: C_1  and  C_2
REMARK    2  A    between atoms: C_5  and  N_6
REMARK    3  A    between atoms: N_6  and  S_7
REMARK    4  A    between atoms: S_7  and  C_10
REMARK    5  A    between atoms: C_11  and  C_15
REMARK    6  A    between atoms: C_15  and  C_17
REMARK    7  A    between atoms: C_17  and  C_18
REMARK    8  A    between atoms: C_26  and  C_27
REMARK                            x       y       z     vdW  Elec       q    Type
REMARK                         _______ _______ _______ _____ _____    ______ ____
ROOT
ATOM      1  C   UNL     1       7.761  -3.825  24.131  0.00  0.00    +0.126 A 
ATOM      2  C   UNL     1       6.448  -4.089  23.600  0.00  0.00    +0.037 A 
ATOM      3  C   UNL     1       6.100  -3.248  22.574  0.00  0.00    +0.048 A 
ATOM      4  S   UNL     1       7.336  -2.136  22.236  0.00  0.00    -0.092 S 
ATOM      5  C   UNL     1       8.374  -2.753  23.488  0.00  0.00    +0.081 A 
ENDROOT
BRANCH   1   6
ATOM      6  S   UNL     1       8.321  -4.780  25.482  0.00  0.00    +0.076 S 
ATOM      7  O   UNL     1       9.379  -5.593  24.917  0.00  0.00    -0.150 OA
ATOM      8  O   UNL     1       8.609  -3.866  26.564  0.00  0.00    -0.150 OA
BRANCH   6   9
ATOM      9  N   UNL     1       7.139  -5.855  26.022  0.00  0.00    -0.182 N 
ATOM     10  H   UNL     1       7.630  -6.753  26.038  0.00  0.00    +0.177 HD
BRANCH   9  15
ATOM     11  C   UNL     1       4.362  -4.446  29.939  0.00  0.00    +0.071 C 
ATOM     12  C   UNL     1       5.430  -4.973  29.061  0.00  0.00    +0.101 A 
ATOM     13  C   UNL     1       5.615  -4.755  27.676  0.00  0.00    +0.126 A 
ATOM     14 CL   UNL     1       4.656  -3.788  26.667  0.00  0.00    -0.076 Cl
ATOM     15  C   UNL     1       6.667  -5.570  27.337  0.00  0.00    +0.255 A 
ATOM     16  O   UNL     1       7.107  -6.213  28.453  0.00  0.00    -0.336 OA
ATOM     17  N   UNL     1       6.352  -5.817  29.543  0.00  0.00    -0.080 NA
ENDBRANCH   9  15
ENDBRANCH   6   9
ENDBRANCH   1   6
BRANCH   5  18
ATOM     18  C   UNL     1       9.636  -2.020  23.643  0.00  0.00    +0.176 C 
ATOM     19  O   UNL     1      10.503  -2.064  22.766  0.00  0.00    -0.291 OA
BRANCH  18  20
ATOM     20  C   UNL     1       9.873  -1.192  24.892  0.00  0.00    +0.115 C 
BRANCH  20  21
ATOM     21  C   UNL     1       9.545   0.276  24.733  0.00  0.00    -0.033 A 
ATOM     22  C   UNL     1       8.296   0.811  25.163  0.00  0.00    -0.043 A 
ATOM     23  C   UNL     1       7.157  -0.070  25.602  0.00  0.00    +0.044 C 
ATOM     24  C   UNL     1       8.095   2.200  25.148  0.00  0.00    +0.053 A 
ATOM     25  C   UNL     1       9.074   2.994  24.596  0.00  0.00    +0.166 A 
ATOM     26  O   UNL     1       9.003   4.343  24.436  0.00  0.00    -0.453 OA
ATOM     27  C   UNL     1      10.124   4.547  23.557  0.00  0.00    +0.466 C 
ATOM     28  O   UNL     1      11.023   3.420  23.515  0.00  0.00    -0.453 OA
ATOM     29  C   UNL     1      10.237   2.469  24.090  0.00  0.00    +0.167 A 
ATOM     30  C   UNL     1      10.517   1.125  24.169  0.00  0.00    +0.054 A 
ENDBRANCH  20  21
ENDBRANCH  18  20
ENDBRANCH   5  18
TORSDOF 6
ENDMDL
MODEL 4
REMARK VINA RESULT:      -7.4      2.875      4.235
REMARK  Name = 
REMARK  8 active torsions:
REMARK  status: ('A' for Active; 'I' for Inactive)
REMARK    1  A    between atoms: C_1  and  C_2
REMARK    2  A    between atoms: C_5  and  N_6
REMARK    3  A    between atoms: N_6  and  S_7
REMARK    4  A    between atoms: S_7  and  C_10
REMARK    5  A    between atoms: C_11  and  C_15
REMARK    6  A    between atoms: C_15  and  C_17
REMARK    7  A    between atoms: C_17  and  C_18
REMARK    8  A    between atoms: C_26  and  C_27
REMARK                            x       y       z     vdW  Elec       q    Type
REMARK                         _______ _______ _______ _____ _____    ______ ____
ROOT
ATOM      1  C   UNL     1       5.953  -3.917  25.535  0.00  0.00    +0.126 A 
ATOM      2  C   UNL     1       5.345  -4.198  26.811  0.00  0.00    +0.037 A 
ATOM      3  C   UNL     1       6.190  -4.831  27.685  0.00  0.00    +0.048 A 
ATOM      4  S   UNL     1       7.716  -5.098  26.992  0.00  0.00    -0.092 S 
ATOM      5  C   UNL     1       7.266  -4.377  25.475  0.00  0.00    +0.081 A 
ENDROOT
BRANCH   1   6
ATOM      6  S   UNL     1       4.981  -3.163  24.296  0.00  0.00    +0.076 S 
ATOM      7  O   UNL     1       3.760  -2.800  24.987  0.00  0.00    -0.150 OA
ATOM      8  O   UNL     1       5.793  -2.142  23.674  0.00  0.00    -0.150 OA
BRANCH   6   9
ATOM      9  N   UNL     1       4.532  -4.261  23.096  0.00  0.00    -0.182 N 
ATOM     10  H   UNL     1       5.408  -4.428  22.593  0.00  0.00    +0.177 HD
BRANCH   9  15
ATOM     11  C   UNL     1       1.769  -8.306  24.118  0.00  0.00    +0.071 C 
ATOM     12  C   UNL     1       2.848  -7.296  24.035  0.00  0.00    +0.101 A 
ATOM     13  C   UNL     1       2.758  -5.947  23.621  0.00  0.00    +0.126 A 
ATOM     14 CL   UNL     1       1.354  -5.128  23.139  0.00  0.00    -0.076 Cl
ATOM     15  C   UNL     1       4.057  -5.503  23.609  0.00  0.00    +0.255 A 
ATOM     16  O   UNL     1       4.874  -6.512  24.021  0.00  0.00    -0.336 OA
ATOM     17  N   UNL     1       4.114  -7.629  24.319  0.00  0.00    -0.080 NA
ENDBRANCH   9  15
ENDBRANCH   6   9
ENDBRANCH   1   6
BRANCH   5  18
ATOM     18  C   UNL     1       8.312  -4.427  24.447  0.00  0.00    +0.176 C 
ATOM     19  O   UNL     1       8.199  -5.167  23.466  0.00  0.00    -0.291 OA
BRANCH  18  20
ATOM     20  C   UNL     1       9.544  -3.553  24.589  0.00  0.00    +0.115 C 
BRANCH  20  21
ATOM     21  C   UNL     1       9.334  -2.115  24.168  0.00  0.00    -0.033 A 
ATOM     22  C   UNL     1       9.064  -1.091  25.120  0.00  0.00    -0.043 A 
ATOM     23  C   UNL     1       8.763  -1.400  26.563  0.00  0.00    +0.044 C 
ATOM     24  C   UNL     1       9.038   0.250  24.708  0.00  0.00    +0.053 A 
ATOM     25  C   UNL     1       9.152   0.521  23.364  0.00  0.00    +0.166 A 
ATOM     26  O   UNL     1       9.071   1.754  22.795  0.00  0.00    -0.453 OA
ATOM     27  C   UNL     1       8.945   1.379  21.411  0.00  0.00    +0.466 C 
ATOM     28  O   UNL     1       9.315   0.008  21.160  0.00  0.00    -0.453 OA
ATOM     29  C   UNL     1       9.313  -0.475  22.432  0.00  0.00    +0.167 A 
ATOM     30  C   UNL     1       9.438  -1.794  22.799  0.00  0.00    +0.054 A 
ENDBRANCH  20  21
ENDBRANCH  18  20
ENDBRANCH   5  18
TORSDOF 6
ENDMDL
MODEL 5
REMARK VINA RESULT:      -7.3      3.265      7.123
REMARK  Name = 
REMARK  8 active torsions:
REMARK  status: ('A' for Active; 'I' for Inactive)
REMARK    1  A    between atoms: C_1  and  C_2
REMARK    2  A    between atoms: C_5  and  N_6
REMARK    3  A    between atoms: N_6  and  S_7
REMARK    4  A    between atoms: S_7  and  C_10
REMARK    5  A    between atoms: C_11  and  C_15
REMARK    6  A    between atoms: C_15  and  C_17
REMARK    7  A    between atoms: C_17  and  C_18
REMARK    8  A    between atoms: C_26  and  C_27
REMARK                            x       y       z     vdW  Elec       q    Type
REMARK                         _______ _______ _______ _____ _____    ______ ____
ROOT
ATOM      1  C   UNL     1       6.785  -2.809  26.709  0.00  0.00    +0.126 A 
ATOM      2  C   UNL     1       6.304  -1.466  26.510  0.00  0.00    +0.037 A 
ATOM      3  C   UNL     1       5.025  -1.276  26.967  0.00  0.00    +0.048 A 
ATOM      4  S   UNL     1       4.386  -2.699  27.635  0.00  0.00    -0.092 S 
ATOM      5  C   UNL     1       5.824  -3.621  27.305  0.00  0.00    +0.081 A 
ENDROOT
BRANCH   1   6
ATOM      6  S   UNL     1       8.380  -3.218  26.126  0.00  0.00    +0.076 S 
ATOM      7  O   UNL     1       9.065  -1.943  26.067  0.00  0.00    -0.150 OA
ATOM      8  O   UNL     1       8.888  -4.277  26.969  0.00  0.00    -0.150 OA
BRANCH   6   9
ATOM      9  N   UNL     1       8.338  -3.802  24.543  0.00  0.00    -0.182 N 
ATOM     10  H   UNL     1       7.336  -3.863  24.343  0.00  0.00    +0.177 HD
BRANCH   9  15
ATOM     11  C   UNL     1       9.275  -0.016  21.409  0.00  0.00    +0.071 C 
ATOM     12  C   UNL     1       9.359  -1.241  22.236  0.00  0.00    +0.101 A 
ATOM     13  C   UNL     1       8.307  -1.959  22.850  0.00  0.00    +0.126 A 
ATOM     14 CL   UNL     1       6.652  -1.604  22.760  0.00  0.00    -0.076 Cl
ATOM     15  C   UNL     1       8.939  -2.924  23.595  0.00  0.00    +0.255 A 
ATOM     16  O   UNL     1      10.283  -2.813  23.415  0.00  0.00    -0.336 OA
ATOM     17  N   UNL     1      10.549  -1.777  22.538  0.00  0.00    -0.080 NA
ENDBRANCH   9  15
ENDBRANCH   6   9
ENDBRANCH   1   6
BRANCH   5  18
ATOM     18  C   UNL     1       5.731  -5.039  27.673  0.00  0.00    +0.176 C 
ATOM     19  O   UNL     1       6.341  -5.478  28.653  0.00  0.00    -0.291 OA
BRANCH  18  20
ATOM     20  C   UNL     1       4.869  -5.972  26.846  0.00  0.00    +0.115 C 
BRANCH  20  21
ATOM     21  C   UNL     1       4.907  -5.697  25.359  0.00  0.00    -0.033 A 
ATOM     22  C   UNL     1       3.796  -5.123  24.678  0.00  0.00    -0.043 A 
ATOM     23  C   UNL     1       2.455  -4.949  25.341  0.00  0.00    +0.044 C 
ATOM     24  C   UNL     1       3.930  -4.733  23.336  0.00  0.00    +0.053 A 
ATOM     25  C   UNL     1       5.102  -5.039  22.684  0.00  0.00    +0.166 A 
ATOM     26  O   UNL     1       5.362  -4.801  21.370  0.00  0.00    -0.453 OA
ATOM     27  C   UNL     1       6.553  -5.592  21.207  0.00  0.00    +0.466 C 
ATOM     28  O   UNL     1       7.162  -5.964  22.460  0.00  0.00    -0.453 OA
ATOM     29  C   UNL     1       6.138  -5.684  23.313  0.00  0.00    +0.167 A 
ATOM     30  C   UNL     1       6.087  -5.999  24.650  0.00  0.00    +0.054 A 
ENDBRANCH  20  21
ENDBRANCH  18  20
ENDBRANCH   5  18
TORSDOF 6
ENDMDL
MODEL 6
REMARK VINA RESULT:      -7.3      2.277      3.436
REMARK  Name = 
REMARK  8 active torsions:
REMARK  status: ('A' for Active; 'I' for Inactive)
REMARK    1  A    between atoms: C_1  and  C_2
REMARK    2  A    between atoms: C_5  and  N_6
REMARK    3  A    between atoms: N_6  and  S_7
REMARK    4  A    between atoms: S_7  and  C_10
REMARK    5  A    between atoms: C_11  and  C_15
REMARK    6  A    between atoms: C_15  and  C_17
REMARK    7  A    between atoms: C_17  and  C_18
REMARK    8  A    between atoms: C_26  and  C_27
REMARK                            x       y       z     vdW  Elec       q    Type
REMARK                         _______ _______ _______ _____ _____    ______ ____
ROOT
ATOM      1  C   UNL     1       7.879  -1.735  24.455  0.00  0.00    +0.126 A 
ATOM      2  C   UNL     1       7.725  -1.546  25.875  0.00  0.00    +0.037 A 
ATOM      3  C   UNL     1       8.705  -0.759  26.425  0.00  0.00    +0.048 A 
ATOM      4  S   UNL     1       9.818  -0.241  25.254  0.00  0.00    -0.092 S 
ATOM      5  C   UNL     1       9.011  -1.087  23.966  0.00  0.00    +0.081 A 
ENDROOT
BRANCH   1   6
ATOM      6  S   UNL     1       6.738  -2.761  23.622  0.00  0.00    +0.076 S 
ATOM      7  O   UNL     1       5.563  -2.730  24.469  0.00  0.00    -0.150 OA
ATOM      8  O   UNL     1       6.660  -2.297  22.255  0.00  0.00    -0.150 OA
BRANCH   6   9
ATOM      9  N   UNL     1       7.250  -4.368  23.587  0.00  0.00    -0.182 N 
ATOM     10  H   UNL     1       8.181  -4.326  24.009  0.00  0.00    +0.177 HD
BRANCH   9  15
ATOM     11  C   UNL     1       4.958  -6.729  27.357  0.00  0.00    +0.071 C 
ATOM     12  C   UNL     1       5.409  -6.262  26.026  0.00  0.00    +0.101 A 
ATOM     13  C   UNL     1       6.566  -5.516  25.704  0.00  0.00    +0.126 A 
ATOM     14 CL   UNL     1       7.763  -4.989  26.782  0.00  0.00    -0.076 Cl
ATOM     15  C   UNL     1       6.436  -5.243  24.364  0.00  0.00    +0.255 A 
ATOM     16  O   UNL     1       5.291  -5.817  23.904  0.00  0.00    -0.336 OA
ATOM     17  N   UNL     1       4.660  -6.484  24.938  0.00  0.00    -0.080 NA
ENDBRANCH   9  15
ENDBRANCH   6   9
ENDBRANCH   1   6
BRANCH   5  18
ATOM     18  C   UNL     1       9.681  -0.988  22.665  0.00  0.00    +0.176 C 
ATOM     19  O   UNL     1      10.554  -1.798  22.340  0.00  0.00    -0.291 OA
BRANCH  18  20
ATOM     20  C   UNL     1       9.290   0.119  21.703  0.00  0.00    +0.115 C 
BRANCH  20  21
ATOM     21  C   UNL     1       9.334   1.506  22.305  0.00  0.00    -0.033 A 
ATOM     22  C   UNL     1       8.146   2.183  22.705  0.00  0.00    -0.043 A 
ATOM     23  C   UNL     1       6.775   1.660  22.367  0.00  0.00    +0.044 C 
ATOM     24  C   UNL     1       8.241   3.395  23.406  0.00  0.00    +0.053 A 
ATOM     25  C   UNL     1       9.487   3.955  23.573  0.00  0.00    +0.166 A 
ATOM     26  O   UNL     1       9.743   5.156  24.159  0.00  0.00    -0.453 OA
ATOM     27  C   UNL     1      11.116   5.334  23.766  0.00  0.00    +0.466 C 
ATOM     28  O   UNL     1      11.733   4.118  23.296  0.00  0.00    -0.453 OA
ATOM     29  C   UNL     1      10.625   3.351  23.099  0.00  0.00    +0.167 A 
ATOM     30  C   UNL     1      10.590   2.119  22.490  0.00  0.00    +0.054 A 
ENDBRANCH  20  21
ENDBRANCH  18  20
ENDBRANCH   5  18
TORSDOF 6
ENDMDL
MODEL 7
REMARK VINA RESULT:      -7.3      3.280      8.000
REMARK  Name = 
REMARK  8 active torsions:
REMARK  status: ('A' for Active; 'I' for Inactive)
REMARK    1  A    between atoms: C_1  and  C_2
REMARK    2  A    between atoms: C_5  and  N_6
REMARK    3  A    between atoms: N_6  and  S_7
REMARK    4  A    between atoms: S_7  and  C_10
REMARK    5  A    between atoms: C_11  and  C_15
REMARK    6  A    between atoms: C_15  and  C_17
REMARK    7  A    between atoms: C_17  and  C_18
REMARK    8  A    between atoms: C_26  and  C_27
REMARK                            x       y       z     vdW  Elec       q    Type
REMARK                         _______ _______ _______ _____ _____    ______ ____
ROOT
ATOM      1  C   UNL     1       8.865  -0.812  24.432  0.00  0.00    +0.126 A 
ATOM      2  C   UNL     1       8.929   0.028  25.601  0.00  0.00    +0.037 A 
ATOM      3  C   UNL     1       7.823  -0.079  26.405  0.00  0.00    +0.048 A 
ATOM      4  S   UNL     1       6.698  -1.180  25.771  0.00  0.00    -0.092 S 
ATOM      5  C   UNL     1       7.674  -1.530  24.375  0.00  0.00    +0.081 A 
ENDROOT
BRANCH   1   6
ATOM      6  S   UNL     1      10.179  -0.743  23.283  0.00  0.00    +0.076 S 
ATOM      7  O   UNL     1      11.215  -0.013  23.986  0.00  0.00    -0.150 OA
ATOM      8  O   UNL     1      10.423  -2.092  22.827  0.00  0.00    -0.150 OA
BRANCH   6   9
ATOM      9  N   UNL     1       9.781   0.188  21.933  0.00  0.00    -0.182 N 
ATOM     10  H   UNL     1       9.340  -0.488  21.305  0.00  0.00    +0.177 HD
BRANCH   9  15
ATOM     11  C   UNL     1       7.644   4.614  22.873  0.00  0.00    +0.071 C 
ATOM     12  C   UNL     1       7.907   3.183  22.600  0.00  0.00    +0.101 A 
ATOM     13  C   UNL     1       9.130   2.481  22.699  0.00  0.00    +0.126 A 
ATOM     14 CL   UNL     1      10.622   3.112  23.198  0.00  0.00    -0.076 Cl
ATOM     15  C   UNL     1       8.847   1.228  22.213  0.00  0.00    +0.255 A 
ATOM     16  O   UNL     1       7.530   1.171  21.874  0.00  0.00    -0.336 OA
ATOM     17  N   UNL     1       6.930   2.388  22.144  0.00  0.00    -0.080 NA
ENDBRANCH   9  15
ENDBRANCH   6   9
ENDBRANCH   1   6
BRANCH   5  18
ATOM     18  C   UNL     1       7.053  -2.456  23.420  0.00  0.00    +0.176 C 
ATOM     19  O   UNL     1       6.229  -2.053  22.595  0.00  0.00    -0.291 OA
BRANCH  18  20
ATOM     20  C   UNL     1       7.437  -3.924  23.443  0.00  0.00    +0.115 C 
BRANCH  20  21
ATOM     21  C   UNL     1       6.745  -4.728  24.522  0.00  0.00    -0.033 A 
ATOM     22  C   UNL     1       5.510  -5.395  24.278  0.00  0.00    -0.043 A 
ATOM     23  C   UNL     1       4.717  -5.175  23.016  0.00  0.00    +0.044 C 
ATOM     24  C   UNL     1       4.986  -6.261  25.249  0.00  0.00    +0.053 A 
ATOM     25  C   UNL     1       5.624  -6.339  26.466  0.00  0.00    +0.166 A 
ATOM     26  O   UNL     1       5.206  -7.068  27.535  0.00  0.00    -0.453 OA
ATOM     27  C   UNL     1       6.058  -6.519  28.557  0.00  0.00    +0.466 C 
ATOM     28  O   UNL     1       7.174  -5.777  28.025  0.00  0.00    -0.453 OA
ATOM     29  C   UNL     1       6.761  -5.618  26.738  0.00  0.00    +0.167 A 
ATOM     30  C   UNL     1       7.362  -4.831  25.784  0.00  0.00    +0.054 A 
ENDBRANCH  20  21
ENDBRANCH  18  20
ENDBRANCH   5  18
TORSDOF 6
ENDMDL
MODEL 8
REMARK VINA RESULT:      -7.3      2.888      7.772
REMARK  Name = 
REMARK  8 active torsions:
REMARK  status: ('A' for Active; 'I' for Inactive)
REMARK    1  A    between atoms: C_1  and  C_2
REMARK    2  A    between atoms: C_5  and  N_6
REMARK    3  A    between atoms: N_6  and  S_7
REMARK    4  A    between atoms: S_7  and  C_10
REMARK    5  A    between atoms: C_11  and  C_15
REMARK    6  A    between atoms: C_15  and  C_17
REMARK    7  A    between atoms: C_17  and  C_18
REMARK    8  A    between atoms: C_26  and  C_27
REMARK                            x       y       z     vdW  Elec       q    Type
REMARK                         _______ _______ _______ _____ _____    ______ ____
ROOT
ATOM      1  C   UNL     1       8.085  -2.985  23.106  0.00  0.00    +0.126 A 
ATOM      2  C   UNL     1       7.032  -2.996  22.123  0.00  0.00    +0.037 A 
ATOM      3  C   UNL     1       6.211  -4.090  22.223  0.00  0.00    +0.048 A 
ATOM      4  S   UNL     1       6.690  -5.114  23.487  0.00  0.00    -0.092 S 
ATOM      5  C   UNL     1       8.041  -4.110  23.925  0.00  0.00    +0.081 A 
ENDROOT
BRANCH   1   6
ATOM      6  S   UNL     1       9.247  -1.681  23.068  0.00  0.00    +0.076 S 
ATOM      7  O   UNL     1       9.032  -0.990  24.324  0.00  0.00    -0.150 OA
ATOM      8  O   UNL     1      10.536  -2.262  22.771  0.00  0.00    -0.150 OA
BRANCH   6   9
ATOM      9  N   UNL     1       8.897  -0.565  21.852  0.00  0.00    -0.182 N 
ATOM     10  H   UNL     1       7.888  -0.676  21.716  0.00  0.00    +0.177 HD
BRANCH   9  15
ATOM     11  C   UNL     1       8.513   4.114  23.584  0.00  0.00    +0.071 C 
ATOM     12  C   UNL     1       8.996   2.837  23.012  0.00  0.00    +0.101 A 
ATOM     13  C   UNL     1       8.234   1.760  22.502  0.00  0.00    +0.126 A 
ATOM     14 CL   UNL     1       6.545   1.680  22.387  0.00  0.00    -0.076 Cl
ATOM     15  C   UNL     1       9.161   0.785  22.224  0.00  0.00    +0.255 A 
ATOM     16  O   UNL     1      10.404   1.258  22.518  0.00  0.00    -0.336 OA
ATOM     17  N   UNL     1      10.305   2.557  22.985  0.00  0.00    -0.080 NA
ENDBRANCH   9  15
ENDBRANCH   6   9
ENDBRANCH   1   6
BRANCH   5  18
ATOM     18  C   UNL     1       8.866  -4.647  25.013  0.00  0.00    +0.176 C 
ATOM     19  O   UNL     1       9.723  -5.507  24.791  0.00  0.00    -0.291 OA
BRANCH  18  20
ATOM     20  C   UNL     1       8.670  -4.131  26.427  0.00  0.00    +0.115 C 
BRANCH  20  21
ATOM     21  C   UNL     1       7.324  -4.470  27.028  0.00  0.00    -0.033 A 
ATOM     22  C   UNL     1       6.272  -3.511  27.090  0.00  0.00    -0.043 A 
ATOM     23  C   UNL     1       6.494  -2.059  26.759  0.00  0.00    +0.044 C 
ATOM     24  C   UNL     1       4.993  -3.911  27.504  0.00  0.00    +0.053 A 
ATOM     25  C   UNL     1       4.828  -5.198  27.962  0.00  0.00    +0.166 A 
ATOM     26  O   UNL     1       3.677  -5.719  28.467  0.00  0.00    -0.453 OA
ATOM     27  C   UNL     1       4.189  -6.934  29.043  0.00  0.00    +0.466 C 
ATOM     28  O   UNL     1       5.504  -7.279  28.564  0.00  0.00    -0.453 OA
ATOM     29  C   UNL     1       5.867  -6.096  27.996  0.00  0.00    +0.167 A 
ATOM     30  C   UNL     1       7.114  -5.777  27.512  0.00  0.00    +0.054 A 
ENDBRANCH  20  21
ENDBRANCH  18  20
ENDBRANCH   5  18
TORSDOF 6
ENDMDL
MODEL 9
REMARK VINA RESULT:      -7.3      1.698      2.187
REMARK  Name = 
REMARK  8 active torsions:
REMARK  status: ('A' for Active; 'I' for Inactive)
REMARK    1  A    between atoms: C_1  and  C_2
REMARK    2  A    between atoms: C_5  and  N_6
REMARK    3  A    between atoms: N_6  and  S_7
REMARK    4  A    between atoms: S_7  and  C_10
REMARK    5  A    between atoms: C_11  and  C_15
REMARK    6  A    between atoms: C_15  and  C_17
REMARK    7  A    between atoms: C_17  and  C_18
REMARK    8  A    between atoms: C_26  and  C_27
REMARK                            x       y       z     vdW  Elec       q    Type
REMARK                         _______ _______ _______ _____ _____    ______ ____
ROOT
ATOM      1  C   UNL     1       7.490  -4.350  24.473  0.00  0.00    +0.126 A 
ATOM      2  C   UNL     1       6.319  -4.878  23.820  0.00  0.00    +0.037 A 
ATOM      3  C   UNL     1       6.048  -4.269  22.621  0.00  0.00    +0.048 A 
ATOM      4  S   UNL     1       7.186  -3.061  22.266  0.00  0.00    -0.092 S 
ATOM      5  C   UNL     1       8.070  -3.318  23.741  0.00  0.00    +0.081 A 
ENDROOT
BRANCH   1   6
ATOM      6  S   UNL     1       7.930  -4.988  26.038  0.00  0.00    +0.076 S 
ATOM      7  O   UNL     1       9.080  -5.824  25.760  0.00  0.00    -0.150 OA
ATOM      8  O   UNL     1       8.050  -3.866  26.941  0.00  0.00    -0.150 OA
BRANCH   6   9
ATOM      9  N   UNL     1       6.741  -6.014  26.653  0.00  0.00    -0.182 N 
ATOM     10  H   UNL     1       7.226  -6.912  26.735  0.00  0.00    +0.177 HD
BRANCH   9  15
ATOM     11  C   UNL     1       3.938  -4.391  30.468  0.00  0.00    +0.071 C 
ATOM     12  C   UNL     1       5.023  -4.941  29.624  0.00  0.00    +0.101 A 
ATOM     13  C   UNL     1       5.179  -4.845  28.222  0.00  0.00    +0.126 A 
ATOM     14 CL   UNL     1       4.157  -4.030  27.143  0.00  0.00    -0.076 Cl
ATOM     15  C   UNL     1       6.270  -5.632  27.943  0.00  0.00    +0.255 A 
ATOM     16  O   UNL     1       6.758  -6.141  29.107  0.00  0.00    -0.336 OA
ATOM     17  N   UNL     1       5.995  -5.685  30.167  0.00  0.00    -0.080 NA
ENDBRANCH   9  15
ENDBRANCH   6   9
ENDBRANCH   1   6
BRANCH   5  18
ATOM     18  C   UNL     1       9.198  -2.399  23.937  0.00  0.00    +0.176 C 
ATOM     19  O   UNL     1      10.262  -2.566  23.334  0.00  0.00    -0.291 OA
BRANCH  18  20
ATOM     20  C   UNL     1       9.050  -1.224  24.886  0.00  0.00    +0.115 C 
BRANCH  20  21
ATOM     21  C   UNL     1       8.773   0.096  24.200  0.00  0.00    -0.033 A 
ATOM     22  C   UNL     1       9.814   1.034  23.942  0.00  0.00    -0.043 A 
ATOM     23  C   UNL     1      11.197   0.871  24.513  0.00  0.00    +0.044 C 
ATOM     24  C   UNL     1       9.546   2.169  23.161  0.00  0.00    +0.053 A 
ATOM     25  C   UNL     1       8.246   2.402  22.774  0.00  0.00    +0.166 A 
ATOM     26  O   UNL     1       7.808   3.488  22.083  0.00  0.00    -0.453 OA
ATOM     27  C   UNL     1       6.387   3.333  22.254  0.00  0.00    +0.466 C 
ATOM     28  O   UNL     1       6.011   2.014  22.700  0.00  0.00    -0.453 OA
ATOM     29  C   UNL     1       7.224   1.548  23.108  0.00  0.00    +0.167 A 
ATOM     30  C   UNL     1       7.454   0.377  23.790  0.00  0.00    +0.054 A 
ENDBRANCH  20  21
ENDBRANCH  18  20
ENDBRANCH   5  18
TORSDOF 6
ENDMDL
