MODEL 1
REMARK VINA RESULT:      -6.0      0.000      0.000
REMARK  Name = 
REMARK  9 active torsions:
REMARK  status: ('A' for Active; 'I' for Inactive)
REMARK    1  A    between atoms: C_2  and  N_3
REMARK    2  A    between atoms: C_2  and  C_4
REMARK    3  A    between atoms: C_2  and  C_18
REMARK    4  A    between atoms: C_4  and  S_5
REMARK    5  A    between atoms: S_5  and  C_6
REMARK    6  A    between atoms: C_6  and  C_7
REMARK    7  A    between atoms: C_7  and  C_8
REMARK    8  A    between atoms: C_8  and  C_10
REMARK    9  A    between atoms: C_18  and  O_19
REMARK                            x       y       z     vdW  Elec       q    Type
REMARK                         _______ _______ _______ _____ _____    ______ ____
ROOT
ATOM      1  C   UNK     1       6.852  -5.429  23.819  0.00  0.00    +0.077 C 
ENDROOT
BRANCH   1   2
ATOM      2  S   UNK     1       5.651  -4.707  24.992  0.00  0.00    -0.158 S 
BRANCH   2   3
ATOM      3  C   UNK     1       5.741  -5.937  26.344  0.00  0.00    +0.099 C 
BRANCH   3   4
ATOM      4  C   UNK     1       6.603  -5.559  27.557  0.00  0.00    +0.170 C 
BRANCH   4   5
ATOM      5  N   UNK     1       8.044  -5.725  27.247  0.00  0.00    -0.318 NA
ATOM      6  H   UNK     1       8.429  -6.541  27.723  0.00  0.00    +0.119 HD
ATOM      7  H   UNK     1       8.280  -5.725  26.261  0.00  0.00    +0.119 HD
ENDBRANCH   4   5
BRANCH   4   8
ATOM      8  C   UNK     1       6.200  -6.359  28.806  0.00  0.00    +0.323 C 
ATOM      9  O   UNK     1       6.349  -5.959  29.952  0.00  0.00    -0.249 OA
BRANCH   8  10
ATOM     10  O   UNK     1       5.654  -7.569  28.539  0.00  0.00    -0.480 OA
ATOM     11  H   UNK     1       4.690  -7.520  28.435  0.00  0.00    +0.295 HD
ENDBRANCH   8  10
ENDBRANCH   4   8
ENDBRANCH   3   4
ENDBRANCH   2   3
ENDBRANCH   1   2
BRANCH   1  12
ATOM     12  C   UNK     1       7.439  -4.323  22.956  0.00  0.00    +0.090 C 
BRANCH  12  13
ATOM     13  C   UNK     1       8.636  -3.682  23.632  0.00  0.00    +0.164 C 
ATOM     14  O   UNK     1       9.295  -4.262  24.495  0.00  0.00    -0.292 OA
BRANCH  13  15
ATOM     15  C   UNK     1       9.033  -2.301  23.218  0.00  0.00    +0.019 A 
ATOM     16  C   UNK     1       9.754  -1.510  24.127  0.00  0.00    +0.032 A 
ATOM     17  C   UNK     1      10.167  -0.221  23.770  0.00  0.00    +0.060 A 
ATOM     18 CL   UNK     1      11.056   0.689  24.939  0.00  0.00    -0.082 Cl
ATOM     19  C   UNK     1       9.857   0.286  22.506  0.00  0.00    +0.059 A 
ATOM     20 CL   UNK     1      10.346   1.862  21.990  0.00  0.00    -0.082 Cl
ATOM     21  C   UNK     1       9.131  -0.494  21.603  0.00  0.00    +0.022 A 
ATOM     22  C   UNK     1       8.717  -1.782  21.957  0.00  0.00    +0.013 A 
ENDBRANCH  13  15
ENDBRANCH  12  13
ENDBRANCH   1  12
TORSDOF 9
ENDMDL
MODEL 2
REMARK VINA RESULT:      -6.0      2.359      3.202
REMARK  Name = 
REMARK  9 active torsions:
REMARK  status: ('A' for Active; 'I' for Inactive)
REMARK    1  A    between atoms: C_2  and  N_3
REMARK    2  A    between atoms: C_2  and  C_4
REMARK    3  A    between atoms: C_2  and  C_18
REMARK    4  A    between atoms: C_4  and  S_5
REMARK    5  A    between atoms: S_5  and  C_6
REMARK    6  A    between atoms: C_6  and  C_7
REMARK    7  A    between atoms: C_7  and  C_8
REMARK    8  A    between atoms: C_8  and  C_10
REMARK    9  A    between atoms: C_18  and  O_19
REMARK                            x       y       z     vdW  Elec       q    Type
REMARK                         _______ _______ _______ _____ _____    ______ ____
ROOT
ATOM      1  C   UNK     1       7.445  -2.401  23.722  0.00  0.00    +0.077 C 
ENDROOT
BRANCH   1   2
ATOM      2  S   UNK     1       6.721  -4.079  23.746  0.00  0.00    -0.158 S 
BRANCH   2   3
ATOM      3  C   UNK     1       8.226  -5.076  24.046  0.00  0.00    +0.099 C 
BRANCH   3   4
ATOM      4  C   UNK     1       9.066  -4.694  25.272  0.00  0.00    +0.170 C 
BRANCH   4   5
ATOM      5  N   UNK     1      10.303  -5.510  25.335  0.00  0.00    -0.318 NA
ATOM      6  H   UNK     1      10.304  -6.229  24.611  0.00  0.00    +0.119 HD
ATOM      7  H   UNK     1      11.170  -4.987  25.340  0.00  0.00    +0.119 HD
ENDBRANCH   4   5
BRANCH   4   8
ATOM      8  C   UNK     1       8.251  -4.806  26.571  0.00  0.00    +0.323 C 
ATOM      9  O   UNK     1       7.763  -3.851  27.158  0.00  0.00    -0.249 OA
BRANCH   8  10
ATOM     10  O   UNK     1       8.109  -6.072  27.030  0.00  0.00    -0.480 OA
ATOM     11  H   UNK     1       7.773  -6.095  27.941  0.00  0.00    +0.295 HD
ENDBRANCH   8  10
ENDBRANCH   4   8
ENDBRANCH   3   4
ENDBRANCH   2   3
ENDBRANCH   1   2
BRANCH   1  12
ATOM     12  C   UNK     1       8.201  -2.198  22.418  0.00  0.00    +0.090 C 
BRANCH  12  13
ATOM     13  C   UNK     1       9.570  -1.596  22.670  0.00  0.00    +0.164 C 
ATOM     14  O   UNK     1      10.601  -2.267  22.636  0.00  0.00    -0.292 OA
BRANCH  13  15
ATOM     15  C   UNK     1       9.662  -0.131  22.955  0.00  0.00    +0.019 A 
ATOM     16  C   UNK     1       8.720   0.727  22.367  0.00  0.00    +0.032 A 
ATOM     17  C   UNK     1       8.755   2.102  22.628  0.00  0.00    +0.060 A 
ATOM     18 CL   UNK     1       7.558   3.092  21.872  0.00  0.00    -0.082 Cl
ATOM     19  C   UNK     1       9.734   2.626  23.475  0.00  0.00    +0.059 A 
ATOM     20 CL   UNK     1       9.830   4.310  23.856  0.00  0.00    -0.082 Cl
ATOM     21  C   UNK     1      10.679   1.777  24.054  0.00  0.00    +0.022 A 
ATOM     22  C   UNK     1      10.646   0.403  23.795  0.00  0.00    +0.013 A 
ENDBRANCH  13  15
ENDBRANCH  12  13
ENDBRANCH   1  12
TORSDOF 9
ENDMDL
MODEL 3
REMARK VINA RESULT:      -5.9      6.272      9.338
REMARK  Name = 
REMARK  9 active torsions:
REMARK  status: ('A' for Active; 'I' for Inactive)
REMARK    1  A    between atoms: C_2  and  N_3
REMARK    2  A    between atoms: C_2  and  C_4
REMARK    3  A    between atoms: C_2  and  C_18
REMARK    4  A    between atoms: C_4  and  S_5
REMARK    5  A    between atoms: S_5  and  C_6
REMARK    6  A    between atoms: C_6  and  C_7
REMARK    7  A    between atoms: C_7  and  C_8
REMARK    8  A    between atoms: C_8  and  C_10
REMARK    9  A    between atoms: C_18  and  O_19
REMARK                            x       y       z     vdW  Elec       q    Type
REMARK                         _______ _______ _______ _____ _____    ______ ____
ROOT
ATOM      1  C   UNK     1      10.323   3.141  23.507  0.00  0.00    +0.077 C 
ENDROOT
BRANCH   1   2
ATOM      2  S   UNK     1       9.535   4.704  24.033  0.00  0.00    -0.158 S 
BRANCH   2   3
ATOM      3  C   UNK     1      10.823   5.901  23.525  0.00  0.00    +0.099 C 
BRANCH   3   4
ATOM      4  C   UNK     1      12.252   5.615  24.010  0.00  0.00    +0.170 C 
BRANCH   4   5
ATOM      5  N   UNK     1      12.726   6.697  24.907  0.00  0.00    -0.318 NA
ATOM      6  H   UNK     1      11.987   6.994  25.545  0.00  0.00    +0.119 HD
ATOM      7  H   UNK     1      13.589   6.506  25.402  0.00  0.00    +0.119 HD
ENDBRANCH   4   5
BRANCH   4   8
ATOM      8  C   UNK     1      13.215   5.398  22.832  0.00  0.00    +0.323 C 
ATOM      9  O   UNK     1      12.904   5.541  21.658  0.00  0.00    -0.249 OA
BRANCH   8  10
ATOM     10  O   UNK     1      14.466   5.028  23.198  0.00  0.00    -0.480 OA
ATOM     11  H   UNK     1      15.142   5.384  22.599  0.00  0.00    +0.295 HD
ENDBRANCH   8  10
ENDBRANCH   4   8
ENDBRANCH   3   4
ENDBRANCH   2   3
ENDBRANCH   1   2
BRANCH   1  12
ATOM     12  C   UNK     1       9.432   1.973  23.899  0.00  0.00    +0.090 C 
BRANCH  12  13
ATOM     13  C   UNK     1      10.254   0.728  24.171  0.00  0.00    +0.164 C 
ATOM     14  O   UNK     1      11.408   0.779  24.595  0.00  0.00    -0.292 OA
BRANCH  13  15
ATOM     15  C   UNK     1       9.627  -0.608  23.925  0.00  0.00    +0.019 A 
ATOM     16  C   UNK     1       9.298  -1.408  25.031  0.00  0.00    +0.032 A 
ATOM     17  C   UNK     1       8.687  -2.653  24.846  0.00  0.00    +0.060 A 
ATOM     18 CL   UNK     1       8.307  -3.577  26.256  0.00  0.00    -0.082 Cl
ATOM     19  C   UNK     1       8.404  -3.107  23.556  0.00  0.00    +0.059 A 
ATOM     20 CL   UNK     1       7.637  -4.626  23.251  0.00  0.00    -0.082 Cl
ATOM     21  C   UNK     1       8.739  -2.318  22.453  0.00  0.00    +0.022 A 
ATOM     22  C   UNK     1       9.351  -1.073  22.635  0.00  0.00    +0.013 A 
ENDBRANCH  13  15
ENDBRANCH  12  13
ENDBRANCH   1  12
TORSDOF 9
ENDMDL
MODEL 4
REMARK VINA RESULT:      -5.8      2.750      3.800
REMARK  Name = 
REMARK  9 active torsions:
REMARK  status: ('A' for Active; 'I' for Inactive)
REMARK    1  A    between atoms: C_2  and  N_3
REMARK    2  A    between atoms: C_2  and  C_4
REMARK    3  A    between atoms: C_2  and  C_18
REMARK    4  A    between atoms: C_4  and  S_5
REMARK    5  A    between atoms: S_5  and  C_6
REMARK    6  A    between atoms: C_6  and  C_7
REMARK    7  A    between atoms: C_7  and  C_8
REMARK    8  A    between atoms: C_8  and  C_10
REMARK    9  A    between atoms: C_18  and  O_19
REMARK                            x       y       z     vdW  Elec       q    Type
REMARK                         _______ _______ _______ _____ _____    ______ ____
ROOT
ATOM      1  C   UNK     1       6.606  -3.654  25.985  0.00  0.00    +0.077 C 
ENDROOT
BRANCH   1   2
ATOM      2  S   UNK     1       5.650  -5.119  25.456  0.00  0.00    -0.158 S 
BRANCH   2   3
ATOM      3  C   UNK     1       5.217  -4.623  23.749  0.00  0.00    +0.099 C 
BRANCH   3   4
ATOM      4  C   UNK     1       4.998  -5.760  22.741  0.00  0.00    +0.170 C 
BRANCH   4   5
ATOM      5  N   UNK     1       4.832  -7.057  23.443  0.00  0.00    -0.318 NA
ATOM      6  H   UNK     1       5.737  -7.485  23.639  0.00  0.00    +0.119 HD
ATOM      7  H   UNK     1       4.246  -7.033  24.269  0.00  0.00    +0.119 HD
ENDBRANCH   4   5
BRANCH   4   8
ATOM      8  C   UNK     1       6.131  -5.822  21.704  0.00  0.00    +0.323 C 
ATOM      9  O   UNK     1       5.974  -5.637  20.506  0.00  0.00    -0.249 OA
BRANCH   8  10
ATOM     10  O   UNK     1       7.348  -6.103  22.229  0.00  0.00    -0.480 OA
ATOM     11  H   UNK     1       7.830  -5.299  22.484  0.00  0.00    +0.295 HD
ENDBRANCH   8  10
ENDBRANCH   4   8
ENDBRANCH   3   4
ENDBRANCH   2   3
ENDBRANCH   1   2
BRANCH   1  12
ATOM     12  C   UNK     1       8.068  -4.039  26.144  0.00  0.00    +0.090 C 
BRANCH  12  13
ATOM     13  C   UNK     1       8.756  -4.135  24.796  0.00  0.00    +0.164 C 
ATOM     14  O   UNK     1       9.131  -5.206  24.322  0.00  0.00    -0.292 OA
BRANCH  13  15
ATOM     15  C   UNK     1       8.971  -2.877  24.015  0.00  0.00    +0.019 A 
ATOM     16  C   UNK     1       9.691  -1.831  24.613  0.00  0.00    +0.032 A 
ATOM     17  C   UNK     1       9.936  -0.647  23.908  0.00  0.00    +0.060 A 
ATOM     18 CL   UNK     1      10.834   0.592  24.708  0.00  0.00    -0.082 Cl
ATOM     19  C   UNK     1       9.460  -0.502  22.602  0.00  0.00    +0.059 A 
ATOM     20 CL   UNK     1       9.737   0.924  21.664  0.00  0.00    -0.082 Cl
ATOM     21  C   UNK     1       8.735  -1.537  22.008  0.00  0.00    +0.022 A 
ATOM     22  C   UNK     1       8.488  -2.720  22.711  0.00  0.00    +0.013 A 
ENDBRANCH  13  15
ENDBRANCH  12  13
ENDBRANCH   1  12
TORSDOF 9
ENDMDL
MODEL 5
REMARK VINA RESULT:      -5.7      2.984      3.920
REMARK  Name = 
REMARK  9 active torsions:
REMARK  status: ('A' for Active; 'I' for Inactive)
REMARK    1  A    between atoms: C_2  and  N_3
REMARK    2  A    between atoms: C_2  and  C_4
REMARK    3  A    between atoms: C_2  and  C_18
REMARK    4  A    between atoms: C_4  and  S_5
REMARK    5  A    between atoms: S_5  and  C_6
REMARK    6  A    between atoms: C_6  and  C_7
REMARK    7  A    between atoms: C_7  and  C_8
REMARK    8  A    between atoms: C_8  and  C_10
REMARK    9  A    between atoms: C_18  and  O_19
REMARK                            x       y       z     vdW  Elec       q    Type
REMARK                         _______ _______ _______ _____ _____    ______ ____
ROOT
ATOM      1  C   UNK     1      10.117  -2.286  23.302  0.00  0.00    +0.077 C 
ENDROOT
BRANCH   1   2
ATOM      2  S   UNK     1       8.349  -2.572  23.666  0.00  0.00    -0.158 S 
BRANCH   2   3
ATOM      3  C   UNK     1       8.384  -4.362  24.048  0.00  0.00    +0.099 C 
BRANCH   3   4
ATOM      4  C   UNK     1       8.818  -4.749  25.469  0.00  0.00    +0.170 C 
BRANCH   4   5
ATOM      5  N   UNK     1      10.026  -5.611  25.430  0.00  0.00    -0.318 NA
ATOM      6  H   UNK     1       9.874  -6.426  24.836  0.00  0.00    +0.119 HD
ATOM      7  H   UNK     1      10.891  -5.138  25.198  0.00  0.00    +0.119 HD
ENDBRANCH   4   5
BRANCH   4   8
ATOM      8  C   UNK     1       7.673  -5.419  26.245  0.00  0.00    +0.323 C 
ATOM      9  O   UNK     1       6.541  -5.562  25.807  0.00  0.00    -0.249 OA
BRANCH   8  10
ATOM     10  O   UNK     1       8.019  -5.852  27.481  0.00  0.00    -0.480 OA
ATOM     11  H   UNK     1       8.977  -5.985  27.567  0.00  0.00    +0.295 HD
ENDBRANCH   8  10
ENDBRANCH   4   8
ENDBRANCH   3   4
ENDBRANCH   2   3
ENDBRANCH   1   2
BRANCH   1  12
ATOM     12  C   UNK     1      10.285  -0.911  22.675  0.00  0.00    +0.090 C 
BRANCH  12  13
ATOM     13  C   UNK     1      10.150   0.183  23.717  0.00  0.00    +0.164 C 
ATOM     14  O   UNK     1      10.671   0.103  24.829  0.00  0.00    -0.292 OA
BRANCH  13  15
ATOM     15  C   UNK     1       9.363   1.406  23.367  0.00  0.00    +0.019 A 
ATOM     16  C   UNK     1       9.499   2.545  24.178  0.00  0.00    +0.032 A 
ATOM     17  C   UNK     1       8.801   3.718  23.871  0.00  0.00    +0.060 A 
ATOM     18 CL   UNK     1       9.024   5.079  24.912  0.00  0.00    -0.082 Cl
ATOM     19  C   UNK     1       7.962   3.760  22.755  0.00  0.00    +0.059 A 
ATOM     20 CL   UNK     1       7.081   5.177  22.306  0.00  0.00    -0.082 Cl
ATOM     21  C   UNK     1       7.817   2.626  21.952  0.00  0.00    +0.022 A 
ATOM     22  C   UNK     1       8.513   1.452  22.257  0.00  0.00    +0.013 A 
ENDBRANCH  13  15
ENDBRANCH  12  13
ENDBRANCH   1  12
TORSDOF 9
ENDMDL
MODEL 6
REMARK VINA RESULT:      -5.7      2.772      3.677
REMARK  Name = 
REMARK  9 active torsions:
REMARK  status: ('A' for Active; 'I' for Inactive)
REMARK    1  A    between atoms: C_2  and  N_3
REMARK    2  A    between atoms: C_2  and  C_4
REMARK    3  A    between atoms: C_2  and  C_18
REMARK    4  A    between atoms: C_4  and  S_5
REMARK    5  A    between atoms: S_5  and  C_6
REMARK    6  A    between atoms: C_6  and  C_7
REMARK    7  A    between atoms: C_7  and  C_8
REMARK    8  A    between atoms: C_8  and  C_10
REMARK    9  A    between atoms: C_18  and  O_19
REMARK                            x       y       z     vdW  Elec       q    Type
REMARK                         _______ _______ _______ _____ _____    ______ ____
ROOT
ATOM      1  C   UNK     1       7.583  -1.674  24.393  0.00  0.00    +0.077 C 
ENDROOT
BRANCH   1   2
ATOM      2  S   UNK     1       8.478  -2.542  25.729  0.00  0.00    -0.158 S 
BRANCH   2   3
ATOM      3  C   UNK     1       7.236  -3.809  26.178  0.00  0.00    +0.099 C 
BRANCH   3   4
ATOM      4  C   UNK     1       7.692  -5.273  26.092  0.00  0.00    +0.170 C 
BRANCH   4   5
ATOM      5  N   UNK     1       7.959  -5.819  27.446  0.00  0.00    -0.318 NA
ATOM      6  H   UNK     1       8.182  -5.071  28.104  0.00  0.00    +0.119 HD
ATOM      7  H   UNK     1       7.246  -6.437  27.814  0.00  0.00    +0.119 HD
ENDBRANCH   4   5
BRANCH   4   8
ATOM      8  C   UNK     1       8.912  -5.431  25.171  0.00  0.00    +0.323 C 
ATOM      9  O   UNK     1       8.858  -5.395  23.950  0.00  0.00    -0.249 OA
BRANCH   8  10
ATOM     10  O   UNK     1      10.083  -5.617  25.826  0.00  0.00    -0.480 OA
ATOM     11  H   UNK     1      10.515  -6.449  25.574  0.00  0.00    +0.295 HD
ENDBRANCH   8  10
ENDBRANCH   4   8
ENDBRANCH   3   4
ENDBRANCH   2   3
ENDBRANCH   1   2
BRANCH   1  12
ATOM     12  C   UNK     1       8.179  -2.066  23.051  0.00  0.00    +0.090 C 
BRANCH  12  13
ATOM     13  C   UNK     1       9.519  -1.389  22.831  0.00  0.00    +0.164 C 
ATOM     14  O   UNK     1      10.517  -2.006  22.463  0.00  0.00    -0.292 OA
BRANCH  13  15
ATOM     15  C   UNK     1       9.617   0.086  23.058  0.00  0.00    +0.019 A 
ATOM     16  C   UNK     1       8.659   0.922  22.461  0.00  0.00    +0.032 A 
ATOM     17  C   UNK     1       8.699   2.305  22.669  0.00  0.00    +0.060 A 
ATOM     18 CL   UNK     1       7.484   3.267  21.906  0.00  0.00    -0.082 Cl
ATOM     19  C   UNK     1       9.699   2.861  23.472  0.00  0.00    +0.059 A 
ATOM     20 CL   UNK     1       9.803   4.558  23.787  0.00  0.00    -0.082 Cl
ATOM     21  C   UNK     1      10.658   2.034  24.059  0.00  0.00    +0.022 A 
ATOM     22  C   UNK     1      10.620   0.651  23.853  0.00  0.00    +0.013 A 
ENDBRANCH  13  15
ENDBRANCH  12  13
ENDBRANCH   1  12
TORSDOF 9
ENDMDL
MODEL 7
REMARK VINA RESULT:      -5.6      4.779      7.338
REMARK  Name = 
REMARK  9 active torsions:
REMARK  status: ('A' for Active; 'I' for Inactive)
REMARK    1  A    between atoms: C_2  and  N_3
REMARK    2  A    between atoms: C_2  and  C_4
REMARK    3  A    between atoms: C_2  and  C_18
REMARK    4  A    between atoms: C_4  and  S_5
REMARK    5  A    between atoms: S_5  and  C_6
REMARK    6  A    between atoms: C_6  and  C_7
REMARK    7  A    between atoms: C_7  and  C_8
REMARK    8  A    between atoms: C_8  and  C_10
REMARK    9  A    between atoms: C_18  and  O_19
REMARK                            x       y       z     vdW  Elec       q    Type
REMARK                         _______ _______ _______ _____ _____    ______ ____
ROOT
ATOM      1  C   UNK     1       9.637  -0.467  25.327  0.00  0.00    +0.077 C 
ENDROOT
BRANCH   1   2
ATOM      2  S   UNK     1       8.900   0.954  24.445  0.00  0.00    -0.158 S 
BRANCH   2   3
ATOM      3  C   UNK     1      10.151   1.202  23.133  0.00  0.00    +0.099 C 
BRANCH   3   4
ATOM      4  C   UNK     1       9.779   0.701  21.730  0.00  0.00    +0.170 C 
BRANCH   4   5
ATOM      5  N   UNK     1       8.666   1.503  21.165  0.00  0.00    -0.318 NA
ATOM      6  H   UNK     1       9.015   2.356  20.728  0.00  0.00    +0.119 HD
ATOM      7  H   UNK     1       8.036   1.001  20.551  0.00  0.00    +0.119 HD
ENDBRANCH   4   5
BRANCH   4   8
ATOM      8  C   UNK     1       9.444  -0.799  21.737  0.00  0.00    +0.323 C 
ATOM      9  O   UNK     1       8.307  -1.247  21.745  0.00  0.00    -0.249 OA
BRANCH   8  10
ATOM     10  O   UNK     1      10.529  -1.611  21.734  0.00  0.00    -0.480 OA
ATOM     11  H   UNK     1      10.500  -2.256  21.008  0.00  0.00    +0.295 HD
ENDBRANCH   8  10
ENDBRANCH   4   8
ENDBRANCH   3   4
ENDBRANCH   2   3
ENDBRANCH   1   2
BRANCH   1  12
ATOM     12  C   UNK     1       8.563  -1.514  25.580  0.00  0.00    +0.090 C 
BRANCH  12  13
ATOM     13  C   UNK     1       8.846  -2.784  24.801  0.00  0.00    +0.164 C 
ATOM     14  O   UNK     1       9.942  -3.014  24.290  0.00  0.00    -0.292 OA
BRANCH  13  15
ATOM     15  C   UNK     1       7.752  -3.795  24.664  0.00  0.00    +0.019 A 
ATOM     16  C   UNK     1       7.577  -4.429  23.424  0.00  0.00    +0.032 A 
ATOM     17  C   UNK     1       6.582  -5.399  23.261  0.00  0.00    +0.060 A 
ATOM     18 CL   UNK     1       6.431  -6.140  21.707  0.00  0.00    -0.082 Cl
ATOM     19  C   UNK     1       5.754  -5.739  24.334  0.00  0.00    +0.059 A 
ATOM     20 CL   UNK     1       4.515  -6.937  24.212  0.00  0.00    -0.082 Cl
ATOM     21  C   UNK     1       5.920  -5.102  25.566  0.00  0.00    +0.022 A 
ATOM     22  C   UNK     1       6.914  -4.132  25.732  0.00  0.00    +0.013 A 
ENDBRANCH  13  15
ENDBRANCH  12  13
ENDBRANCH   1  12
TORSDOF 9
ENDMDL
MODEL 8
REMARK VINA RESULT:      -5.5      4.859      7.644
REMARK  Name = 
REMARK  9 active torsions:
REMARK  status: ('A' for Active; 'I' for Inactive)
REMARK    1  A    between atoms: C_2  and  N_3
REMARK    2  A    between atoms: C_2  and  C_4
REMARK    3  A    between atoms: C_2  and  C_18
REMARK    4  A    between atoms: C_4  and  S_5
REMARK    5  A    between atoms: S_5  and  C_6
REMARK    6  A    between atoms: C_6  and  C_7
REMARK    7  A    between atoms: C_7  and  C_8
REMARK    8  A    between atoms: C_8  and  C_10
REMARK    9  A    between atoms: C_18  and  O_19
REMARK                            x       y       z     vdW  Elec       q    Type
REMARK                         _______ _______ _______ _____ _____    ______ ____
ROOT
ATOM      1  C   UNK     1      10.217  -1.775  22.800  0.00  0.00    +0.077 C 
ENDROOT
BRANCH   1   2
ATOM      2  S   UNK     1       9.454  -0.541  21.689  0.00  0.00    -0.158 S 
BRANCH   2   3
ATOM      3  C   UNK     1       8.513   0.450  22.906  0.00  0.00    +0.099 C 
BRANCH   3   4
ATOM      4  C   UNK     1       8.858   1.944  22.984  0.00  0.00    +0.170 C 
BRANCH   4   5
ATOM      5  N   UNK     1       8.688   2.591  21.660  0.00  0.00    -0.318 NA
ATOM      6  H   UNK     1       7.720   2.531  21.345  0.00  0.00    +0.119 HD
ATOM      7  H   UNK     1       9.045   3.537  21.588  0.00  0.00    +0.119 HD
ENDBRANCH   4   5
BRANCH   4   8
ATOM      8  C   UNK     1      10.273   2.168  23.542  0.00  0.00    +0.323 C 
ATOM      9  O   UNK     1      10.797   1.454  24.385  0.00  0.00    -0.249 OA
BRANCH   8  10
ATOM     10  O   UNK     1      10.914   3.240  23.018  0.00  0.00    -0.480 OA
ATOM     11  H   UNK     1      11.833   3.304  23.328  0.00  0.00    +0.295 HD
ENDBRANCH   8  10
ENDBRANCH   4   8
ENDBRANCH   3   4
ENDBRANCH   2   3
ENDBRANCH   1   2
BRANCH   1  12
ATOM     12  C   UNK     1       9.274  -2.062  23.957  0.00  0.00    +0.090 C 
BRANCH  12  13
ATOM     13  C   UNK     1       9.268  -3.539  24.302  0.00  0.00    +0.164 C 
ATOM     14  O   UNK     1      10.284  -4.137  24.656  0.00  0.00    -0.292 OA
BRANCH  13  15
ATOM     15  C   UNK     1       7.974  -4.284  24.221  0.00  0.00    +0.019 A 
ATOM     16  C   UNK     1       7.532  -4.725  22.964  0.00  0.00    +0.032 A 
ATOM     17  C   UNK     1       6.339  -5.448  22.847  0.00  0.00    +0.060 A 
ATOM     18 CL   UNK     1       5.864  -5.961  21.267  0.00  0.00    -0.082 Cl
ATOM     19  C   UNK     1       5.580  -5.732  23.985  0.00  0.00    +0.059 A 
ATOM     20 CL   UNK     1       4.106  -6.632  23.921  0.00  0.00    -0.082 Cl
ATOM     21  C   UNK     1       6.013  -5.286  25.236  0.00  0.00    +0.022 A 
ATOM     22  C   UNK     1       7.204  -4.563  25.356  0.00  0.00    +0.013 A 
ENDBRANCH  13  15
ENDBRANCH  12  13
ENDBRANCH   1  12
TORSDOF 9
ENDMDL
MODEL 9
REMARK VINA RESULT:      -5.4      1.495      2.285
REMARK  Name = 
REMARK  9 active torsions:
REMARK  status: ('A' for Active; 'I' for Inactive)
REMARK    1  A    between atoms: C_2  and  N_3
REMARK    2  A    between atoms: C_2  and  C_4
REMARK    3  A    between atoms: C_2  and  C_18
REMARK    4  A    between atoms: C_4  and  S_5
REMARK    5  A    between atoms: S_5  and  C_6
REMARK    6  A    between atoms: C_6  and  C_7
REMARK    7  A    between atoms: C_7  and  C_8
REMARK    8  A    between atoms: C_8  and  C_10
REMARK    9  A    between atoms: C_18  and  O_19
REMARK                            x       y       z     vdW  Elec       q    Type
REMARK                         _______ _______ _______ _____ _____    ______ ____
ROOT
ATOM      1  C   UNK     1       6.232  -4.448  23.380  0.00  0.00    +0.077 C 
ENDROOT
BRANCH   1   2
ATOM      2  S   UNK     1       5.384  -3.244  24.463  0.00  0.00    -0.158 S 
BRANCH   2   3
ATOM      3  C   UNK     1       5.249  -4.230  25.998  0.00  0.00    +0.099 C 
BRANCH   3   4
ATOM      4  C   UNK     1       6.130  -5.484  26.086  0.00  0.00    +0.170 C 
BRANCH   4   5
ATOM      5  N   UNK     1       5.298  -6.696  26.283  0.00  0.00    -0.318 NA
ATOM      6  H   UNK     1       5.703  -7.306  26.993  0.00  0.00    +0.119 HD
ATOM      7  H   UNK     1       4.315  -6.526  26.456  0.00  0.00    +0.119 HD
ENDBRANCH   4   5
BRANCH   4   8
ATOM      8  C   UNK     1       7.196  -5.348  27.185  0.00  0.00    +0.323 C 
ATOM      9  O   UNK     1       7.292  -6.102  28.142  0.00  0.00    -0.249 OA
BRANCH   8  10
ATOM     10  O   UNK     1       8.044  -4.306  27.011  0.00  0.00    -0.480 OA
ATOM     11  H   UNK     1       8.389  -3.972  27.855  0.00  0.00    +0.295 HD
ENDBRANCH   8  10
ENDBRANCH   4   8
ENDBRANCH   3   4
ENDBRANCH   2   3
ENDBRANCH   1   2
BRANCH   1  12
ATOM     12  C   UNK     1       7.367  -3.752  22.646  0.00  0.00    +0.090 C 
BRANCH  12  13
ATOM     13  C   UNK     1       8.503  -3.416  23.594  0.00  0.00    +0.164 C 
ATOM     14  O   UNK     1       9.073  -4.271  24.270  0.00  0.00    -0.292 OA
BRANCH  13  15
ATOM     15  C   UNK     1       8.950  -1.992  23.693  0.00  0.00    +0.019 A 
ATOM     16  C   UNK     1       8.756  -1.150  22.586  0.00  0.00    +0.032 A 
ATOM     17  C   UNK     1       9.136   0.196  22.646  0.00  0.00    +0.060 A 
ATOM     18 CL   UNK     1       8.860   1.170  21.246  0.00  0.00    -0.082 Cl
ATOM     19  C   UNK     1       9.715   0.707  23.811  0.00  0.00    +0.059 A 
ATOM     20 CL   UNK     1      10.194   2.360  23.964  0.00  0.00    -0.082 Cl
ATOM     21  C   UNK     1       9.917  -0.131  24.910  0.00  0.00    +0.022 A 
ATOM     22  C   UNK     1       9.539  -1.476  24.853  0.00  0.00    +0.013 A 
ENDBRANCH  13  15
ENDBRANCH  12  13
ENDBRANCH   1  12
TORSDOF 9
ENDMDL
