MODEL 1
REMARK VINA RESULT:      -6.0      0.000      0.000
REMARK  Name = 
REMARK  8 active torsions:
REMARK  status: ('A' for Active; 'I' for Inactive)
REMARK    1  A    between atoms: C_1  and  N_2
REMARK    2  A    between atoms: N_9  and  C_10
REMARK    3  A    between atoms: C_10  and  C_11
REMARK    4  A    between atoms: C_11  and  C_12
REMARK    5  A    between atoms: C_12  and  C_13
REMARK    6  A    between atoms: C_13  and  C_14
REMARK    7  A    between atoms: C_14  and  C_15
REMARK    8  A    between atoms: N_19  and  C_20
REMARK                            x       y       z     vdW  Elec       q    Type
REMARK                         _______ _______ _______ _____ _____    ______ ____
ROOT
ATOM      1  C   UNL     1       6.119  -6.145  28.713  0.00  0.00    +0.150 C 
ATOM      2  N   UNL     1       5.686  -6.134  27.338  0.00  0.00    -0.328 N 
ATOM      3  C   UNL     1       6.370  -5.636  26.266  0.00  0.00    +0.151 A 
ATOM      4  C   UNL     1       7.636  -4.995  26.159  0.00  0.00    +0.282 A 
ATOM      5  N   UNL     1       7.975  -4.663  24.840  0.00  0.00    -0.259 N 
ATOM      6  C   UNL     1       7.192  -4.967  23.702  0.00  0.00    +0.333 A 
ATOM      7  N   UNL     1       5.942  -5.546  23.919  0.00  0.00    -0.280 N 
ATOM      8  C   UNL     1       5.056  -5.832  22.805  0.00  0.00    +0.155 C 
ATOM      9  O   UNL     1       7.600  -4.728  22.562  0.00  0.00    -0.246 OA
ATOM     10  O   UNL     1       8.346  -4.775  27.136  0.00  0.00    -0.265 OA
ATOM     11  C   UNL     1       5.567  -5.884  25.196  0.00  0.00    +0.168 A 
ATOM     12  N   UNL     1       4.406  -6.497  25.557  0.00  0.00    -0.218 NA
ATOM     13  C   UNL     1       4.506  -6.642  26.863  0.00  0.00    +0.202 A 
ENDROOT
BRANCH   5  14
ATOM     14  C   UNL     1       9.281  -4.038  24.610  0.00  0.00    +0.130 C 
BRANCH  14  15
ATOM     15  C   UNL     1       9.193  -2.513  24.448  0.00  0.00    +0.022 C 
BRANCH  15  16
ATOM     16  C   UNL     1      10.017  -2.007  23.260  0.00  0.00    +0.009 C 
BRANCH  16  17
ATOM     17  C   UNL     1      10.220  -0.495  23.354  0.00  0.00    +0.074 C 
BRANCH  17  18
ATOM     18  C   UNL     1       9.819   0.243  22.089  0.00  0.00    +0.130 C 
ATOM     19  O   UNL     1       9.352  -0.327  21.104  0.00  0.00    -0.298 OA
ATOM     20  C   UNL     1      10.022   1.739  22.090  0.00  0.00    +0.086 C 
ENDBRANCH  17  18
ENDBRANCH  16  17
ENDBRANCH  15  16
ENDBRANCH  14  15
ENDBRANCH   5  14
TORSDOF 5
ENDMDL
MODEL 2
REMARK VINA RESULT:      -5.9      2.007      3.382
REMARK  Name = 
REMARK  8 active torsions:
REMARK  status: ('A' for Active; 'I' for Inactive)
REMARK    1  A    between atoms: C_1  and  N_2
REMARK    2  A    between atoms: N_9  and  C_10
REMARK    3  A    between atoms: C_10  and  C_11
REMARK    4  A    between atoms: C_11  and  C_12
REMARK    5  A    between atoms: C_12  and  C_13
REMARK    6  A    between atoms: C_13  and  C_14
REMARK    7  A    between atoms: C_14  and  C_15
REMARK    8  A    between atoms: N_19  and  C_20
REMARK                            x       y       z     vdW  Elec       q    Type
REMARK                         _______ _______ _______ _____ _____    ______ ____
ROOT
ATOM      1  C   UNL     1       3.867  -4.421  24.294  0.00  0.00    +0.150 C 
ATOM      2  N   UNL     1       5.189  -4.657  24.816  0.00  0.00    -0.328 N 
ATOM      3  C   UNL     1       6.365  -4.159  24.332  0.00  0.00    +0.151 A 
ATOM      4  C   UNL     1       6.656  -3.315  23.224  0.00  0.00    +0.282 A 
ATOM      5  N   UNL     1       8.021  -3.018  23.101  0.00  0.00    -0.259 N 
ATOM      6  C   UNL     1       9.026  -3.449  23.998  0.00  0.00    +0.333 A 
ATOM      7  N   UNL     1       8.646  -4.318  25.020  0.00  0.00    -0.280 N 
ATOM      8  C   UNL     1       9.631  -4.851  25.943  0.00  0.00    +0.155 C 
ATOM      9  O   UNL     1      10.195  -3.070  23.879  0.00  0.00    -0.246 OA
ATOM     10  O   UNL     1       5.783  -2.893  22.472  0.00  0.00    -0.265 OA
ATOM     11  C   UNL     1       7.320  -4.639  25.174  0.00  0.00    +0.168 A 
ATOM     12  N   UNL     1       6.792  -5.431  26.149  0.00  0.00    -0.218 NA
ATOM     13  C   UNL     1       5.496  -5.421  25.912  0.00  0.00    +0.202 A 
ENDROOT
BRANCH   5  14
ATOM     14  C   UNL     1       8.427  -2.119  22.018  0.00  0.00    +0.130 C 
BRANCH  14  15
ATOM     15  C   UNL     1       8.540  -0.655  22.467  0.00  0.00    +0.022 C 
BRANCH  15  16
ATOM     16  C   UNL     1       9.804   0.022  21.929  0.00  0.00    +0.009 C 
BRANCH  16  17
ATOM     17  C   UNL     1       9.834   1.498  22.328  0.00  0.00    +0.074 C 
BRANCH  17  18
ATOM     18  C   UNL     1      10.046   1.713  23.815  0.00  0.00    +0.130 C 
ATOM     19  O   UNL     1       9.455   2.582  24.454  0.00  0.00    -0.298 OA
ATOM     20  C   UNL     1      11.034   0.796  24.494  0.00  0.00    +0.086 C 
ENDBRANCH  17  18
ENDBRANCH  16  17
ENDBRANCH  15  16
ENDBRANCH  14  15
ENDBRANCH   5  14
TORSDOF 5
ENDMDL
MODEL 3
REMARK VINA RESULT:      -5.8      2.323      5.681
REMARK  Name = 
REMARK  8 active torsions:
REMARK  status: ('A' for Active; 'I' for Inactive)
REMARK    1  A    between atoms: C_1  and  N_2
REMARK    2  A    between atoms: N_9  and  C_10
REMARK    3  A    between atoms: C_10  and  C_11
REMARK    4  A    between atoms: C_11  and  C_12
REMARK    5  A    between atoms: C_12  and  C_13
REMARK    6  A    between atoms: C_13  and  C_14
REMARK    7  A    between atoms: C_14  and  C_15
REMARK    8  A    between atoms: N_19  and  C_20
REMARK                            x       y       z     vdW  Elec       q    Type
REMARK                         _______ _______ _______ _____ _____    ______ ____
ROOT
ATOM      1  C   UNL     1       7.933  -0.289  22.809  0.00  0.00    +0.150 C 
ATOM      2  N   UNL     1       8.545  -1.460  23.385  0.00  0.00    -0.328 N 
ATOM      3  C   UNL     1       7.938  -2.408  24.158  0.00  0.00    +0.151 A 
ATOM      4  C   UNL     1       6.602  -2.538  24.629  0.00  0.00    +0.282 A 
ATOM      5  N   UNL     1       6.395  -3.701  25.384  0.00  0.00    -0.259 N 
ATOM      6  C   UNL     1       7.373  -4.693  25.627  0.00  0.00    +0.333 A 
ATOM      7  N   UNL     1       8.667  -4.444  25.169  0.00  0.00    -0.280 N 
ATOM      8  C   UNL     1       9.739  -5.387  25.432  0.00  0.00    +0.155 C 
ATOM      9  O   UNL     1       7.093  -5.737  26.221  0.00  0.00    -0.246 OA
ATOM     10  O   UNL     1       5.733  -1.708  24.379  0.00  0.00    -0.265 OA
ATOM     11  C   UNL     1       8.916  -3.314  24.429  0.00  0.00    +0.168 A 
ATOM     12  N   UNL     1      10.109  -2.962  23.875  0.00  0.00    -0.218 NA
ATOM     13  C   UNL     1       9.855  -1.835  23.242  0.00  0.00    +0.202 A 
ENDROOT
BRANCH   5  14
ATOM     14  C   UNL     1       5.040  -3.958  25.882  0.00  0.00    +0.130 C 
BRANCH  14  15
ATOM     15  C   UNL     1       4.307  -5.045  25.084  0.00  0.00    +0.022 C 
BRANCH  15  16
ATOM     16  C   UNL     1       4.100  -4.651  23.619  0.00  0.00    +0.009 C 
BRANCH  16  17
ATOM     17  C   UNL     1       4.765  -5.668  22.690  0.00  0.00    +0.074 C 
BRANCH  17  18
ATOM     18  C   UNL     1       5.888  -5.076  21.858  0.00  0.00    +0.130 C 
ATOM     19  O   UNL     1       5.727  -4.113  21.110  0.00  0.00    -0.298 OA
ATOM     20  C   UNL     1       7.241  -5.732  21.991  0.00  0.00    +0.086 C 
ENDBRANCH  17  18
ENDBRANCH  16  17
ENDBRANCH  15  16
ENDBRANCH  14  15
ENDBRANCH   5  14
TORSDOF 5
ENDMDL
MODEL 4
REMARK VINA RESULT:      -5.7      1.391      3.100
REMARK  Name = 
REMARK  8 active torsions:
REMARK  status: ('A' for Active; 'I' for Inactive)
REMARK    1  A    between atoms: C_1  and  N_2
REMARK    2  A    between atoms: N_9  and  C_10
REMARK    3  A    between atoms: C_10  and  C_11
REMARK    4  A    between atoms: C_11  and  C_12
REMARK    5  A    between atoms: C_12  and  C_13
REMARK    6  A    between atoms: C_13  and  C_14
REMARK    7  A    between atoms: C_14  and  C_15
REMARK    8  A    between atoms: N_19  and  C_20
REMARK                            x       y       z     vdW  Elec       q    Type
REMARK                         _______ _______ _______ _____ _____    ______ ____
ROOT
ATOM      1  C   UNL     1       5.026  -5.816  22.175  0.00  0.00    +0.150 C 
ATOM      2  N   UNL     1       5.337  -5.899  23.580  0.00  0.00    -0.328 N 
ATOM      3  C   UNL     1       6.392  -5.317  24.223  0.00  0.00    +0.151 A 
ATOM      4  C   UNL     1       7.464  -4.508  23.753  0.00  0.00    +0.282 A 
ATOM      5  N   UNL     1       8.328  -4.091  24.775  0.00  0.00    -0.259 N 
ATOM      6  C   UNL     1       8.155  -4.378  26.148  0.00  0.00    +0.333 A 
ATOM      7  N   UNL     1       7.104  -5.226  26.500  0.00  0.00    -0.280 N 
ATOM      8  C   UNL     1       6.899  -5.615  27.883  0.00  0.00    +0.155 C 
ATOM      9  O   UNL     1       8.905  -3.897  27.003  0.00  0.00    -0.246 OA
ATOM     10  O   UNL     1       7.593  -4.210  22.569  0.00  0.00    -0.265 OA
ATOM     11  C   UNL     1       6.236  -5.662  25.530  0.00  0.00    +0.168 A 
ATOM     12  N   UNL     1       5.142  -6.448  25.725  0.00  0.00    -0.218 NA
ATOM     13  C   UNL     1       4.611  -6.573  24.526  0.00  0.00    +0.202 A 
ENDROOT
BRANCH   5  14
ATOM     14  C   UNL     1       9.444  -3.214  24.407  0.00  0.00    +0.130 C 
BRANCH  14  15
ATOM     15  C   UNL     1       9.085  -1.723  24.492  0.00  0.00    +0.022 C 
BRANCH  15  16
ATOM     16  C   UNL     1      10.160  -0.830  23.865  0.00  0.00    +0.009 C 
BRANCH  16  17
ATOM     17  C   UNL     1      10.093   0.581  24.447  0.00  0.00    +0.074 C 
BRANCH  17  18
ATOM     18  C   UNL     1      10.302   1.669  23.409  0.00  0.00    +0.130 C 
ATOM     19  O   UNL     1      10.766   2.774  23.686  0.00  0.00    -0.298 OA
ATOM     20  C   UNL     1       9.910   1.331  21.991  0.00  0.00    +0.086 C 
ENDBRANCH  17  18
ENDBRANCH  16  17
ENDBRANCH  15  16
ENDBRANCH  14  15
ENDBRANCH   5  14
TORSDOF 5
ENDMDL
MODEL 5
REMARK VINA RESULT:      -5.6      2.819      4.155
REMARK  Name = 
REMARK  8 active torsions:
REMARK  status: ('A' for Active; 'I' for Inactive)
REMARK    1  A    between atoms: C_1  and  N_2
REMARK    2  A    between atoms: N_9  and  C_10
REMARK    3  A    between atoms: C_10  and  C_11
REMARK    4  A    between atoms: C_11  and  C_12
REMARK    5  A    between atoms: C_12  and  C_13
REMARK    6  A    between atoms: C_13  and  C_14
REMARK    7  A    between atoms: C_14  and  C_15
REMARK    8  A    between atoms: N_19  and  C_20
REMARK                            x       y       z     vdW  Elec       q    Type
REMARK                         _______ _______ _______ _____ _____    ______ ____
ROOT
ATOM      1  C   UNL     1       9.832  -5.111  25.631  0.00  0.00    +0.150 C 
ATOM      2  N   UNL     1       8.727  -4.195  25.766  0.00  0.00    -0.328 N 
ATOM      3  C   UNL     1       8.472  -3.096  24.995  0.00  0.00    +0.151 A 
ATOM      4  C   UNL     1       9.169  -2.525  23.894  0.00  0.00    +0.282 A 
ATOM      5  N   UNL     1       8.531  -1.392  23.367  0.00  0.00    -0.259 N 
ATOM      6  C   UNL     1       7.296  -0.875  23.821  0.00  0.00    +0.333 A 
ATOM      7  N   UNL     1       6.722  -1.474  24.943  0.00  0.00    -0.280 N 
ATOM      8  C   UNL     1       5.486  -0.960  25.504  0.00  0.00    +0.155 C 
ATOM      9  O   UNL     1       6.748   0.070  23.247  0.00  0.00    -0.246 OA
ATOM     10  O   UNL     1      10.214  -2.999  23.459  0.00  0.00    -0.265 OA
ATOM     11  C   UNL     1       7.315  -2.582  25.494  0.00  0.00    +0.168 A 
ATOM     12  N   UNL     1       6.849  -3.301  26.553  0.00  0.00    -0.218 NA
ATOM     13  C   UNL     1       7.723  -4.278  26.694  0.00  0.00    +0.202 A 
ENDROOT
BRANCH   5  14
ATOM     14  C   UNL     1       9.141  -0.749  22.200  0.00  0.00    +0.130 C 
BRANCH  14  15
ATOM     15  C   UNL     1      10.209   0.287  22.577  0.00  0.00    +0.022 C 
BRANCH  15  16
ATOM     16  C   UNL     1       9.902   1.674  22.005  0.00  0.00    +0.009 C 
BRANCH  16  17
ATOM     17  C   UNL     1       9.284   2.572  23.076  0.00  0.00    +0.074 C 
BRANCH  17  18
ATOM     18  C   UNL     1      10.206   3.691  23.526  0.00  0.00    +0.130 C 
ATOM     19  O   UNL     1      11.427   3.642  23.393  0.00  0.00    -0.298 OA
ATOM     20  C   UNL     1       9.547   4.894  24.156  0.00  0.00    +0.086 C 
ENDBRANCH  17  18
ENDBRANCH  16  17
ENDBRANCH  15  16
ENDBRANCH  14  15
ENDBRANCH   5  14
TORSDOF 5
ENDMDL
MODEL 6
REMARK VINA RESULT:      -5.5      3.289      6.431
REMARK  Name = 
REMARK  8 active torsions:
REMARK  status: ('A' for Active; 'I' for Inactive)
REMARK    1  A    between atoms: C_1  and  N_2
REMARK    2  A    between atoms: N_9  and  C_10
REMARK    3  A    between atoms: C_10  and  C_11
REMARK    4  A    between atoms: C_11  and  C_12
REMARK    5  A    between atoms: C_12  and  C_13
REMARK    6  A    between atoms: C_13  and  C_14
REMARK    7  A    between atoms: C_14  and  C_15
REMARK    8  A    between atoms: N_19  and  C_20
REMARK                            x       y       z     vdW  Elec       q    Type
REMARK                         _______ _______ _______ _____ _____    ______ ____
ROOT
ATOM      1  C   UNL     1       7.087   1.140  27.151  0.00  0.00    +0.150 C 
ATOM      2  N   UNL     1       7.777   1.317  25.898  0.00  0.00    -0.328 N 
ATOM      3  C   UNL     1       8.353   0.344  25.133  0.00  0.00    +0.151 A 
ATOM      4  C   UNL     1       8.468  -1.063  25.311  0.00  0.00    +0.282 A 
ATOM      5  N   UNL     1       9.123  -1.701  24.248  0.00  0.00    -0.259 N 
ATOM      6  C   UNL     1       9.586  -1.056  23.079  0.00  0.00    +0.333 A 
ATOM      7  N   UNL     1       9.475   0.334  23.026  0.00  0.00    -0.280 N 
ATOM      8  C   UNL     1       9.982   1.073  21.884  0.00  0.00    +0.155 C 
ATOM      9  O   UNL     1      10.069  -1.697  22.142  0.00  0.00    -0.246 OA
ATOM     10  O   UNL     1       8.022  -1.639  26.299  0.00  0.00    -0.265 OA
ATOM     11  C   UNL     1       8.844   1.000  24.047  0.00  0.00    +0.168 A 
ATOM     12  N   UNL     1       8.617   2.341  24.113  0.00  0.00    -0.218 NA
ATOM     13  C   UNL     1       7.963   2.506  25.244  0.00  0.00    +0.202 A 
ENDROOT
BRANCH   5  14
ATOM     14  C   UNL     1       9.257  -3.160  24.309  0.00  0.00    +0.130 C 
BRANCH  14  15
ATOM     15  C   UNL     1       8.164  -3.893  23.518  0.00  0.00    +0.022 C 
BRANCH  15  16
ATOM     16  C   UNL     1       7.040  -4.409  24.423  0.00  0.00    +0.009 C 
BRANCH  16  17
ATOM     17  C   UNL     1       6.245  -5.507  23.718  0.00  0.00    +0.074 C 
BRANCH  17  18
ATOM     18  C   UNL     1       5.645  -5.060  22.397  0.00  0.00    +0.130 C 
ATOM     19  O   UNL     1       4.793  -4.177  22.317  0.00  0.00    -0.298 OA
ATOM     20  C   UNL     1       6.150  -5.759  21.158  0.00  0.00    +0.086 C 
ENDBRANCH  17  18
ENDBRANCH  16  17
ENDBRANCH  15  16
ENDBRANCH  14  15
ENDBRANCH   5  14
TORSDOF 5
ENDMDL
MODEL 7
REMARK VINA RESULT:      -5.5      1.914      2.305
REMARK  Name = 
REMARK  8 active torsions:
REMARK  status: ('A' for Active; 'I' for Inactive)
REMARK    1  A    between atoms: C_1  and  N_2
REMARK    2  A    between atoms: N_9  and  C_10
REMARK    3  A    between atoms: C_10  and  C_11
REMARK    4  A    between atoms: C_11  and  C_12
REMARK    5  A    between atoms: C_12  and  C_13
REMARK    6  A    between atoms: C_13  and  C_14
REMARK    7  A    between atoms: C_14  and  C_15
REMARK    8  A    between atoms: N_19  and  C_20
REMARK                            x       y       z     vdW  Elec       q    Type
REMARK                         _______ _______ _______ _____ _____    ______ ____
ROOT
ATOM      1  C   UNL     1       6.593  -5.635  27.216  0.00  0.00    +0.150 C 
ATOM      2  N   UNL     1       6.227  -5.188  25.896  0.00  0.00    -0.328 N 
ATOM      3  C   UNL     1       6.926  -4.329  25.096  0.00  0.00    +0.151 A 
ATOM      4  C   UNL     1       8.150  -3.631  25.292  0.00  0.00    +0.282 A 
ATOM      5  N   UNL     1       8.530  -2.864  24.181  0.00  0.00    -0.259 N 
ATOM      6  C   UNL     1       7.824  -2.808  22.957  0.00  0.00    +0.333 A 
ATOM      7  N   UNL     1       6.606  -3.484  22.887  0.00  0.00    -0.280 N 
ATOM      8  C   UNL     1       5.794  -3.423  21.685  0.00  0.00    +0.155 C 
ATOM      9  O   UNL     1       8.268  -2.184  21.990  0.00  0.00    -0.246 OA
ATOM     10  O   UNL     1       8.797  -3.716  26.331  0.00  0.00    -0.265 OA
ATOM     11  C   UNL     1       6.193  -4.244  23.953  0.00  0.00    +0.168 A 
ATOM     12  N   UNL     1       5.059  -4.995  24.014  0.00  0.00    -0.218 NA
ATOM     13  C   UNL     1       5.106  -5.562  25.202  0.00  0.00    +0.202 A 
ENDROOT
BRANCH   5  14
ATOM     14  C   UNL     1       9.801  -2.138  24.258  0.00  0.00    +0.130 C 
BRANCH  14  15
ATOM     15  C   UNL     1       9.644  -0.717  24.819  0.00  0.00    +0.022 C 
BRANCH  15  16
ATOM     16  C   UNL     1      10.453   0.313  24.024  0.00  0.00    +0.009 C 
BRANCH  16  17
ATOM     17  C   UNL     1      10.015   1.733  24.385  0.00  0.00    +0.074 C 
BRANCH  17  18
ATOM     18  C   UNL     1       9.471   2.512  23.201  0.00  0.00    +0.130 C 
ATOM     19  O   UNL     1       9.184   3.706  23.264  0.00  0.00    -0.298 OA
ATOM     20  C   UNL     1       9.292   1.743  21.914  0.00  0.00    +0.086 C 
ENDBRANCH  17  18
ENDBRANCH  16  17
ENDBRANCH  15  16
ENDBRANCH  14  15
ENDBRANCH   5  14
TORSDOF 5
ENDMDL
MODEL 8
REMARK VINA RESULT:      -5.5      3.031      7.028
REMARK  Name = 
REMARK  8 active torsions:
REMARK  status: ('A' for Active; 'I' for Inactive)
REMARK    1  A    between atoms: C_1  and  N_2
REMARK    2  A    between atoms: N_9  and  C_10
REMARK    3  A    between atoms: C_10  and  C_11
REMARK    4  A    between atoms: C_11  and  C_12
REMARK    5  A    between atoms: C_12  and  C_13
REMARK    6  A    between atoms: C_13  and  C_14
REMARK    7  A    between atoms: C_14  and  C_15
REMARK    8  A    between atoms: N_19  and  C_20
REMARK                            x       y       z     vdW  Elec       q    Type
REMARK                         _______ _______ _______ _____ _____    ______ ____
ROOT
ATOM      1  C   UNL     1      10.101   1.796  22.163  0.00  0.00    +0.150 C 
ATOM      2  N   UNL     1       9.411   1.565  23.408  0.00  0.00    -0.328 N 
ATOM      3  C   UNL     1       9.068   0.357  23.945  0.00  0.00    +0.151 A 
ATOM      4  C   UNL     1       9.251  -0.976  23.483  0.00  0.00    +0.282 A 
ATOM      5  N   UNL     1       8.764  -1.940  24.377  0.00  0.00    -0.259 N 
ATOM      6  C   UNL     1       8.196  -1.658  25.640  0.00  0.00    +0.333 A 
ATOM      7  N   UNL     1       8.010  -0.317  25.976  0.00  0.00    -0.280 N 
ATOM      8  C   UNL     1       7.378   0.051  27.230  0.00  0.00    +0.155 C 
ATOM      9  O   UNL     1       7.876  -2.564  26.415  0.00  0.00    -0.246 OA
ATOM     10  O   UNL     1       9.791  -1.232  22.411  0.00  0.00    -0.265 OA
ATOM     11  C   UNL     1       8.467   0.660  25.128  0.00  0.00    +0.168 A 
ATOM     12  N   UNL     1       8.404   2.004  25.341  0.00  0.00    -0.218 NA
ATOM     13  C   UNL     1       8.989   2.530  24.283  0.00  0.00    +0.202 A 
ENDROOT
BRANCH   5  14
ATOM     14  C   UNL     1       8.941  -3.351  24.019  0.00  0.00    +0.130 C 
BRANCH  14  15
ATOM     15  C   UNL     1       7.806  -3.890  23.137  0.00  0.00    +0.022 C 
BRANCH  15  16
ATOM     16  C   UNL     1       7.641  -5.408  23.268  0.00  0.00    +0.009 C 
BRANCH  16  17
ATOM     17  C   UNL     1       6.529  -5.908  22.345  0.00  0.00    +0.074 C 
BRANCH  17  18
ATOM     18  C   UNL     1       5.141  -5.754  22.939  0.00  0.00    +0.130 C 
ATOM     19  O   UNL     1       4.323  -4.937  22.518  0.00  0.00    -0.298 OA
ATOM     20  C   UNL     1       4.798  -6.664  24.093  0.00  0.00    +0.086 C 
ENDBRANCH  17  18
ENDBRANCH  16  17
ENDBRANCH  15  16
ENDBRANCH  14  15
ENDBRANCH   5  14
TORSDOF 5
ENDMDL
MODEL 9
REMARK VINA RESULT:      -5.4      3.374      6.745
REMARK  Name = 
REMARK  8 active torsions:
REMARK  status: ('A' for Active; 'I' for Inactive)
REMARK    1  A    between atoms: C_1  and  N_2
REMARK    2  A    between atoms: N_9  and  C_10
REMARK    3  A    between atoms: C_10  and  C_11
REMARK    4  A    between atoms: C_11  and  C_12
REMARK    5  A    between atoms: C_12  and  C_13
REMARK    6  A    between atoms: C_13  and  C_14
REMARK    7  A    between atoms: C_14  and  C_15
REMARK    8  A    between atoms: N_19  and  C_20
REMARK                            x       y       z     vdW  Elec       q    Type
REMARK                         _______ _______ _______ _____ _____    ______ ____
ROOT
ATOM      1  C   UNL     1       6.728   1.154  27.111  0.00  0.00    +0.150 C 
ATOM      2  N   UNL     1       7.545   1.483  25.971  0.00  0.00    -0.328 N 
ATOM      3  C   UNL     1       8.241   0.613  25.181  0.00  0.00    +0.151 A 
ATOM      4  C   UNL     1       8.391  -0.801  25.226  0.00  0.00    +0.282 A 
ATOM      5  N   UNL     1       9.186  -1.304  24.186  0.00  0.00    -0.259 N 
ATOM      6  C   UNL     1       9.750  -0.525  23.150  0.00  0.00    +0.333 A 
ATOM      7  N   UNL     1       9.591   0.858  23.227  0.00  0.00    -0.280 N 
ATOM      8  C   UNL     1      10.193   1.729  22.233  0.00  0.00    +0.155 C 
ATOM      9  O   UNL     1      10.360  -1.050  22.214  0.00  0.00    -0.246 OA
ATOM     10  O   UNL     1       7.861  -1.491  26.092  0.00  0.00    -0.265 OA
ATOM     11  C   UNL     1       8.825   1.394  24.232  0.00  0.00    +0.168 A 
ATOM     12  N   UNL     1       8.539   2.714  24.408  0.00  0.00    -0.218 NA
ATOM     13  C   UNL     1       7.756   2.740  25.468  0.00  0.00    +0.202 A 
ENDROOT
BRANCH   5  14
ATOM     14  C   UNL     1       9.370  -2.756  24.112  0.00  0.00    +0.130 C 
BRANCH  14  15
ATOM     15  C   UNL     1       8.293  -3.453  23.266  0.00  0.00    +0.022 C 
BRANCH  15  16
ATOM     16  C   UNL     1       7.931  -4.837  23.813  0.00  0.00    +0.009 C 
BRANCH  16  17
ATOM     17  C   UNL     1       8.569  -5.057  25.184  0.00  0.00    +0.074 C 
BRANCH  17  18
ATOM     18  C   UNL     1       7.553  -5.268  26.292  0.00  0.00    +0.130 C 
ATOM     19  O   UNL     1       7.831  -5.147  27.484  0.00  0.00    -0.298 OA
ATOM     20  C   UNL     1       6.154  -5.639  25.861  0.00  0.00    +0.086 C 
ENDBRANCH  17  18
ENDBRANCH  16  17
ENDBRANCH  15  16
ENDBRANCH  14  15
ENDBRANCH   5  14
TORSDOF 5
ENDMDL
