MODEL 1
REMARK VINA RESULT:      -6.2      0.000      0.000
REMARK  Name = 
REMARK  3 active torsions:
REMARK  status: ('A' for Active; 'I' for Inactive)
REMARK    1  A    between atoms: N_2  and  C_4
REMARK    2  A    between atoms: C_7  and  C_9
REMARK    3  A    between atoms: N_10  and  N_11
REMARK                            x       y       z     vdW  Elec       q    Type
REMARK                         _______ _______ _______ _____ _____    ______ ____
ROOT
ATOM      1  C   UNL     1       8.852  -5.093  25.287  0.00  0.00    +0.177 C 
ATOM      2  N   UNL     1       8.738  -5.032  23.995  0.00  0.00    -0.180 NA
ENDROOT
BRANCH   2   3
ATOM      3  N   UNL     1       7.527  -4.931  23.360  0.00  0.00    -0.168 N 
ATOM      4  C   UNL     1       7.208  -3.664  22.818  0.00  0.00    +0.328 C 
ATOM      5  O   UNL     1       7.633  -2.572  23.167  0.00  0.00    -0.250 OA
ATOM      6  N   UNL     1       6.404  -3.850  21.740  0.00  0.00    -0.237 N 
ATOM      7  H   UNL     1       6.146  -3.098  21.124  0.00  0.00    +0.159 HD
ATOM      8  C   UNL     1       6.382  -5.156  21.391  0.00  0.00    +0.240 C 
ATOM      9  O   UNL     1       5.934  -5.600  20.344  0.00  0.00    -0.274 OA
ATOM     10  C   UNL     1       7.002  -5.977  22.500  0.00  0.00    +0.232 C 
ENDBRANCH   2   3
BRANCH   1  13
ATOM     11  C   UNL     1       6.612  -5.541  28.007  0.00  0.00    +0.438 A 
ATOM     12  O   UNL     1       7.683  -5.920  27.260  0.00  0.00    -0.399 OA
ATOM     13  C   UNL     1       7.871  -4.937  26.327  0.00  0.00    +0.154 A 
ATOM     14  C   UNL     1       6.933  -3.932  26.515  0.00  0.00    +0.058 A 
ATOM     15  C   UNL     1       6.120  -4.321  27.611  0.00  0.00    +0.132 A 
BRANCH  11  17
ATOM     16  O   UNL     1       6.304  -6.083  30.186  0.00  0.00    -0.573 OA
ATOM     17  N   UNL     1       6.176  -6.459  29.013  0.00  0.00    +0.119 N 
ATOM     18  O   UNL     1       5.718  -7.545  28.641  0.00  0.00    +0.045 OA
ENDBRANCH  11  17
ENDBRANCH   1  13
TORSDOF 3
ENDMDL
MODEL 2
REMARK VINA RESULT:      -5.9      4.495      6.925
REMARK  Name = 
REMARK  3 active torsions:
REMARK  status: ('A' for Active; 'I' for Inactive)
REMARK    1  A    between atoms: N_2  and  C_4
REMARK    2  A    between atoms: C_7  and  C_9
REMARK    3  A    between atoms: N_10  and  N_11
REMARK                            x       y       z     vdW  Elec       q    Type
REMARK                         _______ _______ _______ _____ _____    ______ ____
ROOT
ATOM      1  C   UNL     1       6.847  -0.071  23.869  0.00  0.00    +0.177 C 
ATOM      2  N   UNL     1       7.406   1.092  23.726  0.00  0.00    -0.180 NA
ENDROOT
BRANCH   2   3
ATOM      3  N   UNL     1       8.702   1.246  23.307  0.00  0.00    -0.168 N 
ATOM      4  C   UNL     1       8.883   1.662  21.968  0.00  0.00    +0.328 C 
ATOM      5  O   UNL     1       8.115   1.515  21.028  0.00  0.00    -0.250 OA
ATOM      6  N   UNL     1      10.039   2.370  21.892  0.00  0.00    -0.237 N 
ATOM      7  H   UNL     1      10.314   2.867  21.061  0.00  0.00    +0.159 HD
ATOM      8  C   UNL     1      10.494   2.659  23.131  0.00  0.00    +0.240 C 
ATOM      9  O   UNL     1      11.379   3.462  23.389  0.00  0.00    -0.274 OA
ATOM     10  C   UNL     1       9.733   1.834  24.144  0.00  0.00    +0.232 C 
ENDBRANCH   2   3
BRANCH   1  13
ATOM     11  C   UNL     1       7.245  -3.360  22.587  0.00  0.00    +0.438 A 
ATOM     12  O   UNL     1       6.656  -2.134  22.584  0.00  0.00    -0.399 OA
ATOM     13  C   UNL     1       7.311  -1.388  23.526  0.00  0.00    +0.154 A 
ATOM     14  C   UNL     1       8.325  -2.145  24.094  0.00  0.00    +0.058 A 
ATOM     15  C   UNL     1       8.287  -3.423  23.479  0.00  0.00    +0.132 A 
BRANCH  11  17
ATOM     16  O   UNL     1       5.673  -3.997  21.083  0.00  0.00    -0.573 OA
ATOM     17  N   UNL     1       6.675  -4.346  21.723  0.00  0.00    +0.119 N 
ATOM     18  O   UNL     1       7.212  -5.458  21.686  0.00  0.00    +0.045 OA
ENDBRANCH  11  17
ENDBRANCH   1  13
TORSDOF 3
ENDMDL
MODEL 3
REMARK VINA RESULT:      -5.8      3.324      6.460
REMARK  Name = 
REMARK  3 active torsions:
REMARK  status: ('A' for Active; 'I' for Inactive)
REMARK    1  A    between atoms: N_2  and  C_4
REMARK    2  A    between atoms: C_7  and  C_9
REMARK    3  A    between atoms: N_10  and  N_11
REMARK                            x       y       z     vdW  Elec       q    Type
REMARK                         _______ _______ _______ _____ _____    ______ ____
ROOT
ATOM      1  C   UNL     1      10.067  -2.477  23.869  0.00  0.00    +0.177 C 
ATOM      2  N   UNL     1       9.683  -3.658  24.245  0.00  0.00    -0.180 NA
ENDROOT
BRANCH   2   3
ATOM      3  N   UNL     1       8.601  -3.861  25.063  0.00  0.00    -0.168 N 
ATOM      4  C   UNL     1       7.558  -4.657  24.537  0.00  0.00    +0.328 C 
ATOM      5  O   UNL     1       7.282  -4.848  23.361  0.00  0.00    -0.250 OA
ATOM      6  N   UNL     1       6.940  -5.289  25.567  0.00  0.00    -0.237 N 
ATOM      7  H   UNL     1       6.243  -6.001  25.424  0.00  0.00    +0.159 HD
ATOM      8  C   UNL     1       7.666  -5.160  26.700  0.00  0.00    +0.240 C 
ATOM      9  O   UNL     1       7.489  -5.795  27.730  0.00  0.00    -0.274 OA
ATOM     10  C   UNL     1       8.732  -4.107  26.489  0.00  0.00    +0.232 C 
ENDBRANCH   2   3
BRANCH   1  13
ATOM     11  C   UNL     1       8.331   0.598  23.486  0.00  0.00    +0.438 A 
ATOM     12  O   UNL     1       8.627  -0.670  23.093  0.00  0.00    -0.399 OA
ATOM     13  C   UNL     1       9.459  -1.186  24.049  0.00  0.00    +0.154 A 
ATOM     14  C   UNL     1       9.656  -0.246  25.049  0.00  0.00    +0.058 A 
ATOM     15  C   UNL     1       8.917   0.910  24.688  0.00  0.00    +0.132 A 
BRANCH  11  17
ATOM     16  O   UNL     1       8.084   1.795  21.577  0.00  0.00    -0.573 OA
ATOM     17  N   UNL     1       7.522   1.371  22.596  0.00  0.00    +0.119 N 
ATOM     18  O   UNL     1       6.342   1.562  22.910  0.00  0.00    +0.045 OA
ENDBRANCH  11  17
ENDBRANCH   1  13
TORSDOF 3
ENDMDL
MODEL 4
REMARK VINA RESULT:      -5.8      4.631      6.431
REMARK  Name = 
REMARK  3 active torsions:
REMARK  status: ('A' for Active; 'I' for Inactive)
REMARK    1  A    between atoms: N_2  and  C_4
REMARK    2  A    between atoms: C_7  and  C_9
REMARK    3  A    between atoms: N_10  and  N_11
REMARK                            x       y       z     vdW  Elec       q    Type
REMARK                         _______ _______ _______ _____ _____    ______ ____
ROOT
ATOM      1  C   UNL     1       6.908  -0.030  23.919  0.00  0.00    +0.177 C 
ATOM      2  N   UNL     1       7.448   1.125  23.672  0.00  0.00    -0.180 NA
ENDROOT
BRANCH   2   3
ATOM      3  N   UNL     1       8.765   1.268  23.320  0.00  0.00    -0.168 N 
ATOM      4  C   UNL     1       9.021   1.579  21.964  0.00  0.00    +0.328 C 
ATOM      5  O   UNL     1       8.313   1.343  20.996  0.00  0.00    -0.250 OA
ATOM      6  N   UNL     1      10.170   2.299  21.900  0.00  0.00    -0.237 N 
ATOM      7  H   UNL     1      10.488   2.733  21.050  0.00  0.00    +0.159 HD
ATOM      8  C   UNL     1      10.545   2.696  23.137  0.00  0.00    +0.240 C 
ATOM      9  O   UNL     1      11.402   3.533  23.381  0.00  0.00    -0.274 OA
ATOM     10  C   UNL     1       9.735   1.941  24.167  0.00  0.00    +0.232 C 
ENDBRANCH   2   3
BRANCH   1  13
ATOM     11  C   UNL     1       8.490  -3.182  24.343  0.00  0.00    +0.438 A 
ATOM     12  O   UNL     1       7.978  -2.021  24.832  0.00  0.00    -0.399 OA
ATOM     13  C   UNL     1       7.425  -1.363  23.767  0.00  0.00    +0.154 A 
ATOM     14  C   UNL     1       7.570  -2.131  22.621  0.00  0.00    +0.058 A 
ATOM     15  C   UNL     1       8.255  -3.316  22.996  0.00  0.00    +0.132 A 
BRANCH  11  17
ATOM     16  O   UNL     1      10.070  -4.743  24.793  0.00  0.00    -0.573 OA
ATOM     17  N   UNL     1       9.190  -4.013  25.271  0.00  0.00    +0.119 N 
ATOM     18  O   UNL     1       8.865  -3.948  26.462  0.00  0.00    +0.045 OA
ENDBRANCH  11  17
ENDBRANCH   1  13
TORSDOF 3
ENDMDL
MODEL 5
REMARK VINA RESULT:      -5.8      4.680      6.422
REMARK  Name = 
REMARK  3 active torsions:
REMARK  status: ('A' for Active; 'I' for Inactive)
REMARK    1  A    between atoms: N_2  and  C_4
REMARK    2  A    between atoms: C_7  and  C_9
REMARK    3  A    between atoms: N_10  and  N_11
REMARK                            x       y       z     vdW  Elec       q    Type
REMARK                         _______ _______ _______ _____ _____    ______ ____
ROOT
ATOM      1  C   UNL     1       9.852  -0.963  21.800  0.00  0.00    +0.177 C 
ATOM      2  N   UNL     1       9.981   0.328  21.871  0.00  0.00    -0.180 NA
ENDROOT
BRANCH   2   3
ATOM      3  N   UNL     1       9.284   1.095  22.769  0.00  0.00    -0.168 N 
ATOM      4  C   UNL     1       9.997   1.528  23.910  0.00  0.00    +0.328 C 
ATOM      5  O   UNL     1      10.979   1.008  24.421  0.00  0.00    -0.250 OA
ATOM      6  N   UNL     1       9.474   2.712  24.318  0.00  0.00    -0.237 N 
ATOM      7  H   UNL     1       9.898   3.268  25.042  0.00  0.00    +0.159 HD
ATOM      8  C   UNL     1       8.640   3.206  23.376  0.00  0.00    +0.240 C 
ATOM      9  O   UNL     1       8.195   4.344  23.352  0.00  0.00    -0.274 OA
ATOM     10  C   UNL     1       8.348   2.127  22.357  0.00  0.00    +0.232 C 
ENDBRANCH   2   3
BRANCH   1  13
ATOM     11  C   UNL     1       8.883  -3.394  24.202  0.00  0.00    +0.438 A 
ATOM     12  O   UNL     1       9.766  -2.490  23.698  0.00  0.00    -0.399 OA
ATOM     13  C   UNL     1       9.140  -1.886  22.642  0.00  0.00    +0.154 A 
ATOM     14  C   UNL     1       7.857  -2.397  22.509  0.00  0.00    +0.058 A 
ATOM     15  C   UNL     1       7.687  -3.370  23.526  0.00  0.00    +0.132 A 
BRANCH  11  17
ATOM     16  O   UNL     1      10.249  -5.012  25.010  0.00  0.00    -0.573 OA
ATOM     17  N   UNL     1       9.347  -4.207  25.282  0.00  0.00    +0.119 N 
ATOM     18  O   UNL     1       8.814  -4.054  26.387  0.00  0.00    +0.045 OA
ENDBRANCH  11  17
ENDBRANCH   1  13
TORSDOF 3
ENDMDL
MODEL 6
REMARK VINA RESULT:      -5.7      2.929      4.088
REMARK  Name = 
REMARK  3 active torsions:
REMARK  status: ('A' for Active; 'I' for Inactive)
REMARK    1  A    between atoms: N_2  and  C_4
REMARK    2  A    between atoms: C_7  and  C_9
REMARK    3  A    between atoms: N_10  and  N_11
REMARK                            x       y       z     vdW  Elec       q    Type
REMARK                         _______ _______ _______ _____ _____    ______ ____
ROOT
ATOM      1  C   UNL     1       7.811  -3.788  22.947  0.00  0.00    +0.177 C 
ATOM      2  N   UNL     1       8.000  -2.642  22.365  0.00  0.00    -0.180 NA
ENDROOT
BRANCH   2   3
ATOM      3  N   UNL     1       8.485  -1.544  23.027  0.00  0.00    -0.168 N 
ATOM      4  C   UNL     1       9.813  -1.165  22.722  0.00  0.00    +0.328 C 
ATOM      5  O   UNL     1      10.713  -1.871  22.290  0.00  0.00    -0.250 OA
ATOM      6  N   UNL     1       9.924   0.177  22.891  0.00  0.00    -0.237 N 
ATOM      7  H   UNL     1      10.747   0.689  22.618  0.00  0.00    +0.159 HD
ATOM      8  C   UNL     1       8.702   0.735  23.037  0.00  0.00    +0.240 C 
ATOM      9  O   UNL     1       8.459   1.932  22.984  0.00  0.00    -0.274 OA
ATOM     10  C   UNL     1       7.683  -0.359  23.273  0.00  0.00    +0.232 C 
ENDBRANCH   2   3
BRANCH   1  13
ATOM     11  C   UNL     1       7.812  -4.812  26.348  0.00  0.00    +0.438 A 
ATOM     12  O   UNL     1       7.178  -4.557  25.172  0.00  0.00    -0.399 OA
ATOM     13  C   UNL     1       8.156  -4.241  24.267  0.00  0.00    +0.154 A 
ATOM     14  C   UNL     1       9.399  -4.329  24.877  0.00  0.00    +0.058 A 
ATOM     15  C   UNL     1       9.176  -4.707  26.226  0.00  0.00    +0.132 A 
BRANCH  11  17
ATOM     16  O   UNL     1       6.067  -4.291  27.696  0.00  0.00    -0.573 OA
ATOM     17  N   UNL     1       6.979  -5.098  27.474  0.00  0.00    +0.119 N 
ATOM     18  O   UNL     1       7.234  -6.111  28.136  0.00  0.00    +0.045 OA
ENDBRANCH  11  17
ENDBRANCH   1  13
TORSDOF 3
ENDMDL
MODEL 7
REMARK VINA RESULT:      -5.7      4.365      7.282
REMARK  Name = 
REMARK  3 active torsions:
REMARK  status: ('A' for Active; 'I' for Inactive)
REMARK    1  A    between atoms: N_2  and  C_4
REMARK    2  A    between atoms: C_7  and  C_9
REMARK    3  A    between atoms: N_10  and  N_11
REMARK                            x       y       z     vdW  Elec       q    Type
REMARK                         _______ _______ _______ _____ _____    ______ ____
ROOT
ATOM      1  C   UNL     1      10.561  -1.877  22.994  0.00  0.00    +0.177 C 
ATOM      2  N   UNL     1       9.885  -2.762  23.662  0.00  0.00    -0.180 NA
ENDROOT
BRANCH   2   3
ATOM      3  N   UNL     1       8.699  -2.473  24.287  0.00  0.00    -0.168 N 
ATOM      4  C   UNL     1       7.530  -2.994  23.686  0.00  0.00    +0.328 C 
ATOM      5  O   UNL     1       7.365  -3.300  22.514  0.00  0.00    -0.250 OA
ATOM      6  N   UNL     1       6.608  -3.209  24.658  0.00  0.00    -0.237 N 
ATOM      7  H   UNL     1       5.740  -3.688  24.482  0.00  0.00    +0.159 HD
ATOM      8  C   UNL     1       7.180  -3.105  25.878  0.00  0.00    +0.240 C 
ATOM      9  O   UNL     1       6.669  -3.459  26.931  0.00  0.00    -0.274 OA
ATOM     10  C   UNL     1       8.552  -2.485  25.732  0.00  0.00    +0.232 C 
ENDBRANCH   2   3
BRANCH   1  13
ATOM     11  C   UNL     1      10.037   1.634  22.877  0.00  0.00    +0.438 A 
ATOM     12  O   UNL     1      10.601   0.523  23.422  0.00  0.00    -0.399 OA
ATOM     13  C   UNL     1      10.236  -0.526  22.622  0.00  0.00    +0.154 A 
ATOM     14  C   UNL     1       9.467  -0.059  21.566  0.00  0.00    +0.058 A 
ATOM     15  C   UNL     1       9.345   1.344  21.727  0.00  0.00    +0.132 A 
BRANCH  11  17
ATOM     16  O   UNL     1      11.275   3.471  23.358  0.00  0.00    -0.573 OA
ATOM     17  N   UNL     1      10.223   2.860  23.590  0.00  0.00    +0.119 N 
ATOM     18  O   UNL     1       9.336   3.208  24.377  0.00  0.00    +0.045 OA
ENDBRANCH  11  17
ENDBRANCH   1  13
TORSDOF 3
ENDMDL
MODEL 8
REMARK VINA RESULT:      -5.7      3.420      4.812
REMARK  Name = 
REMARK  3 active torsions:
REMARK  status: ('A' for Active; 'I' for Inactive)
REMARK    1  A    between atoms: N_2  and  C_4
REMARK    2  A    between atoms: C_7  and  C_9
REMARK    3  A    between atoms: N_10  and  N_11
REMARK                            x       y       z     vdW  Elec       q    Type
REMARK                         _______ _______ _______ _____ _____    ______ ____
ROOT
ATOM      1  C   UNL     1       9.319  -4.347  24.574  0.00  0.00    +0.177 C 
ATOM      2  N   UNL     1       9.928  -3.243  24.261  0.00  0.00    -0.180 NA
ENDROOT
BRANCH   2   3
ATOM      3  N   UNL     1       9.286  -2.182  23.677  0.00  0.00    -0.168 N 
ATOM      4  C   UNL     1       9.130  -1.026  24.476  0.00  0.00    +0.328 C 
ATOM      5  O   UNL     1       9.106  -0.958  25.696  0.00  0.00    -0.250 OA
ATOM      6  N   UNL     1       9.113   0.059  23.660  0.00  0.00    -0.237 N 
ATOM      7  H   UNL     1       9.131   1.001  24.015  0.00  0.00    +0.159 HD
ATOM      8  C   UNL     1       9.499  -0.286  22.412  0.00  0.00    +0.240 C 
ATOM      9  O   UNL     1       9.796   0.497  21.521  0.00  0.00    -0.274 OA
ATOM     10  C   UNL     1       9.510  -1.794  22.295  0.00  0.00    +0.232 C 
ENDBRANCH   2   3
BRANCH   1  13
ATOM     11  C   UNL     1       5.962  -5.059  23.657  0.00  0.00    +0.438 A 
ATOM     12  O   UNL     1       7.277  -4.883  23.356  0.00  0.00    -0.399 OA
ATOM     13  C   UNL     1       7.924  -4.694  24.547  0.00  0.00    +0.154 A 
ATOM     14  C   UNL     1       7.013  -4.781  25.589  0.00  0.00    +0.058 A 
ATOM     15  C   UNL     1       5.740  -5.025  25.012  0.00  0.00    +0.132 A 
BRANCH  11  17
ATOM     16  O   UNL     1       5.573  -5.584  21.487  0.00  0.00    -0.573 OA
ATOM     17  N   UNL     1       5.067  -5.204  22.552  0.00  0.00    +0.119 N 
ATOM     18  O   UNL     1       3.875  -4.937  22.739  0.00  0.00    +0.045 OA
ENDBRANCH  11  17
ENDBRANCH   1  13
TORSDOF 3
ENDMDL
MODEL 9
REMARK VINA RESULT:      -5.6      3.494      6.208
REMARK  Name = 
REMARK  3 active torsions:
REMARK  status: ('A' for Active; 'I' for Inactive)
REMARK    1  A    between atoms: N_2  and  C_4
REMARK    2  A    between atoms: C_7  and  C_9
REMARK    3  A    between atoms: N_10  and  N_11
REMARK                            x       y       z     vdW  Elec       q    Type
REMARK                         _______ _______ _______ _____ _____    ______ ____
ROOT
ATOM      1  C   UNL     1       9.958  -2.435  23.808  0.00  0.00    +0.177 C 
ATOM      2  N   UNL     1       9.732  -3.597  24.343  0.00  0.00    -0.180 NA
ENDROOT
BRANCH   2   3
ATOM      3  N   UNL     1       8.607  -3.869  25.077  0.00  0.00    -0.168 N 
ATOM      4  C   UNL     1       7.683  -4.770  24.499  0.00  0.00    +0.328 C 
ATOM      5  O   UNL     1       7.525  -5.020  23.312  0.00  0.00    -0.250 OA
ATOM      6  N   UNL     1       7.037  -5.422  25.498  0.00  0.00    -0.237 N 
ATOM      7  H   UNL     1       6.418  -6.197  25.326  0.00  0.00    +0.159 HD
ATOM      8  C   UNL     1       7.651  -5.195  26.681  0.00  0.00    +0.240 C 
ATOM      9  O   UNL     1       7.443  -5.811  27.716  0.00  0.00    -0.274 OA
ATOM     10  C   UNL     1       8.637  -4.059  26.517  0.00  0.00    +0.232 C 
ENDBRANCH   2   3
BRANCH   1  13
ATOM     11  C   UNL     1       8.385   0.722  24.227  0.00  0.00    +0.438 A 
ATOM     12  O   UNL     1       9.417  -0.141  24.430  0.00  0.00    -0.399 OA
ATOM     13  C   UNL     1       9.126  -1.267  23.707  0.00  0.00    +0.154 A 
ATOM     14  C   UNL     1       7.927  -1.089  23.034  0.00  0.00    +0.058 A 
ATOM     15  C   UNL     1       7.449   0.205  23.365  0.00  0.00    +0.132 A 
BRANCH  11  17
ATOM     16  O   UNL     1       9.245   2.795  24.538  0.00  0.00    -0.573 OA
ATOM     17  N   UNL     1       8.432   1.956  24.947  0.00  0.00    +0.119 N 
ATOM     18  O   UNL     1       7.675   2.086  25.915  0.00  0.00    +0.045 OA
ENDBRANCH  11  17
ENDBRANCH   1  13
TORSDOF 3
ENDMDL
