MODEL 1
REMARK VINA RESULT:      -6.9      0.000      0.000
REMARK  Name = 
REMARK  9 active torsions:
REMARK  status: ('A' for Active; 'I' for Inactive)
REMARK    1  A    between atoms: N_1  and  C_2
REMARK    2  A    between atoms: N_6  and  C_7
REMARK    3  A    between atoms: C_10  and  C_12
REMARK    4  A    between atoms: C_12  and  O_13
REMARK    5  A    between atoms: O_13  and  P_14
REMARK    6  A    between atoms: P_14  and  O_15
REMARK    7  A    between atoms: P_14  and  O_16
REMARK    8  A    between atoms: C_18  and  O_20
REMARK    9  A    between atoms: C_21  and  O_23
REMARK                            x       y       z     vdW  Elec       q    Type
REMARK                         _______ _______ _______ _____ _____    ______ ____
ROOT
ATOM      1  C   UNL     1       4.948  -4.543  22.662  0.00  0.00    +0.253 C 
ATOM      2  C   UNL     1       5.059  -6.067  22.607  0.00  0.00    +0.195 C 
ATOM      3  C   UNL     1       4.848  -6.508  24.055  0.00  0.00    +0.178 C 
ATOM      4  C   UNL     1       4.112  -5.329  24.704  0.00  0.00    +0.178 C 
ATOM      5  O   UNL     1       3.961  -4.311  23.688  0.00  0.00    -0.346 OA
ENDROOT
BRANCH   1  12
ATOM      6  C   UNL     1       9.224  -2.718  24.149  0.00  0.00    +0.150 A 
ATOM      7  N   UNL     1       9.742  -3.881  24.607  0.00  0.00    -0.185 NA
ATOM      8  C   UNL     1       9.001  -5.001  24.485  0.00  0.00    +0.313 A 
ATOM      9  F   UNL     1       9.558  -6.127  24.956  0.00  0.00    -0.161 F 
ATOM     10  N   UNL     1       7.750  -5.130  23.977  0.00  0.00    -0.182 NA
ATOM     11  C   UNL     1       7.284  -3.954  23.532  0.00  0.00    +0.170 A 
ATOM     12  N   UNL     1       6.069  -3.679  22.962  0.00  0.00    -0.285 N 
ATOM     13  C   UNL     1       6.022  -2.317  22.757  0.00  0.00    +0.203 A 
ATOM     14  N   UNL     1       7.140  -1.722  23.111  0.00  0.00    -0.231 NA
ATOM     15  C   UNL     1       7.937  -2.729  23.597  0.00  0.00    +0.147 A 
BRANCH   6  16
ATOM     16  N   UNL     1       9.982  -1.565  24.276  0.00  0.00    -0.341 N 
ATOM     17  H   UNL     1       9.810  -1.058  25.133  0.00  0.00    +0.144 HD
ATOM     18  H   UNL     1      10.060  -1.025  23.418  0.00  0.00    +0.144 HD
ENDBRANCH   6  16
ENDBRANCH   1  12
BRANCH   2  19
ATOM     19  O   UNL     1       6.203  -6.611  21.975  0.00  0.00    -0.385 OA
ATOM     20  H   UNL     1       5.997  -7.525  21.686  0.00  0.00    +0.210 HD
ENDBRANCH   2  19
BRANCH   3  21
ATOM     21  O   UNL     1       4.062  -7.701  24.139  0.00  0.00    -0.386 OA
ATOM     22  H   UNL     1       3.479  -7.762  23.361  0.00  0.00    +0.210 HD
ENDBRANCH   3  21
BRANCH   4  23
ATOM     23  C   UNL     1       4.921  -4.786  25.888  0.00  0.00    +0.206 C 
BRANCH  23  24
ATOM     24  O   UNL     1       5.901  -5.723  26.326  0.00  0.00    -0.284 OA
BRANCH  24  25
ATOM     25  P   UNL     1       6.022  -5.690  28.052  0.00  0.00    +0.472 P 
ATOM     26  O   UNL     1       6.129  -5.662  29.596  0.00  0.00    -0.228 OA
BRANCH  25  27
ATOM     27  O   UNL     1       7.601  -6.056  27.808  0.00  0.00    -0.303 OA
ATOM     28  H   UNL     1       8.021  -5.455  27.170  0.00  0.00    +0.222 HD
ENDBRANCH  25  27
BRANCH  25  29
ATOM     29  O   UNL     1       5.516  -7.240  27.942  0.00  0.00    -0.303 OA
ATOM     30  H   UNL     1       4.601  -7.257  28.274  0.00  0.00    +0.222 HD
ENDBRANCH  25  29
ENDBRANCH  24  25
ENDBRANCH  23  24
ENDBRANCH   4  23
TORSDOF 9
ENDMDL
MODEL 2
REMARK VINA RESULT:      -6.9      3.517      5.470
REMARK  Name = 
REMARK  9 active torsions:
REMARK  status: ('A' for Active; 'I' for Inactive)
REMARK    1  A    between atoms: N_1  and  C_2
REMARK    2  A    between atoms: N_6  and  C_7
REMARK    3  A    between atoms: C_10  and  C_12
REMARK    4  A    between atoms: C_12  and  O_13
REMARK    5  A    between atoms: O_13  and  P_14
REMARK    6  A    between atoms: P_14  and  O_15
REMARK    7  A    between atoms: P_14  and  O_16
REMARK    8  A    between atoms: C_18  and  O_20
REMARK    9  A    between atoms: C_21  and  O_23
REMARK                            x       y       z     vdW  Elec       q    Type
REMARK                         _______ _______ _______ _____ _____    ______ ____
ROOT
ATOM      1  C   UNL     1       7.946  -0.971  22.369  0.00  0.00    +0.253 C 
ATOM      2  C   UNL     1       8.401   0.379  22.926  0.00  0.00    +0.195 C 
ATOM      3  C   UNL     1       9.447   0.015  23.979  0.00  0.00    +0.178 C 
ATOM      4  C   UNL     1       9.905  -1.394  23.581  0.00  0.00    +0.178 C 
ATOM      5  O   UNL     1       9.142  -1.776  22.414  0.00  0.00    -0.346 OA
ENDROOT
BRANCH   1  12
ATOM      6  C   UNL     1       4.648  -4.416  23.405  0.00  0.00    +0.150 A 
ATOM      7  N   UNL     1       4.959  -5.245  22.383  0.00  0.00    -0.185 NA
ATOM      8  C   UNL     1       5.961  -4.889  21.554  0.00  0.00    +0.313 A 
ATOM      9  F   UNL     1       6.228  -5.743  20.555  0.00  0.00    -0.161 F 
ATOM     10  N   UNL     1       6.711  -3.759  21.580  0.00  0.00    -0.182 NA
ATOM     11  C   UNL     1       6.371  -2.975  22.613  0.00  0.00    +0.170 A 
ATOM     12  N   UNL     1       6.893  -1.759  22.969  0.00  0.00    -0.285 N 
ATOM     13  C   UNL     1       6.156  -1.306  24.042  0.00  0.00    +0.203 A 
ATOM     14  N   UNL     1       5.242  -2.172  24.419  0.00  0.00    -0.231 NA
ATOM     15  C   UNL     1       5.362  -3.219  23.537  0.00  0.00    +0.147 A 
BRANCH   6  16
ATOM     16  N   UNL     1       3.617  -4.779  24.257  0.00  0.00    -0.341 N 
ATOM     17  H   UNL     1       3.920  -4.975  25.200  0.00  0.00    +0.144 HD
ATOM     18  H   UNL     1       2.938  -5.411  23.840  0.00  0.00    +0.144 HD
ENDBRANCH   6  16
ENDBRANCH   1  12
BRANCH   2  19
ATOM     19  O   UNL     1       7.394   1.271  23.365  0.00  0.00    -0.385 OA
ATOM     20  H   UNL     1       7.164   1.054  24.293  0.00  0.00    +0.210 HD
ENDBRANCH   2  19
BRANCH   3  21
ATOM     21  O   UNL     1      10.551   0.926  23.970  0.00  0.00    -0.386 OA
ATOM     22  H   UNL     1      11.365   0.447  23.735  0.00  0.00    +0.210 HD
ENDBRANCH   3  21
BRANCH   4  23
ATOM     23  C   UNL     1       9.653  -2.378  24.730  0.00  0.00    +0.206 C 
BRANCH  23  24
ATOM     24  O   UNL     1       9.878  -3.725  24.324  0.00  0.00    -0.284 OA
BRANCH  24  25
ATOM     25  P   UNL     1       8.898  -4.799  25.263  0.00  0.00    +0.472 P 
ATOM     26  O   UNL     1       8.020  -5.759  26.102  0.00  0.00    -0.228 OA
BRANCH  25  27
ATOM     27  O   UNL     1      10.253  -5.713  25.375  0.00  0.00    -0.303 OA
ATOM     28  H   UNL     1      11.027  -5.268  24.990  0.00  0.00    +0.222 HD
ENDBRANCH  25  27
BRANCH  25  29
ATOM     29  O   UNL     1       8.464  -5.396  23.805  0.00  0.00    -0.303 OA
ATOM     30  H   UNL     1       8.833  -4.791  23.137  0.00  0.00    +0.222 HD
ENDBRANCH  25  29
ENDBRANCH  24  25
ENDBRANCH  23  24
ENDBRANCH   4  23
TORSDOF 9
ENDMDL
MODEL 3
REMARK VINA RESULT:      -6.8      2.968      5.436
REMARK  Name = 
REMARK  9 active torsions:
REMARK  status: ('A' for Active; 'I' for Inactive)
REMARK    1  A    between atoms: N_1  and  C_2
REMARK    2  A    between atoms: N_6  and  C_7
REMARK    3  A    between atoms: C_10  and  C_12
REMARK    4  A    between atoms: C_12  and  O_13
REMARK    5  A    between atoms: O_13  and  P_14
REMARK    6  A    between atoms: P_14  and  O_15
REMARK    7  A    between atoms: P_14  and  O_16
REMARK    8  A    between atoms: C_18  and  O_20
REMARK    9  A    between atoms: C_21  and  O_23
REMARK                            x       y       z     vdW  Elec       q    Type
REMARK                         _______ _______ _______ _____ _____    ______ ____
ROOT
ATOM      1  C   UNL     1       7.724  -3.374  26.408  0.00  0.00    +0.253 C 
ATOM      2  C   UNL     1       8.431  -4.711  26.631  0.00  0.00    +0.195 C 
ATOM      3  C   UNL     1       8.836  -5.158  25.227  0.00  0.00    +0.178 C 
ATOM      4  C   UNL     1       8.839  -3.862  24.406  0.00  0.00    +0.178 C 
ATOM      5  O   UNL     1       8.437  -2.795  25.296  0.00  0.00    -0.346 OA
ENDROOT
BRANCH   1  12
ATOM      6  C   UNL     1       3.086  -4.284  25.190  0.00  0.00    +0.150 A 
ATOM      7  N   UNL     1       3.219  -5.623  25.051  0.00  0.00    -0.185 NA
ATOM      8  C   UNL     1       4.426  -6.173  25.291  0.00  0.00    +0.313 A 
ATOM      9  F   UNL     1       4.506  -7.503  25.136  0.00  0.00    -0.161 F 
ATOM     10  N   UNL     1       5.580  -5.549  25.636  0.00  0.00    -0.182 NA
ATOM     11  C   UNL     1       5.395  -4.227  25.768  0.00  0.00    +0.170 A 
ATOM     12  N   UNL     1       6.315  -3.267  26.098  0.00  0.00    -0.285 N 
ATOM     13  C   UNL     1       5.671  -2.052  26.018  0.00  0.00    +0.203 A 
ATOM     14  N   UNL     1       4.399  -2.182  25.710  0.00  0.00    -0.231 NA
ATOM     15  C   UNL     1       4.212  -3.533  25.550  0.00  0.00    +0.147 A 
BRANCH   6  16
ATOM     16  N   UNL     1       1.847  -3.716  24.941  0.00  0.00    -0.341 N 
ATOM     17  H   UNL     1       1.850  -2.706  24.971  0.00  0.00    +0.144 HD
ATOM     18  H   UNL     1       1.072  -4.196  25.393  0.00  0.00    +0.144 HD
ENDBRANCH   6  16
ENDBRANCH   1  12
BRANCH   2  19
ATOM     19  O   UNL     1       7.748  -5.686  27.397  0.00  0.00    -0.385 OA
ATOM     20  H   UNL     1       7.098  -6.140  26.820  0.00  0.00    +0.210 HD
ENDBRANCH   2  19
BRANCH   3  21
ATOM     21  O   UNL     1      10.132  -5.766  25.214  0.00  0.00    -0.386 OA
ATOM     22  H   UNL     1      10.506  -5.715  24.317  0.00  0.00    +0.210 HD
ENDBRANCH   3  21
BRANCH   4  23
ATOM     23  C   UNL     1       7.859  -3.976  23.232  0.00  0.00    +0.206 C 
BRANCH  23  24
ATOM     24  O   UNL     1       7.419  -5.319  23.046  0.00  0.00    -0.284 OA
BRANCH  24  25
ATOM     25  P   UNL     1       6.636  -5.478  21.511  0.00  0.00    +0.472 P 
ATOM     26  O   UNL     1       5.935  -5.621  20.138  0.00  0.00    -0.228 OA
BRANCH  25  27
ATOM     27  O   UNL     1       5.448  -4.568  22.181  0.00  0.00    -0.303 OA
ATOM     28  H   UNL     1       4.648  -4.548  21.629  0.00  0.00    +0.222 HD
ENDBRANCH  25  27
BRANCH  25  29
ATOM     29  O   UNL     1       6.084  -6.883  22.135  0.00  0.00    -0.303 OA
ATOM     30  H   UNL     1       5.601  -7.334  21.419  0.00  0.00    +0.222 HD
ENDBRANCH  25  29
ENDBRANCH  24  25
ENDBRANCH  23  24
ENDBRANCH   4  23
TORSDOF 9
ENDMDL
MODEL 4
REMARK VINA RESULT:      -6.7      1.826      2.475
REMARK  Name = 
REMARK  9 active torsions:
REMARK  status: ('A' for Active; 'I' for Inactive)
REMARK    1  A    between atoms: N_1  and  C_2
REMARK    2  A    between atoms: N_6  and  C_7
REMARK    3  A    between atoms: C_10  and  C_12
REMARK    4  A    between atoms: C_12  and  O_13
REMARK    5  A    between atoms: O_13  and  P_14
REMARK    6  A    between atoms: P_14  and  O_15
REMARK    7  A    between atoms: P_14  and  O_16
REMARK    8  A    between atoms: C_18  and  O_20
REMARK    9  A    between atoms: C_21  and  O_23
REMARK                            x       y       z     vdW  Elec       q    Type
REMARK                         _______ _______ _______ _____ _____    ______ ____
ROOT
ATOM      1  C   UNL     1       5.471  -4.529  22.812  0.00  0.00    +0.253 C 
ATOM      2  C   UNL     1       5.323  -6.039  22.628  0.00  0.00    +0.195 C 
ATOM      3  C   UNL     1       4.982  -6.554  24.026  0.00  0.00    +0.178 C 
ATOM      4  C   UNL     1       4.433  -5.322  24.756  0.00  0.00    +0.178 C 
ATOM      5  O   UNL     1       4.497  -4.214  23.829  0.00  0.00    -0.346 OA
ENDROOT
BRANCH   1  12
ATOM      6  C   UNL     1       9.019  -1.334  23.826  0.00  0.00    +0.150 A 
ATOM      7  N   UNL     1       8.327  -0.219  23.497  0.00  0.00    -0.185 NA
ATOM      8  C   UNL     1       7.052  -0.359  23.081  0.00  0.00    +0.313 A 
ATOM      9  F   UNL     1       6.410   0.776  22.764  0.00  0.00    -0.161 F 
ATOM     10  N   UNL     1       6.346  -1.504  22.908  0.00  0.00    -0.182 NA
ATOM     11  C   UNL     1       7.070  -2.578  23.254  0.00  0.00    +0.170 A 
ATOM     12  N   UNL     1       6.709  -3.899  23.214  0.00  0.00    -0.285 N 
ATOM     13  C   UNL     1       7.820  -4.628  23.578  0.00  0.00    +0.203 A 
ATOM     14  N   UNL     1       8.840  -3.859  23.892  0.00  0.00    -0.231 NA
ATOM     15  C   UNL     1       8.388  -2.577  23.694  0.00  0.00    +0.147 A 
BRANCH   6  16
ATOM     16  N   UNL     1      10.330  -1.193  24.252  0.00  0.00    -0.341 N 
ATOM     17  H   UNL     1      10.991  -1.077  23.497  0.00  0.00    +0.144 HD
ATOM     18  H   UNL     1      10.589  -1.819  25.011  0.00  0.00    +0.144 HD
ENDBRANCH   6  16
ENDBRANCH   1  12
BRANCH   2  19
ATOM     19  O   UNL     1       6.381  -6.720  21.980  0.00  0.00    -0.385 OA
ATOM     20  H   UNL     1       6.729  -7.409  22.586  0.00  0.00    +0.210 HD
ENDBRANCH   2  19
BRANCH   3  21
ATOM     21  O   UNL     1       4.002  -7.596  23.986  0.00  0.00    -0.386 OA
ATOM     22  H   UNL     1       3.152  -7.231  23.682  0.00  0.00    +0.210 HD
ENDBRANCH   3  21
BRANCH   4  23
ATOM     23  C   UNL     1       5.274  -5.025  26.003  0.00  0.00    +0.206 C 
BRANCH  23  24
ATOM     24  O   UNL     1       5.746  -6.223  26.614  0.00  0.00    -0.284 OA
BRANCH  24  25
ATOM     25  P   UNL     1       5.985  -5.969  28.309  0.00  0.00    +0.472 P 
ATOM     26  O   UNL     1       6.198  -5.742  29.826  0.00  0.00    -0.228 OA
BRANCH  25  27
ATOM     27  O   UNL     1       7.572  -6.208  27.978  0.00  0.00    -0.303 OA
ATOM     28  H   UNL     1       8.107  -5.418  28.162  0.00  0.00    +0.222 HD
ENDBRANCH  25  27
BRANCH  25  29
ATOM     29  O   UNL     1       5.638  -7.561  28.418  0.00  0.00    -0.303 OA
ATOM     30  H   UNL     1       5.043  -7.664  29.183  0.00  0.00    +0.222 HD
ENDBRANCH  25  29
ENDBRANCH  24  25
ENDBRANCH  23  24
ENDBRANCH   4  23
TORSDOF 9
ENDMDL
MODEL 5
REMARK VINA RESULT:      -6.7      4.334      6.208
REMARK  Name = 
REMARK  9 active torsions:
REMARK  status: ('A' for Active; 'I' for Inactive)
REMARK    1  A    between atoms: N_1  and  C_2
REMARK    2  A    between atoms: N_6  and  C_7
REMARK    3  A    between atoms: C_10  and  C_12
REMARK    4  A    between atoms: C_12  and  O_13
REMARK    5  A    between atoms: O_13  and  P_14
REMARK    6  A    between atoms: P_14  and  O_15
REMARK    7  A    between atoms: P_14  and  O_16
REMARK    8  A    between atoms: C_18  and  O_20
REMARK    9  A    between atoms: C_21  and  O_23
REMARK                            x       y       z     vdW  Elec       q    Type
REMARK                         _______ _______ _______ _____ _____    ______ ____
ROOT
ATOM      1  C   UNL     1       9.929  -1.217  22.621  0.00  0.00    +0.253 C 
ATOM      2  C   UNL     1       9.777  -0.160  21.527  0.00  0.00    +0.195 C 
ATOM      3  C   UNL     1       9.174   1.042  22.251  0.00  0.00    +0.178 C 
ATOM      4  C   UNL     1       9.526   0.809  23.726  0.00  0.00    +0.178 C 
ATOM      5  O   UNL     1      10.245  -0.444  23.798  0.00  0.00    -0.346 OA
ENDROOT
BRANCH   1  12
ATOM      6  C   UNL     1       7.293  -4.835  24.565  0.00  0.00    +0.150 A 
ATOM      7  N   UNL     1       8.287  -5.374  25.308  0.00  0.00    -0.185 NA
ATOM      8  C   UNL     1       9.499  -4.784  25.276  0.00  0.00    +0.313 A 
ATOM      9  F   UNL     1      10.451  -5.358  26.028  0.00  0.00    -0.161 F 
ATOM     10  N   UNL     1       9.889  -3.703  24.555  0.00  0.00    -0.182 NA
ATOM     11  C   UNL     1       8.869  -3.203  23.843  0.00  0.00    +0.170 A 
ATOM     12  N   UNL     1       8.869  -2.127  22.994  0.00  0.00    -0.285 N 
ATOM     13  C   UNL     1       7.613  -2.063  22.430  0.00  0.00    +0.203 A 
ATOM     14  N   UNL     1       6.808  -2.990  22.900  0.00  0.00    -0.231 NA
ATOM     15  C   UNL     1       7.577  -3.710  23.782  0.00  0.00    +0.147 A 
BRANCH   6  16
ATOM     16  N   UNL     1       6.047  -5.442  24.594  0.00  0.00    -0.341 N 
ATOM     17  H   UNL     1       5.281  -4.789  24.686  0.00  0.00    +0.144 HD
ATOM     18  H   UNL     1       6.012  -6.289  25.155  0.00  0.00    +0.144 HD
ENDBRANCH   6  16
ENDBRANCH   1  12
BRANCH   2  19
ATOM     19  O   UNL     1       9.106  -0.545  20.342  0.00  0.00    -0.385 OA
ATOM     20  H   UNL     1       9.743  -0.519  19.597  0.00  0.00    +0.210 HD
ENDBRANCH   2  19
BRANCH   3  21
ATOM     21  O   UNL     1       9.730   2.278  21.789  0.00  0.00    -0.386 OA
ATOM     22  H   UNL     1       9.076   2.990  21.900  0.00  0.00    +0.210 HD
ENDBRANCH   3  21
BRANCH   4  23
ATOM     23  C   UNL     1       8.249   0.742  24.572  0.00  0.00    +0.206 C 
BRANCH  23  24
ATOM     24  O   UNL     1       7.122   1.244  23.859  0.00  0.00    -0.284 OA
BRANCH  24  25
ATOM     25  P   UNL     1       5.712   1.182  24.861  0.00  0.00    +0.472 P 
ATOM     26  O   UNL     1       4.450   1.126  25.757  0.00  0.00    -0.228 OA
BRANCH  25  27
ATOM     27  O   UNL     1       5.578  -0.365  24.333  0.00  0.00    -0.303 OA
ATOM     28  H   UNL     1       5.268  -0.964  25.033  0.00  0.00    +0.222 HD
ENDBRANCH  25  27
BRANCH  25  29
ATOM     29  O   UNL     1       4.970   1.824  23.555  0.00  0.00    -0.303 OA
ATOM     30  H   UNL     1       4.661   2.709  23.819  0.00  0.00    +0.222 HD
ENDBRANCH  25  29
ENDBRANCH  24  25
ENDBRANCH  23  24
ENDBRANCH   4  23
TORSDOF 9
ENDMDL
MODEL 6
REMARK VINA RESULT:      -6.7      4.593      6.589
REMARK  Name = 
REMARK  9 active torsions:
REMARK  status: ('A' for Active; 'I' for Inactive)
REMARK    1  A    between atoms: N_1  and  C_2
REMARK    2  A    between atoms: N_6  and  C_7
REMARK    3  A    between atoms: C_10  and  C_12
REMARK    4  A    between atoms: C_12  and  O_13
REMARK    5  A    between atoms: O_13  and  P_14
REMARK    6  A    between atoms: P_14  and  O_15
REMARK    7  A    between atoms: P_14  and  O_16
REMARK    8  A    between atoms: C_18  and  O_20
REMARK    9  A    between atoms: C_21  and  O_23
REMARK                            x       y       z     vdW  Elec       q    Type
REMARK                         _______ _______ _______ _____ _____    ______ ____
ROOT
ATOM      1  C   UNL     1      10.391  -0.435  23.749  0.00  0.00    +0.253 C 
ATOM      2  C   UNL     1      10.142  -0.023  22.298  0.00  0.00    +0.195 C 
ATOM      3  C   UNL     1       9.344   1.275  22.410  0.00  0.00    +0.178 C 
ATOM      4  C   UNL     1       9.659   1.789  23.821  0.00  0.00    +0.178 C 
ATOM      5  O   UNL     1      10.542   0.824  24.437  0.00  0.00    -0.346 OA
ENDROOT
BRANCH   1  12
ATOM      6  C   UNL     1       6.991  -3.620  25.204  0.00  0.00    +0.150 A 
ATOM      7  N   UNL     1       6.788  -4.197  23.997  0.00  0.00    -0.185 NA
ATOM      8  C   UNL     1       7.520  -3.764  22.951  0.00  0.00    +0.313 A 
ATOM      9  F   UNL     1       7.280  -4.365  21.777  0.00  0.00    -0.161 F 
ATOM     10  N   UNL     1       8.447  -2.772  22.927  0.00  0.00    -0.182 NA
ATOM     11  C   UNL     1       8.616  -2.238  24.145  0.00  0.00    +0.170 A 
ATOM     12  N   UNL     1       9.453  -1.220  24.520  0.00  0.00    -0.285 N 
ATOM     13  C   UNL     1       9.204  -0.968  25.852  0.00  0.00    +0.203 A 
ATOM     14  N   UNL     1       8.307  -1.788  26.355  0.00  0.00    -0.231 NA
ATOM     15  C   UNL     1       7.931  -2.586  25.302  0.00  0.00    +0.147 A 
BRANCH   6  16
ATOM     16  N   UNL     1       6.238  -4.061  26.280  0.00  0.00    -0.341 N 
ATOM     17  H   UNL     1       6.794  -4.365  27.067  0.00  0.00    +0.144 HD
ATOM     18  H   UNL     1       5.440  -4.635  26.019  0.00  0.00    +0.144 HD
ENDBRANCH   6  16
ENDBRANCH   1  12
BRANCH   2  19
ATOM     19  O   UNL     1       9.585  -0.996  21.434  0.00  0.00    -0.385 OA
ATOM     20  H   UNL     1       8.802  -1.393  21.871  0.00  0.00    +0.210 HD
ENDBRANCH   2  19
BRANCH   3  21
ATOM     21  O   UNL     1       9.743   2.233  21.424  0.00  0.00    -0.386 OA
ATOM     22  H   UNL     1       9.211   2.111  20.618  0.00  0.00    +0.210 HD
ENDBRANCH   3  21
BRANCH   4  23
ATOM     23  C   UNL     1       8.368   1.928  24.635  0.00  0.00    +0.206 C 
BRANCH  23  24
ATOM     24  O   UNL     1       7.213   1.798  23.811  0.00  0.00    -0.284 OA
BRANCH  24  25
ATOM     25  P   UNL     1       6.072   0.730  24.555  0.00  0.00    +0.472 P 
ATOM     26  O   UNL     1       5.051  -0.226  25.220  0.00  0.00    -0.228 OA
BRANCH  25  27
ATOM     27  O   UNL     1       6.277  -0.194  23.216  0.00  0.00    -0.303 OA
ATOM     28  H   UNL     1       7.173  -0.568  23.164  0.00  0.00    +0.222 HD
ENDBRANCH  25  27
BRANCH  25  29
ATOM     29  O   UNL     1       4.965   1.711  23.861  0.00  0.00    -0.303 OA
ATOM     30  H   UNL     1       4.103   1.472  24.246  0.00  0.00    +0.222 HD
ENDBRANCH  25  29
ENDBRANCH  24  25
ENDBRANCH  23  24
ENDBRANCH   4  23
TORSDOF 9
ENDMDL
MODEL 7
REMARK VINA RESULT:      -6.5      3.014      5.041
REMARK  Name = 
REMARK  9 active torsions:
REMARK  status: ('A' for Active; 'I' for Inactive)
REMARK    1  A    between atoms: N_1  and  C_2
REMARK    2  A    between atoms: N_6  and  C_7
REMARK    3  A    between atoms: C_10  and  C_12
REMARK    4  A    between atoms: C_12  and  O_13
REMARK    5  A    between atoms: O_13  and  P_14
REMARK    6  A    between atoms: P_14  and  O_15
REMARK    7  A    between atoms: P_14  and  O_16
REMARK    8  A    between atoms: C_18  and  O_20
REMARK    9  A    between atoms: C_21  and  O_23
REMARK                            x       y       z     vdW  Elec       q    Type
REMARK                         _______ _______ _______ _____ _____    ______ ____
ROOT
ATOM      1  C   UNL     1       8.124  -2.867  26.074  0.00  0.00    +0.253 C 
ATOM      2  C   UNL     1       7.018  -3.674  26.755  0.00  0.00    +0.195 C 
ATOM      3  C   UNL     1       6.819  -4.881  25.839  0.00  0.00    +0.178 C 
ATOM      4  C   UNL     1       8.131  -4.973  25.048  0.00  0.00    +0.178 C 
ATOM      5  O   UNL     1       8.968  -3.878  25.485  0.00  0.00    -0.346 OA
ENDROOT
BRANCH   1  12
ATOM      6  C   UNL     1       8.450   0.813  22.884  0.00  0.00    +0.150 A 
ATOM      7  N   UNL     1       9.719   1.171  23.184  0.00  0.00    -0.185 NA
ATOM      8  C   UNL     1      10.377   0.461  24.123  0.00  0.00    +0.313 A 
ATOM      9  F   UNL     1      11.632   0.857  24.386  0.00  0.00    -0.161 F 
ATOM     10  N   UNL     1       9.922  -0.583  24.860  0.00  0.00    -0.182 NA
ATOM     11  C   UNL     1       8.665  -0.903  24.521  0.00  0.00    +0.170 A 
ATOM     12  N   UNL     1       7.867  -1.889  25.040  0.00  0.00    -0.285 N 
ATOM     13  C   UNL     1       6.635  -1.766  24.435  0.00  0.00    +0.203 A 
ATOM     14  N   UNL     1       6.615  -0.806  23.536  0.00  0.00    -0.231 NA
ATOM     15  C   UNL     1       7.874  -0.258  23.579  0.00  0.00    +0.147 A 
BRANCH   6  16
ATOM     16  N   UNL     1       7.770   1.543  21.922  0.00  0.00    -0.341 N 
ATOM     17  H   UNL     1       6.901   1.939  22.252  0.00  0.00    +0.144 HD
ATOM     18  H   UNL     1       7.771   1.114  21.000  0.00  0.00    +0.144 HD
ENDBRANCH   6  16
ENDBRANCH   1  12
BRANCH   2  19
ATOM     19  O   UNL     1       5.833  -2.984  27.103  0.00  0.00    -0.385 OA
ATOM     20  H   UNL     1       6.070  -2.079  27.394  0.00  0.00    +0.210 HD
ENDBRANCH   2  19
BRANCH   3  21
ATOM     21  O   UNL     1       6.594  -6.083  26.583  0.00  0.00    -0.386 OA
ATOM     22  H   UNL     1       7.388  -6.645  26.542  0.00  0.00    +0.210 HD
ENDBRANCH   3  21
BRANCH   4  23
ATOM     23  C   UNL     1       7.852  -4.866  23.544  0.00  0.00    +0.206 C 
BRANCH  23  24
ATOM     24  O   UNL     1       6.458  -4.961  23.263  0.00  0.00    -0.284 OA
BRANCH  24  25
ATOM     25  P   UNL     1       6.216  -5.291  21.581  0.00  0.00    +0.472 P 
ATOM     26  O   UNL     1       5.998  -5.586  20.077  0.00  0.00    -0.228 OA
BRANCH  25  27
ATOM     27  O   UNL     1       5.505  -3.814  21.538  0.00  0.00    -0.303 OA
ATOM     28  H   UNL     1       4.744  -3.792  20.934  0.00  0.00    +0.222 HD
ENDBRANCH  25  27
BRANCH  25  29
ATOM     29  O   UNL     1       4.874  -6.060  22.105  0.00  0.00    -0.303 OA
ATOM     30  H   UNL     1       4.153  -5.802  21.502  0.00  0.00    +0.222 HD
ENDBRANCH  25  29
ENDBRANCH  24  25
ENDBRANCH  23  24
ENDBRANCH   4  23
TORSDOF 9
ENDMDL
MODEL 8
REMARK VINA RESULT:      -6.5      2.968      4.823
REMARK  Name = 
REMARK  9 active torsions:
REMARK  status: ('A' for Active; 'I' for Inactive)
REMARK    1  A    between atoms: N_1  and  C_2
REMARK    2  A    between atoms: N_6  and  C_7
REMARK    3  A    between atoms: C_10  and  C_12
REMARK    4  A    between atoms: C_12  and  O_13
REMARK    5  A    between atoms: O_13  and  P_14
REMARK    6  A    between atoms: P_14  and  O_15
REMARK    7  A    between atoms: P_14  and  O_16
REMARK    8  A    between atoms: C_18  and  O_20
REMARK    9  A    between atoms: C_21  and  O_23
REMARK                            x       y       z     vdW  Elec       q    Type
REMARK                         _______ _______ _______ _____ _____    ______ ____
ROOT
ATOM      1  C   UNL     1       7.180  -1.296  24.193  0.00  0.00    +0.253 C 
ATOM      2  C   UNL     1       8.607  -1.060  23.697  0.00  0.00    +0.195 C 
ATOM      3  C   UNL     1       8.741  -1.989  22.491  0.00  0.00    +0.178 C 
ATOM      4  C   UNL     1       7.294  -2.256  22.059  0.00  0.00    +0.178 C 
ATOM      5  O   UNL     1       6.437  -1.545  22.981  0.00  0.00    -0.346 OA
ENDROOT
BRANCH   1  12
ATOM      6  C   UNL     1       7.187  -5.260  27.040  0.00  0.00    +0.150 A 
ATOM      7  N   UNL     1       8.454  -5.649  26.767  0.00  0.00    -0.185 NA
ATOM      8  C   UNL     1       9.188  -4.889  25.929  0.00  0.00    +0.313 A 
ATOM      9  F   UNL     1      10.436  -5.318  25.688  0.00  0.00    -0.161 F 
ATOM     10  N   UNL     1       8.815  -3.763  25.271  0.00  0.00    -0.182 NA
ATOM     11  C   UNL     1       7.557  -3.415  25.580  0.00  0.00    +0.170 A 
ATOM     12  N   UNL     1       6.829  -2.351  25.119  0.00  0.00    -0.285 N 
ATOM     13  C   UNL     1       5.564  -2.470  25.652  0.00  0.00    +0.203 A 
ATOM     14  N   UNL     1       5.458  -3.504  26.456  0.00  0.00    -0.231 NA
ATOM     15  C   UNL     1       6.693  -4.105  26.422  0.00  0.00    +0.147 A 
BRANCH   6  16
ATOM     16  N   UNL     1       6.430  -6.041  27.898  0.00  0.00    -0.341 N 
ATOM     17  H   UNL     1       5.720  -5.523  28.398  0.00  0.00    +0.144 HD
ATOM     18  H   UNL     1       6.970  -6.724  28.423  0.00  0.00    +0.144 HD
ENDBRANCH   6  16
ENDBRANCH   1  12
BRANCH   2  19
ATOM     19  O   UNL     1       9.649  -1.159  24.649  0.00  0.00    -0.385 OA
ATOM     20  H   UNL     1      10.391  -1.662  24.252  0.00  0.00    +0.210 HD
ENDBRANCH   2  19
BRANCH   3  21
ATOM     21  O   UNL     1       9.481  -1.379  21.428  0.00  0.00    -0.386 OA
ATOM     22  H   UNL     1      10.427  -1.364  21.657  0.00  0.00    +0.210 HD
ENDBRANCH   3  21
BRANCH   4  23
ATOM     23  C   UNL     1       6.996  -3.760  22.104  0.00  0.00    +0.206 C 
BRANCH  23  24
ATOM     24  O   UNL     1       5.597  -4.018  22.020  0.00  0.00    -0.284 OA
BRANCH  24  25
ATOM     25  P   UNL     1       5.184  -5.370  23.018  0.00  0.00    +0.472 P 
ATOM     26  O   UNL     1       4.814  -6.580  23.911  0.00  0.00    -0.228 OA
BRANCH  25  27
ATOM     27  O   UNL     1       6.802  -5.531  23.226  0.00  0.00    -0.303 OA
ATOM     28  H   UNL     1       7.304  -5.172  22.476  0.00  0.00    +0.222 HD
ENDBRANCH  25  27
BRANCH  25  29
ATOM     29  O   UNL     1       5.159  -6.184  21.602  0.00  0.00    -0.303 OA
ATOM     30  H   UNL     1       4.557  -6.940  21.728  0.00  0.00    +0.222 HD
ENDBRANCH  25  29
ENDBRANCH  24  25
ENDBRANCH  23  24
ENDBRANCH   4  23
TORSDOF 9
ENDMDL
MODEL 9
REMARK VINA RESULT:      -6.4      3.671      5.576
REMARK  Name = 
REMARK  9 active torsions:
REMARK  status: ('A' for Active; 'I' for Inactive)
REMARK    1  A    between atoms: N_1  and  C_2
REMARK    2  A    between atoms: N_6  and  C_7
REMARK    3  A    between atoms: C_10  and  C_12
REMARK    4  A    between atoms: C_12  and  O_13
REMARK    5  A    between atoms: O_13  and  P_14
REMARK    6  A    between atoms: P_14  and  O_15
REMARK    7  A    between atoms: P_14  and  O_16
REMARK    8  A    between atoms: C_18  and  O_20
REMARK    9  A    between atoms: C_21  and  O_23
REMARK                            x       y       z     vdW  Elec       q    Type
REMARK                         _______ _______ _______ _____ _____    ______ ____
ROOT
ATOM      1  C   UNL     1       9.700  -2.095  23.834  0.00  0.00    +0.253 C 
ATOM      2  C   UNL     1      10.216  -1.138  22.758  0.00  0.00    +0.195 C 
ATOM      3  C   UNL     1       9.411   0.141  22.979  0.00  0.00    +0.178 C 
ATOM      4  C   UNL     1       8.926   0.034  24.430  0.00  0.00    +0.178 C 
ATOM      5  O   UNL     1       9.410  -1.226  24.949  0.00  0.00    -0.346 OA
ENDROOT
BRANCH   1  12
ATOM      6  C   UNL     1       6.105  -5.347  24.398  0.00  0.00    +0.150 A 
ATOM      7  N   UNL     1       6.437  -5.735  25.650  0.00  0.00    -0.185 NA
ATOM      8  C   UNL     1       7.496  -5.146  26.241  0.00  0.00    +0.313 A 
ATOM      9  F   UNL     1       7.787  -5.568  27.481  0.00  0.00    -0.161 F 
ATOM     10  N   UNL     1       8.327  -4.204  25.728  0.00  0.00    -0.182 NA
ATOM     11  C   UNL     1       7.952  -3.848  24.491  0.00  0.00    +0.170 A 
ATOM     12  N   UNL     1       8.539  -2.937  23.652  0.00  0.00    -0.285 N 
ATOM     13  C   UNL     1       7.847  -2.988  22.462  0.00  0.00    +0.203 A 
ATOM     14  N   UNL     1       6.836  -3.828  22.508  0.00  0.00    -0.231 NA
ATOM     15  C   UNL     1       6.889  -4.373  23.768  0.00  0.00    +0.147 A 
BRANCH   6  16
ATOM     16  N   UNL     1       5.018  -5.953  23.787  0.00  0.00    -0.341 N 
ATOM     17  H   UNL     1       5.267  -6.741  23.206  0.00  0.00    +0.144 HD
ATOM     18  H   UNL     1       4.329  -5.299  23.424  0.00  0.00    +0.144 HD
ENDBRANCH   6  16
ENDBRANCH   1  12
BRANCH   2  19
ATOM     19  O   UNL     1      10.234  -1.612  21.424  0.00  0.00    -0.385 OA
ATOM     20  H   UNL     1       9.947  -2.550  21.420  0.00  0.00    +0.210 HD
ENDBRANCH   2  19
BRANCH   3  21
ATOM     21  O   UNL     1      10.213   1.313  22.800  0.00  0.00    -0.386 OA
ATOM     22  H   UNL     1      11.081   1.180  23.219  0.00  0.00    +0.210 HD
ENDBRANCH   3  21
BRANCH   4  23
ATOM     23  C   UNL     1       7.394   0.080  24.483  0.00  0.00    +0.206 C 
BRANCH  23  24
ATOM     24  O   UNL     1       6.903  -0.299  25.766  0.00  0.00    -0.284 OA
BRANCH  24  25
ATOM     25  P   UNL     1       5.457  -1.234  25.594  0.00  0.00    +0.472 P 
ATOM     26  O   UNL     1       4.163  -2.070  25.440  0.00  0.00    -0.228 OA
BRANCH  25  27
ATOM     27  O   UNL     1       5.674  -1.014  23.984  0.00  0.00    -0.303 OA
ATOM     28  H   UNL     1       6.444  -1.502  23.649  0.00  0.00    +0.222 HD
ENDBRANCH  25  27
BRANCH  25  29
ATOM     29  O   UNL     1       4.711   0.201  25.817  0.00  0.00    -0.303 OA
ATOM     30  H   UNL     1       4.570   0.295  26.777  0.00  0.00    +0.222 HD
ENDBRANCH  25  29
ENDBRANCH  24  25
ENDBRANCH  23  24
ENDBRANCH   4  23
TORSDOF 9
ENDMDL
