MODEL 1
REMARK VINA RESULT:      -5.8      0.000      0.000
REMARK  Name = 
REMARK  15 active torsions:
REMARK  status: ('A' for Active; 'I' for Inactive)
REMARK    1  A    between atoms: C_1  and  C_2
REMARK    2  A    between atoms: C_2  and  C_3
REMARK    3  A    between atoms: C_3  and  C_4
REMARK    4  A    between atoms: N_6  and  C_7
REMARK    5  A    between atoms: C_9  and  C_10
REMARK    6  A    between atoms: C_10  and  C_11
REMARK    7  A    between atoms: C_13  and  O_14
REMARK    8  A    between atoms: O_14  and  C_15
REMARK    9  A    between atoms: C_15  and  C_16
REMARK   10  A    between atoms: C_16  and  O_17
REMARK   11  A    between atoms: C_16  and  C_18
REMARK   12  A    between atoms: C_18  and  N_19
REMARK   13  A    between atoms: N_19  and  C_20
REMARK   14  A    between atoms: C_20  and  C_21
REMARK   15  A    between atoms: C_20  and  C_22
REMARK                            x       y       z     vdW  Elec       q    Type
REMARK                         _______ _______ _______ _____ _____    ______ ____
ROOT
ATOM      1  C   UNL     1      10.068   2.285  23.295  0.00  0.00    +0.034 A 
ATOM      2  C   UNL     1       9.695   1.834  22.030  0.00  0.00    +0.027 A 
ATOM      3  C   UNL     1       8.911   0.681  21.889  0.00  0.00    +0.048 A 
ATOM      4  C   UNL     1       8.460  -0.030  23.011  0.00  0.00    +0.131 A 
ATOM      5  C   UNL     1       8.791   0.454  24.286  0.00  0.00    +0.060 A 
ATOM      6  C   UNL     1       9.591   1.603  24.415  0.00  0.00    +0.038 A 
ENDROOT
BRANCH   1   8
ATOM      7  C   UNL     1      10.490   4.708  23.689  0.00  0.00    +0.217 C 
ATOM      8  N   UNL     1      10.901   3.420  23.381  0.00  0.00    -0.285 N 
ATOM      9  H   UNL     1      11.899   3.262  23.312  0.00  0.00    +0.155 HD
ATOM     10  O   UNL     1       9.370   5.046  24.055  0.00  0.00    -0.275 OA
BRANCH   7  11
ATOM     11  C   UNL     1      11.587   5.746  23.563  0.00  0.00    +0.096 C 
BRANCH  11  13
ATOM     12  C   UNL     1      13.496   5.766  21.887  0.00  0.00    +0.004 C 
ATOM     13  C   UNL     1      12.934   5.152  23.162  0.00  0.00    +0.006 C 
ENDBRANCH  11  13
ENDBRANCH   7  11
ENDBRANCH   1   8
BRANCH   5  14
ATOM     14  C   UNL     1       8.387  -0.188  25.575  0.00  0.00    +0.164 C 
ATOM     15  O   UNL     1       9.025  -1.158  25.988  0.00  0.00    -0.292 OA
ATOM     16  C   UNL     1       7.260   0.366  26.398  0.00  0.00    +0.092 C 
ENDBRANCH   5  14
BRANCH   4  17
ATOM     17  O   UNL     1       7.748  -1.196  22.936  0.00  0.00    -0.489 OA
BRANCH  17  18
ATOM     18  C   UNL     1       8.326  -2.288  22.207  0.00  0.00    +0.261 C 
BRANCH  18  19
ATOM     19  C   UNL     1       8.360  -3.528  23.116  0.00  0.00    +0.166 C 
BRANCH  19  20
ATOM     20  O   UNL     1       9.436  -3.396  24.053  0.00  0.00    -0.387 OA
ATOM     21  H   UNL     1       9.048  -3.007  24.865  0.00  0.00    +0.210 HD
ENDBRANCH  19  20
BRANCH  19  22
ATOM     22  C   UNL     1       7.045  -3.745  23.893  0.00  0.00    +0.115 C 
BRANCH  22  23
ATOM     23  N   UNL     1       7.173  -3.378  25.307  0.00  0.00    -0.311 NA
ATOM     24  H   UNL     1       6.598  -2.552  25.485  0.00  0.00    +0.122 HD
BRANCH  23  25
ATOM     25  C   UNL     1       6.761  -4.442  26.234  0.00  0.00    +0.048 C 
ATOM     26  C   UNL     1       8.032  -5.092  26.789  0.00  0.00    +0.023 C 
ATOM     27  C   UNL     1       5.899  -5.516  25.569  0.00  0.00    +0.023 C 
ENDBRANCH  23  25
ENDBRANCH  22  23
ENDBRANCH  19  22
ENDBRANCH  18  19
ENDBRANCH  17  18
ENDBRANCH   4  17
TORSDOF 11
ENDMDL
MODEL 2
REMARK VINA RESULT:      -5.7      1.145      1.598
REMARK  Name = 
REMARK  15 active torsions:
REMARK  status: ('A' for Active; 'I' for Inactive)
REMARK    1  A    between atoms: C_1  and  C_2
REMARK    2  A    between atoms: C_2  and  C_3
REMARK    3  A    between atoms: C_3  and  C_4
REMARK    4  A    between atoms: N_6  and  C_7
REMARK    5  A    between atoms: C_9  and  C_10
REMARK    6  A    between atoms: C_10  and  C_11
REMARK    7  A    between atoms: C_13  and  O_14
REMARK    8  A    between atoms: O_14  and  C_15
REMARK    9  A    between atoms: C_15  and  C_16
REMARK   10  A    between atoms: C_16  and  O_17
REMARK   11  A    between atoms: C_16  and  C_18
REMARK   12  A    between atoms: C_18  and  N_19
REMARK   13  A    between atoms: N_19  and  C_20
REMARK   14  A    between atoms: C_20  and  C_21
REMARK   15  A    between atoms: C_20  and  C_22
REMARK                            x       y       z     vdW  Elec       q    Type
REMARK                         _______ _______ _______ _____ _____    ______ ____
ROOT
ATOM      1  C   UNL     1      10.078   2.328  23.238  0.00  0.00    +0.034 A 
ATOM      2  C   UNL     1       9.887   1.806  21.959  0.00  0.00    +0.027 A 
ATOM      3  C   UNL     1       9.128   0.644  21.771  0.00  0.00    +0.048 A 
ATOM      4  C   UNL     1       8.522  -0.008  22.855  0.00  0.00    +0.131 A 
ATOM      5  C   UNL     1       8.671   0.545  24.137  0.00  0.00    +0.060 A 
ATOM      6  C   UNL     1       9.447   1.704  24.314  0.00  0.00    +0.038 A 
ENDROOT
BRANCH   1   8
ATOM      7  C   UNL     1      10.456   4.744  23.705  0.00  0.00    +0.217 C 
ATOM      8  N   UNL     1      10.893   3.470  23.378  0.00  0.00    -0.285 N 
ATOM      9  H   UNL     1      11.894   3.326  23.337  0.00  0.00    +0.155 HD
ATOM     10  O   UNL     1       9.321   5.059  24.043  0.00  0.00    -0.275 OA
BRANCH   7  11
ATOM     11  C   UNL     1      11.543   5.799  23.640  0.00  0.00    +0.096 C 
BRANCH  11  13
ATOM     12  C   UNL     1      13.416   5.721  21.926  0.00  0.00    +0.004 C 
ATOM     13  C   UNL     1      12.911   5.230  23.276  0.00  0.00    +0.006 C 
ENDBRANCH  11  13
ENDBRANCH   7  11
ENDBRANCH   1   8
BRANCH   5  14
ATOM     14  C   UNL     1       8.087  -0.029  25.389  0.00  0.00    +0.164 C 
ATOM     15  O   UNL     1       8.799  -0.717  26.121  0.00  0.00    -0.292 OA
ATOM     16  C   UNL     1       6.673   0.271  25.793  0.00  0.00    +0.092 C 
ENDBRANCH   5  14
BRANCH   4  17
ATOM     17  O   UNL     1       7.824  -1.181  22.744  0.00  0.00    -0.489 OA
BRANCH  17  18
ATOM     18  C   UNL     1       8.543  -2.350  22.326  0.00  0.00    +0.261 C 
BRANCH  18  19
ATOM     19  C   UNL     1       8.487  -3.396  23.453  0.00  0.00    +0.166 C 
BRANCH  19  20
ATOM     20  O   UNL     1       9.454  -3.060  24.456  0.00  0.00    -0.387 OA
ATOM     21  H   UNL     1       9.950  -2.287  24.113  0.00  0.00    +0.210 HD
ENDBRANCH  19  20
BRANCH  19  22
ATOM     22  C   UNL     1       7.097  -3.499  24.114  0.00  0.00    +0.115 C 
BRANCH  22  23
ATOM     23  N   UNL     1       6.037  -3.745  23.130  0.00  0.00    -0.311 NA
ATOM     24  H   UNL     1       6.315  -3.333  22.238  0.00  0.00    +0.122 HD
BRANCH  23  25
ATOM     25  C   UNL     1       5.747  -5.170  22.917  0.00  0.00    +0.048 C 
ATOM     26  C   UNL     1       6.169  -5.523  21.487  0.00  0.00    +0.023 C 
ATOM     27  C   UNL     1       4.268  -5.515  23.102  0.00  0.00    +0.023 C 
ENDBRANCH  23  25
ENDBRANCH  22  23
ENDBRANCH  19  22
ENDBRANCH  18  19
ENDBRANCH  17  18
ENDBRANCH   4  17
TORSDOF 11
ENDMDL
MODEL 3
REMARK VINA RESULT:      -5.7      1.061      1.455
REMARK  Name = 
REMARK  15 active torsions:
REMARK  status: ('A' for Active; 'I' for Inactive)
REMARK    1  A    between atoms: C_1  and  C_2
REMARK    2  A    between atoms: C_2  and  C_3
REMARK    3  A    between atoms: C_3  and  C_4
REMARK    4  A    between atoms: N_6  and  C_7
REMARK    5  A    between atoms: C_9  and  C_10
REMARK    6  A    between atoms: C_10  and  C_11
REMARK    7  A    between atoms: C_13  and  O_14
REMARK    8  A    between atoms: O_14  and  C_15
REMARK    9  A    between atoms: C_15  and  C_16
REMARK   10  A    between atoms: C_16  and  O_17
REMARK   11  A    between atoms: C_16  and  C_18
REMARK   12  A    between atoms: C_18  and  N_19
REMARK   13  A    between atoms: N_19  and  C_20
REMARK   14  A    between atoms: C_20  and  C_21
REMARK   15  A    between atoms: C_20  and  C_22
REMARK                            x       y       z     vdW  Elec       q    Type
REMARK                         _______ _______ _______ _____ _____    ______ ____
ROOT
ATOM      1  C   UNL     1      10.021   2.118  23.178  0.00  0.00    +0.034 A 
ATOM      2  C   UNL     1       9.705   1.563  21.938  0.00  0.00    +0.027 A 
ATOM      3  C   UNL     1       9.009   0.350  21.859  0.00  0.00    +0.048 A 
ATOM      4  C   UNL     1       8.588  -0.321  23.018  0.00  0.00    +0.131 A 
ATOM      5  C   UNL     1       8.860   0.264  24.265  0.00  0.00    +0.060 A 
ATOM      6  C   UNL     1       9.574   1.474  24.331  0.00  0.00    +0.038 A 
ENDROOT
BRANCH   1   8
ATOM      7  C   UNL     1      10.360   4.516  23.758  0.00  0.00    +0.217 C 
ATOM      8  N   UNL     1      10.769   3.313  23.203  0.00  0.00    -0.285 N 
ATOM      9  H   UNL     1      11.727   3.261  22.879  0.00  0.00    +0.155 HD
ATOM     10  O   UNL     1       9.345   4.704  24.418  0.00  0.00    -0.275 OA
BRANCH   7  11
ATOM     11  C   UNL     1      11.317   5.664  23.504  0.00  0.00    +0.096 C 
BRANCH  11  13
ATOM     12  C   UNL     1      13.390   5.684  22.035  0.00  0.00    +0.004 C 
ATOM     13  C   UNL     1      12.765   5.213  23.342  0.00  0.00    +0.006 C 
ENDBRANCH  11  13
ENDBRANCH   7  11
ENDBRANCH   1   8
BRANCH   5  14
ATOM     14  C   UNL     1       8.479  -0.325  25.586  0.00  0.00    +0.164 C 
ATOM     15  O   UNL     1       9.020  -1.367  25.956  0.00  0.00    -0.292 OA
ATOM     16  C   UNL     1       7.497   0.366  26.488  0.00  0.00    +0.092 C 
ENDBRANCH   5  14
BRANCH   4  17
ATOM     17  O   UNL     1       7.963  -1.539  23.007  0.00  0.00    -0.489 OA
BRANCH  17  18
ATOM     18  C   UNL     1       6.531  -1.555  22.910  0.00  0.00    +0.261 C 
BRANCH  18  19
ATOM     19  C   UNL     1       6.044  -3.010  23.016  0.00  0.00    +0.166 C 
BRANCH  19  20
ATOM     20  O   UNL     1       5.489  -3.414  21.758  0.00  0.00    -0.387 OA
ATOM     21  H   UNL     1       6.115  -3.107  21.069  0.00  0.00    +0.210 HD
ENDBRANCH  19  20
BRANCH  19  22
ATOM     22  C   UNL     1       7.165  -3.996  23.407  0.00  0.00    +0.115 C 
BRANCH  22  23
ATOM     23  N   UNL     1       7.599  -3.813  24.796  0.00  0.00    -0.311 NA
ATOM     24  H   UNL     1       6.795  -3.520  25.355  0.00  0.00    +0.122 HD
BRANCH  23  25
ATOM     25  C   UNL     1       8.172  -5.024  25.401  0.00  0.00    +0.048 C 
ATOM     26  C   UNL     1       7.684  -5.096  26.851  0.00  0.00    +0.023 C 
ATOM     27  C   UNL     1       9.702  -5.034  25.386  0.00  0.00    +0.023 C 
ENDBRANCH  23  25
ENDBRANCH  22  23
ENDBRANCH  19  22
ENDBRANCH  18  19
ENDBRANCH  17  18
ENDBRANCH   4  17
TORSDOF 11
ENDMDL
MODEL 4
REMARK VINA RESULT:      -5.7      2.885      4.753
REMARK  Name = 
REMARK  15 active torsions:
REMARK  status: ('A' for Active; 'I' for Inactive)
REMARK    1  A    between atoms: C_1  and  C_2
REMARK    2  A    between atoms: C_2  and  C_3
REMARK    3  A    between atoms: C_3  and  C_4
REMARK    4  A    between atoms: N_6  and  C_7
REMARK    5  A    between atoms: C_9  and  C_10
REMARK    6  A    between atoms: C_10  and  C_11
REMARK    7  A    between atoms: C_13  and  O_14
REMARK    8  A    between atoms: O_14  and  C_15
REMARK    9  A    between atoms: C_15  and  C_16
REMARK   10  A    between atoms: C_16  and  O_17
REMARK   11  A    between atoms: C_16  and  C_18
REMARK   12  A    between atoms: C_18  and  N_19
REMARK   13  A    between atoms: N_19  and  C_20
REMARK   14  A    between atoms: C_20  and  C_21
REMARK   15  A    between atoms: C_20  and  C_22
REMARK                            x       y       z     vdW  Elec       q    Type
REMARK                         _______ _______ _______ _____ _____    ______ ____
ROOT
ATOM      1  C   UNL     1       8.720  -1.384  22.664  0.00  0.00    +0.034 A 
ATOM      2  C   UNL     1       9.767  -1.643  23.548  0.00  0.00    +0.027 A 
ATOM      3  C   UNL     1       9.851  -2.875  24.209  0.00  0.00    +0.048 A 
ATOM      4  C   UNL     1       8.905  -3.886  23.981  0.00  0.00    +0.131 A 
ATOM      5  C   UNL     1       7.880  -3.645  23.052  0.00  0.00    +0.060 A 
ATOM      6  C   UNL     1       7.798  -2.398  22.406  0.00  0.00    +0.038 A 
ENDROOT
BRANCH   1   8
ATOM      7  C   UNL     1       8.275   1.066  22.695  0.00  0.00    +0.217 C 
ATOM      8  N   UNL     1       8.652  -0.110  22.064  0.00  0.00    -0.285 N 
ATOM      9  H   UNL     1       9.008  -0.029  21.119  0.00  0.00    +0.155 HD
ATOM     10  O   UNL     1       8.060   1.211  23.893  0.00  0.00    -0.275 OA
BRANCH   7  11
ATOM     11  C   UNL     1       8.157   2.252  21.758  0.00  0.00    +0.096 C 
BRANCH  11  13
ATOM     12  C   UNL     1       7.143   4.517  22.303  0.00  0.00    +0.004 C 
ATOM     13  C   UNL     1       6.877   3.056  21.965  0.00  0.00    +0.006 C 
ENDBRANCH  11  13
ENDBRANCH   7  11
ENDBRANCH   1   8
BRANCH   5  14
ATOM     14  C   UNL     1       6.800  -4.618  22.699  0.00  0.00    +0.164 C 
ATOM     15  O   UNL     1       5.711  -4.537  23.269  0.00  0.00    -0.292 OA
ATOM     16  C   UNL     1       7.004  -5.646  21.624  0.00  0.00    +0.092 C 
ENDBRANCH   5  14
BRANCH   4  17
ATOM     17  O   UNL     1       8.896  -5.084  24.644  0.00  0.00    -0.489 OA
BRANCH  17  18
ATOM     18  C   UNL     1       8.979  -5.057  26.076  0.00  0.00    +0.261 C 
BRANCH  18  19
ATOM     19  C   UNL     1       7.569  -5.259  26.657  0.00  0.00    +0.166 C 
BRANCH  19  20
ATOM     20  O   UNL     1       7.640  -6.174  27.757  0.00  0.00    -0.387 OA
ATOM     21  H   UNL     1       7.075  -5.799  28.465  0.00  0.00    +0.210 HD
ENDBRANCH  19  20
BRANCH  19  22
ATOM     22  C   UNL     1       6.920  -3.946  27.140  0.00  0.00    +0.115 C 
BRANCH  22  23
ATOM     23  N   UNL     1       6.127  -3.304  26.085  0.00  0.00    -0.311 NA
ATOM     24  H   UNL     1       5.171  -3.661  26.130  0.00  0.00    +0.122 HD
BRANCH  23  25
ATOM     25  C   UNL     1       6.083  -1.838  26.189  0.00  0.00    +0.048 C 
ATOM     26  C   UNL     1       5.544  -1.294  24.862  0.00  0.00    +0.023 C 
ATOM     27  C   UNL     1       7.452  -1.215  26.466  0.00  0.00    +0.023 C 
ENDBRANCH  23  25
ENDBRANCH  22  23
ENDBRANCH  19  22
ENDBRANCH  18  19
ENDBRANCH  17  18
ENDBRANCH   4  17
TORSDOF 11
ENDMDL
MODEL 5
REMARK VINA RESULT:      -5.6      2.991      5.181
REMARK  Name = 
REMARK  15 active torsions:
REMARK  status: ('A' for Active; 'I' for Inactive)
REMARK    1  A    between atoms: C_1  and  C_2
REMARK    2  A    between atoms: C_2  and  C_3
REMARK    3  A    between atoms: C_3  and  C_4
REMARK    4  A    between atoms: N_6  and  C_7
REMARK    5  A    between atoms: C_9  and  C_10
REMARK    6  A    between atoms: C_10  and  C_11
REMARK    7  A    between atoms: C_13  and  O_14
REMARK    8  A    between atoms: O_14  and  C_15
REMARK    9  A    between atoms: C_15  and  C_16
REMARK   10  A    between atoms: C_16  and  O_17
REMARK   11  A    between atoms: C_16  and  C_18
REMARK   12  A    between atoms: C_18  and  N_19
REMARK   13  A    between atoms: N_19  and  C_20
REMARK   14  A    between atoms: C_20  and  C_21
REMARK   15  A    between atoms: C_20  and  C_22
REMARK                            x       y       z     vdW  Elec       q    Type
REMARK                         _______ _______ _______ _____ _____    ______ ____
ROOT
ATOM      1  C   UNL     1       7.302  -1.566  22.926  0.00  0.00    +0.034 A 
ATOM      2  C   UNL     1       6.708  -1.451  24.182  0.00  0.00    +0.027 A 
ATOM      3  C   UNL     1       5.964  -2.511  24.716  0.00  0.00    +0.048 A 
ATOM      4  C   UNL     1       5.820  -3.720  24.018  0.00  0.00    +0.131 A 
ATOM      5  C   UNL     1       6.461  -3.854  22.776  0.00  0.00    +0.060 A 
ATOM      6  C   UNL     1       7.193  -2.778  22.244  0.00  0.00    +0.038 A 
ENDROOT
BRANCH   1   8
ATOM      7  C   UNL     1       9.361  -0.384  22.173  0.00  0.00    +0.217 C 
ATOM      8  N   UNL     1       7.996  -0.452  22.411  0.00  0.00    -0.285 N 
ATOM      9  H   UNL     1       7.436   0.329  22.093  0.00  0.00    +0.155 HD
ATOM     10  O   UNL     1      10.160  -1.310  22.253  0.00  0.00    -0.275 OA
BRANCH   7  11
ATOM     11  C   UNL     1       9.841   0.992  21.756  0.00  0.00    +0.096 C 
BRANCH  11  13
ATOM     12  C   UNL     1      10.412   1.690  24.131  0.00  0.00    +0.004 C 
ATOM     13  C   UNL     1       9.672   2.044  22.848  0.00  0.00    +0.006 C 
ENDBRANCH  11  13
ENDBRANCH   7  11
ENDBRANCH   1   8
BRANCH   5  14
ATOM     14  C   UNL     1       6.404  -5.075  21.913  0.00  0.00    +0.164 C 
ATOM     15  O   UNL     1       5.533  -5.156  21.046  0.00  0.00    -0.292 OA
ATOM     16  C   UNL     1       7.425  -6.168  22.047  0.00  0.00    +0.092 C 
ENDBRANCH   5  14
BRANCH   4  17
ATOM     17  O   UNL     1       5.053  -4.765  24.457  0.00  0.00    -0.489 OA
BRANCH  17  18
ATOM     18  C   UNL     1       5.715  -5.841  25.137  0.00  0.00    +0.261 C 
BRANCH  18  19
ATOM     19  C   UNL     1       5.517  -5.665  26.652  0.00  0.00    +0.166 C 
BRANCH  19  20
ATOM     20  O   UNL     1       5.336  -6.952  27.256  0.00  0.00    -0.387 OA
ATOM     21  H   UNL     1       5.911  -6.967  28.050  0.00  0.00    +0.210 HD
ENDBRANCH  19  20
BRANCH  19  22
ATOM     22  C   UNL     1       6.700  -4.952  27.338  0.00  0.00    +0.115 C 
BRANCH  22  23
ATOM     23  N   UNL     1       7.965  -5.667  27.138  0.00  0.00    -0.311 NA
ATOM     24  H   UNL     1       7.800  -6.458  26.513  0.00  0.00    +0.122 HD
BRANCH  23  25
ATOM     25  C   UNL     1       9.031  -4.833  26.564  0.00  0.00    +0.048 C 
ATOM     26  C   UNL     1       8.578  -3.373  26.651  0.00  0.00    +0.023 C 
ATOM     27  C   UNL     1       9.340  -5.176  25.105  0.00  0.00    +0.023 C 
ENDBRANCH  23  25
ENDBRANCH  22  23
ENDBRANCH  19  22
ENDBRANCH  18  19
ENDBRANCH  17  18
ENDBRANCH   4  17
TORSDOF 11
ENDMDL
MODEL 6
REMARK VINA RESULT:      -5.5      2.934      8.640
REMARK  Name = 
REMARK  15 active torsions:
REMARK  status: ('A' for Active; 'I' for Inactive)
REMARK    1  A    between atoms: C_1  and  C_2
REMARK    2  A    between atoms: C_2  and  C_3
REMARK    3  A    between atoms: C_3  and  C_4
REMARK    4  A    between atoms: N_6  and  C_7
REMARK    5  A    between atoms: C_9  and  C_10
REMARK    6  A    between atoms: C_10  and  C_11
REMARK    7  A    between atoms: C_13  and  O_14
REMARK    8  A    between atoms: O_14  and  C_15
REMARK    9  A    between atoms: C_15  and  C_16
REMARK   10  A    between atoms: C_16  and  O_17
REMARK   11  A    between atoms: C_16  and  C_18
REMARK   12  A    between atoms: C_18  and  N_19
REMARK   13  A    between atoms: N_19  and  C_20
REMARK   14  A    between atoms: C_20  and  C_21
REMARK   15  A    between atoms: C_20  and  C_22
REMARK                            x       y       z     vdW  Elec       q    Type
REMARK                         _______ _______ _______ _____ _____    ______ ____
ROOT
ATOM      1  C   UNL     1       5.412  -4.406  23.157  0.00  0.00    +0.034 A 
ATOM      2  C   UNL     1       5.688  -3.346  22.294  0.00  0.00    +0.027 A 
ATOM      3  C   UNL     1       6.938  -2.714  22.321  0.00  0.00    +0.048 A 
ATOM      4  C   UNL     1       7.948  -3.145  23.194  0.00  0.00    +0.131 A 
ATOM      5  C   UNL     1       7.689  -4.245  24.026  0.00  0.00    +0.060 A 
ATOM      6  C   UNL     1       6.425  -4.862  24.000  0.00  0.00    +0.038 A 
ENDROOT
BRANCH   1   8
ATOM      7  C   UNL     1       3.079  -4.670  23.987  0.00  0.00    +0.217 C 
ATOM      8  N   UNL     1       4.122  -4.974  23.125  0.00  0.00    -0.285 N 
ATOM      9  H   UNL     1       3.907  -5.581  22.344  0.00  0.00    +0.155 HD
ATOM     10  O   UNL     1       3.068  -3.779  24.829  0.00  0.00    -0.275 OA
BRANCH   7  11
ATOM     11  C   UNL     1       1.856  -5.547  23.802  0.00  0.00    +0.096 C 
BRANCH  11  13
ATOM     12  C   UNL     1       1.492  -8.004  23.269  0.00  0.00    +0.004 C 
ATOM     13  C   UNL     1       2.074  -6.677  22.801  0.00  0.00    +0.006 C 
ENDBRANCH  11  13
ENDBRANCH   7  11
ENDBRANCH   1   8
BRANCH   5  14
ATOM     14  C   UNL     1       8.659  -4.822  25.007  0.00  0.00    +0.164 C 
ATOM     15  O   UNL     1       9.475  -5.660  24.621  0.00  0.00    -0.292 OA
ATOM     16  C   UNL     1       8.692  -4.353  26.433  0.00  0.00    +0.092 C 
ENDBRANCH   5  14
BRANCH   4  17
ATOM     17  O   UNL     1       9.164  -2.527  23.313  0.00  0.00    -0.489 OA
BRANCH  17  18
ATOM     18  C   UNL     1       9.178  -1.103  23.483  0.00  0.00    +0.261 C 
BRANCH  18  19
ATOM     19  C   UNL     1      10.004  -0.476  22.347  0.00  0.00    +0.166 C 
BRANCH  19  20
ATOM     20  O   UNL     1      10.622  -1.519  21.584  0.00  0.00    -0.387 OA
ATOM     21  H   UNL     1      11.152  -2.047  22.217  0.00  0.00    +0.210 HD
ENDBRANCH  19  20
BRANCH  19  22
ATOM     22  C   UNL     1       9.160   0.403  21.401  0.00  0.00    +0.115 C 
BRANCH  22  23
ATOM     23  N   UNL     1       9.493   1.826  21.529  0.00  0.00    -0.311 NA
ATOM     24  H   UNL     1       9.678   2.205  20.599  0.00  0.00    +0.122 HD
BRANCH  23  25
ATOM     25  C   UNL     1       8.432   2.628  22.157  0.00  0.00    +0.048 C 
ATOM     26  C   UNL     1       8.898   2.991  23.570  0.00  0.00    +0.023 C 
ATOM     27  C   UNL     1       7.096   1.888  22.244  0.00  0.00    +0.023 C 
ENDBRANCH  23  25
ENDBRANCH  22  23
ENDBRANCH  19  22
ENDBRANCH  18  19
ENDBRANCH  17  18
ENDBRANCH   4  17
TORSDOF 11
ENDMDL
MODEL 7
REMARK VINA RESULT:      -5.4      3.251      5.859
REMARK  Name = 
REMARK  15 active torsions:
REMARK  status: ('A' for Active; 'I' for Inactive)
REMARK    1  A    between atoms: C_1  and  C_2
REMARK    2  A    between atoms: C_2  and  C_3
REMARK    3  A    between atoms: C_3  and  C_4
REMARK    4  A    between atoms: N_6  and  C_7
REMARK    5  A    between atoms: C_9  and  C_10
REMARK    6  A    between atoms: C_10  and  C_11
REMARK    7  A    between atoms: C_13  and  O_14
REMARK    8  A    between atoms: O_14  and  C_15
REMARK    9  A    between atoms: C_15  and  C_16
REMARK   10  A    between atoms: C_16  and  O_17
REMARK   11  A    between atoms: C_16  and  C_18
REMARK   12  A    between atoms: C_18  and  N_19
REMARK   13  A    between atoms: N_19  and  C_20
REMARK   14  A    between atoms: C_20  and  C_21
REMARK   15  A    between atoms: C_20  and  C_22
REMARK                            x       y       z     vdW  Elec       q    Type
REMARK                         _______ _______ _______ _____ _____    ______ ____
ROOT
ATOM      1  C   UNL     1       8.883  -2.774  24.095  0.00  0.00    +0.034 A 
ATOM      2  C   UNL     1       8.776  -3.511  25.274  0.00  0.00    +0.027 A 
ATOM      3  C   UNL     1       7.818  -4.526  25.393  0.00  0.00    +0.048 A 
ATOM      4  C   UNL     1       6.963  -4.844  24.327  0.00  0.00    +0.131 A 
ATOM      5  C   UNL     1       7.106  -4.138  23.122  0.00  0.00    +0.060 A 
ATOM      6  C   UNL     1       8.061  -3.111  23.019  0.00  0.00    +0.038 A 
ENDROOT
BRANCH   1   8
ATOM      7  C   UNL     1       9.655  -0.451  24.552  0.00  0.00    +0.217 C 
ATOM      8  N   UNL     1       9.828  -1.729  24.044  0.00  0.00    -0.285 N 
ATOM      9  H   UNL     1      10.751  -1.962  23.697  0.00  0.00    +0.155 HD
ATOM     10  O   UNL     1       8.711  -0.061  25.231  0.00  0.00    -0.275 OA
BRANCH   7  11
ATOM     11  C   UNL     1      10.788   0.499  24.220  0.00  0.00    +0.096 C 
BRANCH  11  13
ATOM     12  C   UNL     1       9.890   1.357  22.004  0.00  0.00    +0.004 C 
ATOM     13  C   UNL     1      10.337   1.714  23.415  0.00  0.00    +0.006 C 
ENDBRANCH  11  13
ENDBRANCH   7  11
ENDBRANCH   1   8
BRANCH   5  14
ATOM     14  C   UNL     1       6.275  -4.360  21.898  0.00  0.00    +0.164 C 
ATOM     15  O   UNL     1       5.496  -3.478  21.535  0.00  0.00    -0.292 OA
ATOM     16  C   UNL     1       6.420  -5.609  21.078  0.00  0.00    +0.092 C 
ENDBRANCH   5  14
BRANCH   4  17
ATOM     17  O   UNL     1       5.966  -5.779  24.405  0.00  0.00    -0.489 OA
BRANCH  17  18
ATOM     18  C   UNL     1       5.442  -6.092  25.704  0.00  0.00    +0.261 C 
BRANCH  18  19
ATOM     19  C   UNL     1       3.919  -6.274  25.592  0.00  0.00    +0.166 C 
BRANCH  19  20
ATOM     20  O   UNL     1       3.313  -5.007  25.312  0.00  0.00    -0.387 OA
ATOM     21  H   UNL     1       3.941  -4.324  25.629  0.00  0.00    +0.210 HD
ENDBRANCH  19  20
BRANCH  19  22
ATOM     22  C   UNL     1       3.508  -7.279  24.496  0.00  0.00    +0.115 C 
BRANCH  22  23
ATOM     23  N   UNL     1       3.201  -6.613  23.226  0.00  0.00    -0.311 NA
ATOM     24  H   UNL     1       3.928  -6.847  22.549  0.00  0.00    +0.122 HD
BRANCH  23  25
ATOM     25  C   UNL     1       1.897  -6.992  22.660  0.00  0.00    +0.048 C 
ATOM     26  C   UNL     1       0.961  -5.788  22.801  0.00  0.00    +0.023 C 
ATOM     27  C   UNL     1       1.269  -8.199  23.359  0.00  0.00    +0.023 C 
ENDBRANCH  23  25
ENDBRANCH  22  23
ENDBRANCH  19  22
ENDBRANCH  18  19
ENDBRANCH  17  18
ENDBRANCH   4  17
TORSDOF 11
ENDMDL
MODEL 8
REMARK VINA RESULT:      -5.3      1.813      2.665
REMARK  Name = 
REMARK  15 active torsions:
REMARK  status: ('A' for Active; 'I' for Inactive)
REMARK    1  A    between atoms: C_1  and  C_2
REMARK    2  A    between atoms: C_2  and  C_3
REMARK    3  A    between atoms: C_3  and  C_4
REMARK    4  A    between atoms: N_6  and  C_7
REMARK    5  A    between atoms: C_9  and  C_10
REMARK    6  A    between atoms: C_10  and  C_11
REMARK    7  A    between atoms: C_13  and  O_14
REMARK    8  A    between atoms: O_14  and  C_15
REMARK    9  A    between atoms: C_15  and  C_16
REMARK   10  A    between atoms: C_16  and  O_17
REMARK   11  A    between atoms: C_16  and  C_18
REMARK   12  A    between atoms: C_18  and  N_19
REMARK   13  A    between atoms: N_19  and  C_20
REMARK   14  A    between atoms: C_20  and  C_21
REMARK   15  A    between atoms: C_20  and  C_22
REMARK                            x       y       z     vdW  Elec       q    Type
REMARK                         _______ _______ _______ _____ _____    ______ ____
ROOT
ATOM      1  C   UNL     1       9.282   1.623  23.947  0.00  0.00    +0.034 A 
ATOM      2  C   UNL     1      10.375   0.954  24.498  0.00  0.00    +0.027 A 
ATOM      3  C   UNL     1      10.259  -0.381  24.906  0.00  0.00    +0.048 A 
ATOM      4  C   UNL     1       9.056  -1.086  24.748  0.00  0.00    +0.131 A 
ATOM      5  C   UNL     1       7.971  -0.429  24.146  0.00  0.00    +0.060 A 
ATOM      6  C   UNL     1       8.095   0.916  23.754  0.00  0.00    +0.038 A 
ENDROOT
BRANCH   1   8
ATOM      7  C   UNL     1       8.979   4.063  24.337  0.00  0.00    +0.217 C 
ATOM      8  N   UNL     1       9.436   2.981  23.601  0.00  0.00    -0.285 N 
ATOM      9  H   UNL     1      10.019   3.186  22.799  0.00  0.00    +0.155 HD
ATOM     10  O   UNL     1       8.481   4.023  25.456  0.00  0.00    -0.275 OA
BRANCH   7  11
ATOM     11  C   UNL     1       9.163   5.397  23.641  0.00  0.00    +0.096 C 
BRANCH  11  13
ATOM     12  C   UNL     1      11.656   5.855  23.804  0.00  0.00    +0.004 C 
ATOM     13  C   UNL     1      10.260   6.254  24.265  0.00  0.00    +0.006 C 
ENDBRANCH  11  13
ENDBRANCH   7  11
ENDBRANCH   1   8
BRANCH   5  14
ATOM     14  C   UNL     1       6.628  -1.041  23.907  0.00  0.00    +0.164 C 
ATOM     15  O   UNL     1       6.427  -1.657  22.859  0.00  0.00    -0.292 OA
ATOM     16  C   UNL     1       5.546  -0.967  24.946  0.00  0.00    +0.092 C 
ENDBRANCH   5  14
BRANCH   4  17
ATOM     17  O   UNL     1       8.863  -2.368  25.186  0.00  0.00    -0.489 OA
BRANCH  17  18
ATOM     18  C   UNL     1       9.555  -3.421  24.500  0.00  0.00    +0.261 C 
BRANCH  18  19
ATOM     19  C   UNL     1       9.149  -4.768  25.122  0.00  0.00    +0.166 C 
BRANCH  19  20
ATOM     20  O   UNL     1       9.750  -4.889  26.417  0.00  0.00    -0.387 OA
ATOM     21  H   UNL     1      10.656  -5.233  26.270  0.00  0.00    +0.210 HD
ENDBRANCH  19  20
BRANCH  19  22
ATOM     22  C   UNL     1       7.622  -4.934  25.261  0.00  0.00    +0.115 C 
BRANCH  22  23
ATOM     23  N   UNL     1       6.905  -4.449  24.077  0.00  0.00    -0.311 NA
ATOM     24  H   UNL     1       7.568  -3.971  23.465  0.00  0.00    +0.122 HD
BRANCH  23  25
ATOM     25  C   UNL     1       6.244  -5.515  23.309  0.00  0.00    +0.048 C 
ATOM     26  C   UNL     1       7.133  -5.841  22.105  0.00  0.00    +0.023 C 
ATOM     27  C   UNL     1       4.852  -5.119  22.812  0.00  0.00    +0.023 C 
ENDBRANCH  23  25
ENDBRANCH  22  23
ENDBRANCH  19  22
ENDBRANCH  18  19
ENDBRANCH  17  18
ENDBRANCH   4  17
TORSDOF 11
ENDMDL
MODEL 9
REMARK VINA RESULT:      -5.3      2.906      4.729
REMARK  Name = 
REMARK  15 active torsions:
REMARK  status: ('A' for Active; 'I' for Inactive)
REMARK    1  A    between atoms: C_1  and  C_2
REMARK    2  A    between atoms: C_2  and  C_3
REMARK    3  A    between atoms: C_3  and  C_4
REMARK    4  A    between atoms: N_6  and  C_7
REMARK    5  A    between atoms: C_9  and  C_10
REMARK    6  A    between atoms: C_10  and  C_11
REMARK    7  A    between atoms: C_13  and  O_14
REMARK    8  A    between atoms: O_14  and  C_15
REMARK    9  A    between atoms: C_15  and  C_16
REMARK   10  A    between atoms: C_16  and  O_17
REMARK   11  A    between atoms: C_16  and  C_18
REMARK   12  A    between atoms: C_18  and  N_19
REMARK   13  A    between atoms: N_19  and  C_20
REMARK   14  A    between atoms: C_20  and  C_21
REMARK   15  A    between atoms: C_20  and  C_22
REMARK                            x       y       z     vdW  Elec       q    Type
REMARK                         _______ _______ _______ _____ _____    ______ ____
ROOT
ATOM      1  C   UNL     1       7.448  -1.499  23.224  0.00  0.00    +0.034 A 
ATOM      2  C   UNL     1       6.228  -2.028  22.804  0.00  0.00    +0.027 A 
ATOM      3  C   UNL     1       5.881  -3.350  23.114  0.00  0.00    +0.048 A 
ATOM      4  C   UNL     1       6.735  -4.163  23.874  0.00  0.00    +0.131 A 
ATOM      5  C   UNL     1       7.940  -3.615  24.341  0.00  0.00    +0.060 A 
ATOM      6  C   UNL     1       8.284  -2.292  24.011  0.00  0.00    +0.038 A 
ENDROOT
BRANCH   1   8
ATOM      7  C   UNL     1       8.783   0.185  21.965  0.00  0.00    +0.217 C 
ATOM      8  N   UNL     1       7.772  -0.181  22.841  0.00  0.00    -0.285 N 
ATOM      9  H   UNL     1       7.148   0.552  23.152  0.00  0.00    +0.155 HD
ATOM     10  O   UNL     1       9.473  -0.573  21.293  0.00  0.00    -0.275 OA
BRANCH   7  11
ATOM     11  C   UNL     1       8.987   1.683  21.860  0.00  0.00    +0.096 C 
BRANCH  11  13
ATOM     12  C   UNL     1      10.524   1.940  23.866  0.00  0.00    +0.004 C 
ATOM     13  C   UNL     1      10.351   2.140  22.367  0.00  0.00    +0.006 C 
ENDBRANCH  11  13
ENDBRANCH   7  11
ENDBRANCH   1   8
BRANCH   5  14
ATOM     14  C   UNL     1       8.953  -4.350  25.161  0.00  0.00    +0.164 C 
ATOM     15  O   UNL     1       9.999  -4.723  24.628  0.00  0.00    -0.292 OA
ATOM     16  C   UNL     1       8.740  -4.585  26.628  0.00  0.00    +0.092 C 
ENDBRANCH   5  14
BRANCH   4  17
ATOM     17  O   UNL     1       6.482  -5.479  24.154  0.00  0.00    -0.489 OA
BRANCH  17  18
ATOM     18  C   UNL     1       5.418  -6.123  23.439  0.00  0.00    +0.261 C 
BRANCH  18  19
ATOM     19  C   UNL     1       4.343  -6.567  24.446  0.00  0.00    +0.166 C 
BRANCH  19  20
ATOM     20  O   UNL     1       3.813  -7.835  24.041  0.00  0.00    -0.387 OA
ATOM     21  H   UNL     1       2.859  -7.820  24.266  0.00  0.00    +0.210 HD
ENDBRANCH  19  20
BRANCH  19  22
ATOM     22  C   UNL     1       4.877  -6.685  25.888  0.00  0.00    +0.115 C 
BRANCH  22  23
ATOM     23  N   UNL     1       4.751  -5.425  26.628  0.00  0.00    -0.311 NA
ATOM     24  H   UNL     1       3.760  -5.208  26.739  0.00  0.00    +0.122 HD
BRANCH  23  25
ATOM     25  C   UNL     1       5.376  -5.455  27.959  0.00  0.00    +0.048 C 
ATOM     26  C   UNL     1       5.239  -6.880  28.505  0.00  0.00    +0.023 C 
ATOM     27  C   UNL     1       4.733  -4.477  28.944  0.00  0.00    +0.023 C 
ENDBRANCH  23  25
ENDBRANCH  22  23
ENDBRANCH  19  22
ENDBRANCH  18  19
ENDBRANCH  17  18
ENDBRANCH   4  17
TORSDOF 11
ENDMDL
