MODEL 1
REMARK VINA RESULT:      -6.8      0.000      0.000
REMARK  Name = 
REMARK  2 active torsions:
REMARK  status: ('A' for Active; 'I' for Inactive)
REMARK    1  A    between atoms: C_9  and  S_10
REMARK    2  A    between atoms: S_10  and  C_11
REMARK                            x       y       z     vdW  Elec       q    Type
REMARK                         _______ _______ _______ _____ _____    ______ ____
ROOT
ATOM      1  N   UNL     1      10.186  -5.710  25.739  0.00  0.00    -0.327 N 
ATOM      2  H   UNL     1      10.836  -5.288  26.386  0.00  0.00    +0.145 HD
ATOM      3  H   UNL     1      10.559  -6.282  24.995  0.00  0.00    +0.145 HD
ATOM      4  C   UNL     1       9.323  -4.762  25.233  0.00  0.00    +0.215 A 
ATOM      5  N   UNL     1       9.159  -3.648  25.936  0.00  0.00    -0.199 NA
ATOM      6  C   UNL     1       8.318  -2.731  25.436  0.00  0.00    +0.130 A 
ATOM      7  N   UNL     1       8.058  -1.681  26.315  0.00  0.00    -0.342 N 
ATOM      8  H   UNL     1       8.694  -1.734  27.102  0.00  0.00    +0.144 HD
ATOM      9  H   UNL     1       8.014  -0.773  25.867  0.00  0.00    +0.144 HD
ATOM     10  C   UNL     1       7.639  -2.873  24.208  0.00  0.00    +0.054 A 
ATOM     11  C   UNL     1       6.759  -1.943  23.555  0.00  0.00    +0.025 A 
ATOM     12  C   UNL     1       6.045  -2.336  22.416  0.00  0.00    +0.016 A 
ATOM     13  C   UNL     1       6.257  -3.589  21.861  0.00  0.00    +0.003 A 
ATOM     14  C   UNL     1       7.202  -4.439  22.429  0.00  0.00    +0.028 A 
ATOM     15  C   UNL     1       7.885  -4.108  23.590  0.00  0.00    +0.079 A 
ATOM     16  N   UNL     1       8.736  -5.019  24.073  0.00  0.00    -0.215 NA
ENDROOT
BRANCH  11  17
ATOM     17  S   UNL     1       6.505  -0.253  24.110  0.00  0.00    -0.089 S 
BRANCH  17  18
ATOM     18  C   UNL     1       7.947   0.636  23.527  0.00  0.00    +0.013 A 
ATOM     19  C   UNL     1       8.441   0.572  22.220  0.00  0.00    +0.015 A 
ATOM     20  C   UNL     1       9.593   1.284  21.857  0.00  0.00    +0.001 A 
ATOM     21  C   UNL     1      10.269   2.057  22.800  0.00  0.00    +0.000 A 
ATOM     22  C   UNL     1       9.799   2.112  24.108  0.00  0.00    +0.001 A 
ATOM     23  C   UNL     1       8.649   1.403  24.468  0.00  0.00    +0.015 A 
ENDBRANCH  17  18
ENDBRANCH  11  17
TORSDOF 2
ENDMDL
MODEL 2
REMARK VINA RESULT:      -6.8      2.588      2.837
REMARK  Name = 
REMARK  2 active torsions:
REMARK  status: ('A' for Active; 'I' for Inactive)
REMARK    1  A    between atoms: C_9  and  S_10
REMARK    2  A    between atoms: S_10  and  C_11
REMARK                            x       y       z     vdW  Elec       q    Type
REMARK                         _______ _______ _______ _____ _____    ______ ____
ROOT
ATOM      1  N   UNL     1       5.300  -7.078  27.496  0.00  0.00    -0.327 N 
ATOM      2  H   UNL     1       5.946  -7.792  27.799  0.00  0.00    +0.145 HD
ATOM      3  H   UNL     1       4.456  -7.371  27.023  0.00  0.00    +0.145 HD
ATOM      4  C   UNL     1       5.956  -6.113  26.761  0.00  0.00    +0.215 A 
ATOM      5  N   UNL     1       7.266  -5.999  26.935  0.00  0.00    -0.199 NA
ATOM      6  C   UNL     1       7.896  -5.057  26.216  0.00  0.00    +0.130 A 
ATOM      7  N   UNL     1       9.226  -4.875  26.589  0.00  0.00    -0.342 N 
ATOM      8  H   UNL     1       9.504  -5.614  27.223  0.00  0.00    +0.144 HD
ATOM      9  H   UNL     1       9.854  -4.730  25.807  0.00  0.00    +0.144 HD
ATOM     10  C   UNL     1       7.252  -4.224  25.278  0.00  0.00    +0.054 A 
ATOM     11  C   UNL     1       7.829  -3.222  24.423  0.00  0.00    +0.025 A 
ATOM     12  C   UNL     1       6.999  -2.377  23.676  0.00  0.00    +0.016 A 
ATOM     13  C   UNL     1       5.625  -2.566  23.687  0.00  0.00    +0.003 A 
ATOM     14  C   UNL     1       5.083  -3.616  24.423  0.00  0.00    +0.028 A 
ATOM     15  C   UNL     1       5.867  -4.436  25.220  0.00  0.00    +0.079 A 
ATOM     16  N   UNL     1       5.236  -5.384  25.920  0.00  0.00    -0.215 NA
ENDROOT
BRANCH  11  17
ATOM     17  S   UNL     1       9.598  -2.973  24.231  0.00  0.00    -0.089 S 
BRANCH  17  18
ATOM     18  C   UNL     1       9.759  -1.275  23.683  0.00  0.00    +0.013 A 
ATOM     19  C   UNL     1       9.769  -0.874  22.342  0.00  0.00    +0.015 A 
ATOM     20  C   UNL     1       9.925   0.477  22.002  0.00  0.00    +0.001 A 
ATOM     21  C   UNL     1      10.083   1.439  23.000  0.00  0.00    +0.000 A 
ATOM     22  C   UNL     1      10.093   1.051  24.335  0.00  0.00    +0.001 A 
ATOM     23  C   UNL     1       9.936  -0.297  24.672  0.00  0.00    +0.015 A 
ENDBRANCH  17  18
ENDBRANCH  11  17
TORSDOF 2
ENDMDL
MODEL 3
REMARK VINA RESULT:      -6.5      2.769      3.810
REMARK  Name = 
REMARK  2 active torsions:
REMARK  status: ('A' for Active; 'I' for Inactive)
REMARK    1  A    between atoms: C_9  and  S_10
REMARK    2  A    between atoms: S_10  and  C_11
REMARK                            x       y       z     vdW  Elec       q    Type
REMARK                         _______ _______ _______ _____ _____    ______ ____
ROOT
ATOM      1  N   UNL     1       4.446  -7.194  27.173  0.00  0.00    -0.327 N 
ATOM      2  H   UNL     1       3.488  -7.148  26.859  0.00  0.00    +0.145 HD
ATOM      3  H   UNL     1       4.641  -6.969  28.139  0.00  0.00    +0.145 HD
ATOM      4  C   UNL     1       5.265  -6.469  26.334  0.00  0.00    +0.215 A 
ATOM      5  N   UNL     1       4.826  -6.236  25.103  0.00  0.00    -0.199 NA
ATOM      6  C   UNL     1       5.629  -5.531  24.293  0.00  0.00    +0.130 A 
ATOM      7  N   UNL     1       5.185  -5.489  22.973  0.00  0.00    -0.342 N 
ATOM      8  H   UNL     1       4.245  -5.863  22.921  0.00  0.00    +0.144 HD
ATOM      9  H   UNL     1       5.305  -4.586  22.529  0.00  0.00    +0.144 HD
ATOM     10  C   UNL     1       6.877  -5.004  24.688  0.00  0.00    +0.054 A 
ATOM     11  C   UNL     1       7.792  -4.198  23.927  0.00  0.00    +0.025 A 
ATOM     12  C   UNL     1       9.064  -3.912  24.438  0.00  0.00    +0.016 A 
ATOM     13  C   UNL     1       9.408  -4.324  25.718  0.00  0.00    +0.003 A 
ATOM     14  C   UNL     1       8.471  -4.999  26.495  0.00  0.00    +0.028 A 
ATOM     15  C   UNL     1       7.223  -5.352  26.002  0.00  0.00    +0.079 A 
ATOM     16  N   UNL     1       6.421  -6.039  26.820  0.00  0.00    -0.215 NA
ENDROOT
BRANCH  11  17
ATOM     17  S   UNL     1       7.407  -3.503  22.316  0.00  0.00    -0.089 S 
BRANCH  17  18
ATOM     18  C   UNL     1       8.083  -1.844  22.366  0.00  0.00    +0.013 A 
ATOM     19  C   UNL     1       9.294  -1.465  21.777  0.00  0.00    +0.015 A 
ATOM     20  C   UNL     1       9.760  -0.148  21.887  0.00  0.00    +0.001 A 
ATOM     21  C   UNL     1       9.023   0.802  22.596  0.00  0.00    +0.000 A 
ATOM     22  C   UNL     1       7.827   0.432  23.202  0.00  0.00    +0.001 A 
ATOM     23  C   UNL     1       7.364  -0.882  23.090  0.00  0.00    +0.015 A 
ENDBRANCH  17  18
ENDBRANCH  11  17
TORSDOF 2
ENDMDL
MODEL 4
REMARK VINA RESULT:      -6.5      3.042      6.202
REMARK  Name = 
REMARK  2 active torsions:
REMARK  status: ('A' for Active; 'I' for Inactive)
REMARK    1  A    between atoms: C_9  and  S_10
REMARK    2  A    between atoms: S_10  and  C_11
REMARK                            x       y       z     vdW  Elec       q    Type
REMARK                         _______ _______ _______ _____ _____    ______ ____
ROOT
ATOM      1  N   UNL     1       6.390   3.765  21.816  0.00  0.00    -0.327 N 
ATOM      2  H   UNL     1       5.395   3.854  21.958  0.00  0.00    +0.145 HD
ATOM      3  H   UNL     1       6.761   3.983  20.902  0.00  0.00    +0.145 HD
ATOM      4  C   UNL     1       6.829   2.527  22.234  0.00  0.00    +0.215 A 
ATOM      5  N   UNL     1       6.074   1.874  23.108  0.00  0.00    -0.199 NA
ATOM      6  C   UNL     1       6.509   0.670  23.509  0.00  0.00    +0.130 A 
ATOM      7  N   UNL     1       5.765   0.134  24.558  0.00  0.00    -0.342 N 
ATOM      8  H   UNL     1       4.930   0.691  24.699  0.00  0.00    +0.144 HD
ATOM      9  H   UNL     1       5.598  -0.862  24.475  0.00  0.00    +0.144 HD
ATOM     10  C   UNL     1       7.688   0.061  23.031  0.00  0.00    +0.054 A 
ATOM     11  C   UNL     1       8.222  -1.235  23.350  0.00  0.00    +0.025 A 
ATOM     12  C   UNL     1       9.498  -1.596  22.901  0.00  0.00    +0.016 A 
ATOM     13  C   UNL     1      10.210  -0.743  22.069  0.00  0.00    +0.003 A 
ATOM     14  C   UNL     1       9.634   0.458  21.666  0.00  0.00    +0.028 A 
ATOM     15  C   UNL     1       8.398   0.876  22.137  0.00  0.00    +0.079 A 
ATOM     16  N   UNL     1       7.961   2.068  21.719  0.00  0.00    -0.215 NA
ENDROOT
BRANCH  11  17
ATOM     17  S   UNL     1       7.338  -2.469  24.310  0.00  0.00    -0.089 S 
BRANCH  17  18
ATOM     18  C   UNL     1       7.034  -3.807  23.158  0.00  0.00    +0.013 A 
ATOM     19  C   UNL     1       7.585  -5.088  23.270  0.00  0.00    +0.015 A 
ATOM     20  C   UNL     1       7.313  -6.069  22.306  0.00  0.00    +0.001 A 
ATOM     21  C   UNL     1       6.495  -5.775  21.215  0.00  0.00    +0.000 A 
ATOM     22  C   UNL     1       5.957  -4.499  21.082  0.00  0.00    +0.001 A 
ATOM     23  C   UNL     1       6.229  -3.523  22.045  0.00  0.00    +0.015 A 
ENDBRANCH  17  18
ENDBRANCH  11  17
TORSDOF 2
ENDMDL
MODEL 5
REMARK VINA RESULT:      -6.5      1.932      3.084
REMARK  Name = 
REMARK  2 active torsions:
REMARK  status: ('A' for Active; 'I' for Inactive)
REMARK    1  A    between atoms: C_9  and  S_10
REMARK    2  A    between atoms: S_10  and  C_11
REMARK                            x       y       z     vdW  Elec       q    Type
REMARK                         _______ _______ _______ _____ _____    ______ ____
ROOT
ATOM      1  N   UNL     1       5.680  -6.396  21.203  0.00  0.00    -0.327 N 
ATOM      2  H   UNL     1       4.761  -6.142  20.872  0.00  0.00    +0.145 HD
ATOM      3  H   UNL     1       5.792  -7.294  21.652  0.00  0.00    +0.145 HD
ATOM      4  C   UNL     1       6.204  -5.393  21.990  0.00  0.00    +0.215 A 
ATOM      5  N   UNL     1       5.707  -4.172  21.836  0.00  0.00    -0.199 NA
ATOM      6  C   UNL     1       6.223  -3.203  22.605  0.00  0.00    +0.130 A 
ATOM      7  N   UNL     1       5.784  -1.927  22.256  0.00  0.00    -0.342 N 
ATOM      8  H   UNL     1       5.025  -2.001  21.590  0.00  0.00    +0.144 HD
ATOM      9  H   UNL     1       5.592  -1.328  23.050  0.00  0.00    +0.144 HD
ATOM     10  C   UNL     1       7.223  -3.419  23.576  0.00  0.00    +0.054 A 
ATOM     11  C   UNL     1       7.812  -2.472  24.484  0.00  0.00    +0.025 A 
ATOM     12  C   UNL     1       8.916  -2.842  25.262  0.00  0.00    +0.016 A 
ATOM     13  C   UNL     1       9.384  -4.148  25.228  0.00  0.00    +0.003 A 
ATOM     14  C   UNL     1       8.731  -5.089  24.436  0.00  0.00    +0.028 A 
ATOM     15  C   UNL     1       7.672  -4.747  23.609  0.00  0.00    +0.079 A 
ATOM     16  N   UNL     1       7.151  -5.722  22.858  0.00  0.00    -0.215 NA
ENDROOT
BRANCH  11  17
ATOM     17  S   UNL     1       7.208  -0.795  24.706  0.00  0.00    -0.089 S 
BRANCH  17  18
ATOM     18  C   UNL     1       8.357   0.225  23.783  0.00  0.00    +0.013 A 
ATOM     19  C   UNL     1       8.662   0.047  22.429  0.00  0.00    +0.015 A 
ATOM     20  C   UNL     1       9.594   0.877  21.792  0.00  0.00    +0.001 A 
ATOM     21  C   UNL     1      10.239   1.888  22.505  0.00  0.00    +0.000 A 
ATOM     22  C   UNL     1       9.959   2.062  23.856  0.00  0.00    +0.001 A 
ATOM     23  C   UNL     1       9.028   1.233  24.490  0.00  0.00    +0.015 A 
ENDBRANCH  17  18
ENDBRANCH  11  17
TORSDOF 2
ENDMDL
MODEL 6
REMARK VINA RESULT:      -6.4      3.074      5.795
REMARK  Name = 
REMARK  2 active torsions:
REMARK  status: ('A' for Active; 'I' for Inactive)
REMARK    1  A    between atoms: C_9  and  S_10
REMARK    2  A    between atoms: S_10  and  C_11
REMARK                            x       y       z     vdW  Elec       q    Type
REMARK                         _______ _______ _______ _____ _____    ______ ____
ROOT
ATOM      1  N   UNL     1      10.843   4.058  23.262  0.00  0.00    -0.327 N 
ATOM      2  H   UNL     1      10.441   4.785  23.835  0.00  0.00    +0.145 HD
ATOM      3  H   UNL     1      10.992   4.253  22.282  0.00  0.00    +0.145 HD
ATOM      4  C   UNL     1      10.147   2.879  23.420  0.00  0.00    +0.215 A 
ATOM      5  N   UNL     1       9.433   2.734  24.529  0.00  0.00    -0.199 NA
ATOM      6  C   UNL     1       8.759   1.584  24.674  0.00  0.00    +0.130 A 
ATOM      7  N   UNL     1       8.189   1.432  25.936  0.00  0.00    -0.342 N 
ATOM      8  H   UNL     1       8.256   2.306  26.445  0.00  0.00    +0.144 HD
ATOM      9  H   UNL     1       7.263   1.022  25.921  0.00  0.00    +0.144 HD
ATOM     10  C   UNL     1       8.745   0.555  23.710  0.00  0.00    +0.054 A 
ATOM     11  C   UNL     1       8.027  -0.690  23.736  0.00  0.00    +0.025 A 
ATOM     12  C   UNL     1       8.273  -1.662  22.759  0.00  0.00    +0.016 A 
ATOM     13  C   UNL     1       9.140  -1.389  21.710  0.00  0.00    +0.003 A 
ATOM     14  C   UNL     1       9.739  -0.135  21.626  0.00  0.00    +0.028 A 
ATOM     15  C   UNL     1       9.564   0.831  22.606  0.00  0.00    +0.079 A 
ATOM     16  N   UNL     1      10.224   1.983  22.446  0.00  0.00    -0.215 NA
ENDROOT
BRANCH  11  17
ATOM     17  S   UNL     1       6.788  -1.101  24.971  0.00  0.00    -0.089 S 
BRANCH  17  18
ATOM     18  C   UNL     1       7.162  -2.788  25.443  0.00  0.00    +0.013 A 
ATOM     19  C   UNL     1       6.329  -3.884  25.190  0.00  0.00    +0.015 A 
ATOM     20  C   UNL     1       6.691  -5.169  25.618  0.00  0.00    +0.001 A 
ATOM     21  C   UNL     1       7.883  -5.369  26.314  0.00  0.00    +0.000 A 
ATOM     22  C   UNL     1       8.709  -4.285  26.589  0.00  0.00    +0.001 A 
ATOM     23  C   UNL     1       8.348  -3.005  26.160  0.00  0.00    +0.015 A 
ENDBRANCH  17  18
ENDBRANCH  11  17
TORSDOF 2
ENDMDL
MODEL 7
REMARK VINA RESULT:      -6.3      2.921      5.945
REMARK  Name = 
REMARK  2 active torsions:
REMARK  status: ('A' for Active; 'I' for Inactive)
REMARK    1  A    between atoms: C_9  and  S_10
REMARK    2  A    between atoms: S_10  and  C_11
REMARK                            x       y       z     vdW  Elec       q    Type
REMARK                         _______ _______ _______ _____ _____    ______ ____
ROOT
ATOM      1  N   UNL     1      10.781   3.325  22.707  0.00  0.00    -0.327 N 
ATOM      2  H   UNL     1      11.668   3.052  22.311  0.00  0.00    +0.145 HD
ATOM      3  H   UNL     1      10.788   3.849  23.571  0.00  0.00    +0.145 HD
ATOM      4  C   UNL     1       9.941   2.237  22.809  0.00  0.00    +0.215 A 
ATOM      5  N   UNL     1      10.191   1.197  22.024  0.00  0.00    -0.199 NA
ATOM      6  C   UNL     1       9.368   0.143  22.129  0.00  0.00    +0.130 A 
ATOM      7  N   UNL     1       9.581  -0.825  21.150  0.00  0.00    -0.342 N 
ATOM      8  H   UNL     1      10.436  -0.616  20.648  0.00  0.00    +0.144 HD
ATOM      9  H   UNL     1       9.515  -1.776  21.493  0.00  0.00    +0.144 HD
ATOM     10  C   UNL     1       8.293   0.073  23.040  0.00  0.00    +0.054 A 
ATOM     11  C   UNL     1       7.383  -1.015  23.272  0.00  0.00    +0.025 A 
ATOM     12  C   UNL     1       6.271  -0.832  24.103  0.00  0.00    +0.016 A 
ATOM     13  C   UNL     1       6.097   0.368  24.777  0.00  0.00    +0.003 A 
ATOM     14  C   UNL     1       7.048   1.374  24.640  0.00  0.00    +0.028 A 
ATOM     15  C   UNL     1       8.131   1.252  23.782  0.00  0.00    +0.079 A 
ATOM     16  N   UNL     1       8.957   2.299  23.696  0.00  0.00    -0.215 NA
ENDROOT
BRANCH  11  17
ATOM     17  S   UNL     1       7.581  -2.651  22.556  0.00  0.00    -0.089 S 
BRANCH  17  18
ATOM     18  C   UNL     1       7.784  -3.740  23.964  0.00  0.00    +0.013 A 
ATOM     19  C   UNL     1       6.751  -4.489  24.540  0.00  0.00    +0.015 A 
ATOM     20  C   UNL     1       6.996  -5.298  25.659  0.00  0.00    +0.001 A 
ATOM     21  C   UNL     1       8.272  -5.358  26.218  0.00  0.00    +0.000 A 
ATOM     22  C   UNL     1       9.301  -4.604  25.666  0.00  0.00    +0.001 A 
ATOM     23  C   UNL     1       9.056  -3.798  24.550  0.00  0.00    +0.015 A 
ENDBRANCH  17  18
ENDBRANCH  11  17
TORSDOF 2
ENDMDL
MODEL 8
REMARK VINA RESULT:      -6.3      2.266      3.440
REMARK  Name = 
REMARK  2 active torsions:
REMARK  status: ('A' for Active; 'I' for Inactive)
REMARK    1  A    between atoms: C_9  and  S_10
REMARK    2  A    between atoms: S_10  and  C_11
REMARK                            x       y       z     vdW  Elec       q    Type
REMARK                         _______ _______ _______ _____ _____    ______ ____
ROOT
ATOM      1  N   UNL     1       9.485  -4.197  24.908  0.00  0.00    -0.327 N 
ATOM      2  H   UNL     1       9.656  -4.286  25.899  0.00  0.00    +0.145 HD
ATOM      3  H   UNL     1      10.141  -4.629  24.272  0.00  0.00    +0.145 HD
ATOM      4  C   UNL     1       9.279  -2.877  24.568  0.00  0.00    +0.215 A 
ATOM      5  N   UNL     1       8.896  -2.051  25.533  0.00  0.00    -0.199 NA
ATOM      6  C   UNL     1       8.699  -0.768  25.194  0.00  0.00    +0.130 A 
ATOM      7  N   UNL     1       8.122  -0.010  26.211  0.00  0.00    -0.342 N 
ATOM      8  H   UNL     1       8.121  -0.544  27.072  0.00  0.00    +0.144 HD
ATOM      9  H   UNL     1       8.507   0.924  26.294  0.00  0.00    +0.144 HD
ATOM     10  C   UNL     1       8.908  -0.258  23.896  0.00  0.00    +0.054 A 
ATOM     11  C   UNL     1       8.776   1.097  23.432  0.00  0.00    +0.025 A 
ATOM     12  C   UNL     1       8.864   1.379  22.064  0.00  0.00    +0.016 A 
ATOM     13  C   UNL     1       9.172   0.369  21.164  0.00  0.00    +0.003 A 
ATOM     14  C   UNL     1       9.417  -0.917  21.636  0.00  0.00    +0.028 A 
ATOM     15  C   UNL     1       9.283  -1.247  22.976  0.00  0.00    +0.079 A 
ATOM     16  N   UNL     1       9.499  -2.523  23.310  0.00  0.00    -0.215 NA
ENDROOT
BRANCH  11  17
ATOM     17  S   UNL     1       8.505   2.501  24.519  0.00  0.00    -0.089 S 
BRANCH  17  18
ATOM     18  C   UNL     1       9.753   3.693  24.039  0.00  0.00    +0.013 A 
ATOM     19  C   UNL     1      11.041   3.359  23.605  0.00  0.00    +0.015 A 
ATOM     20  C   UNL     1      11.964   4.360  23.272  0.00  0.00    +0.001 A 
ATOM     21  C   UNL     1      11.612   5.705  23.380  0.00  0.00    +0.000 A 
ATOM     22  C   UNL     1      10.342   6.050  23.829  0.00  0.00    +0.001 A 
ATOM     23  C   UNL     1       9.422   5.050  24.159  0.00  0.00    +0.015 A 
ENDBRANCH  17  18
ENDBRANCH  11  17
TORSDOF 2
ENDMDL
MODEL 9
REMARK VINA RESULT:      -6.3      2.981      3.741
REMARK  Name = 
REMARK  2 active torsions:
REMARK  status: ('A' for Active; 'I' for Inactive)
REMARK    1  A    between atoms: C_9  and  S_10
REMARK    2  A    between atoms: S_10  and  C_11
REMARK                            x       y       z     vdW  Elec       q    Type
REMARK                         _______ _______ _______ _____ _____    ______ ____
ROOT
ATOM      1  N   UNL     1       3.663  -7.517  26.319  0.00  0.00    -0.327 N 
ATOM      2  H   UNL     1       3.970  -7.965  27.169  0.00  0.00    +0.145 HD
ATOM      3  H   UNL     1       3.230  -8.090  25.609  0.00  0.00    +0.145 HD
ATOM      4  C   UNL     1       4.681  -6.762  25.776  0.00  0.00    +0.215 A 
ATOM      5  N   UNL     1       5.656  -6.376  26.589  0.00  0.00    -0.199 NA
ATOM      6  C   UNL     1       6.642  -5.642  26.053  0.00  0.00    +0.130 A 
ATOM      7  N   UNL     1       7.523  -5.123  27.000  0.00  0.00    -0.342 N 
ATOM      8  H   UNL     1       7.338  -5.545  27.902  0.00  0.00    +0.144 HD
ATOM      9  H   UNL     1       8.494  -5.148  26.713  0.00  0.00    +0.144 HD
ATOM     10  C   UNL     1       6.711  -5.297  24.687  0.00  0.00    +0.054 A 
ATOM     11  C   UNL     1       7.736  -4.563  23.997  0.00  0.00    +0.025 A 
ATOM     12  C   UNL     1       7.543  -4.173  22.666  0.00  0.00    +0.016 A 
ATOM     13  C   UNL     1       6.405  -4.576  21.982  0.00  0.00    +0.003 A 
ATOM     14  C   UNL     1       5.474  -5.389  22.622  0.00  0.00    +0.028 A 
ATOM     15  C   UNL     1       5.602  -5.747  23.955  0.00  0.00    +0.079 A 
ATOM     16  N   UNL     1       4.625  -6.494  24.479  0.00  0.00    -0.215 NA
ENDROOT
BRANCH  11  17
ATOM     17  S   UNL     1       9.303  -4.098  24.743  0.00  0.00    -0.089 S 
BRANCH  17  18
ATOM     18  C   UNL     1       9.236  -2.312  24.862  0.00  0.00    +0.013 A 
ATOM     19  C   UNL     1       8.573  -1.610  25.875  0.00  0.00    +0.015 A 
ATOM     20  C   UNL     1       8.550  -0.208  25.875  0.00  0.00    +0.001 A 
ATOM     21  C   UNL     1       9.182   0.505  24.857  0.00  0.00    +0.000 A 
ATOM     22  C   UNL     1       9.827  -0.181  23.834  0.00  0.00    +0.001 A 
ATOM     23  C   UNL     1       9.850  -1.579  23.836  0.00  0.00    +0.015 A 
ENDBRANCH  17  18
ENDBRANCH  11  17
TORSDOF 2
ENDMDL
