MODEL 1
REMARK VINA RESULT:      -6.7      0.000      0.000
REMARK  Name = 
REMARK  7 active torsions:
REMARK  status: ('A' for Active; 'I' for Inactive)
REMARK    1  A    between atoms: O_1  and  C_2
REMARK    2  A    between atoms: C_2  and  C_3
REMARK    3  A    between atoms: C_3  and  N_4
REMARK    4  A    between atoms: N_7  and  C_8
REMARK    5  A    between atoms: C_8  and  C_9
REMARK    6  A    between atoms: C_9  and  C_10
REMARK    7  A    between atoms: C_10  and  N_11
REMARK                            x       y       z     vdW  Elec       q    Type
REMARK                         _______ _______ _______ _____ _____    ______ ____
ROOT
ATOM      1  N   UNL     1       9.295   2.214  24.263  0.00  0.00    -0.298 N 
ATOM      2  C   UNL     1       9.865   3.483  23.940  0.00  0.00    +0.049 A 
ATOM      3  C   UNL     1      11.237   3.660  23.642  0.00  0.00    +0.044 A 
ATOM      4  C   UNL     1      11.792   4.914  23.356  0.00  0.00    +0.043 A 
ATOM      5  C   UNL     1      11.011   6.055  23.384  0.00  0.00    +0.021 A 
ATOM      6  C   UNL     1       9.660   5.927  23.676  0.00  0.00    +0.018 A 
ATOM      7 CL   UNL     1      13.467   5.043  22.974  0.00  0.00    -0.083 Cl
ATOM      8  C   UNL     1       9.087   4.664  23.937  0.00  0.00    +0.034 A 
ATOM      9  S   UNL     1       7.330   4.694  24.198  0.00  0.00    -0.086 S 
ATOM     10  C   UNL     1       6.986   3.024  24.680  0.00  0.00    +0.034 A 
ATOM     11  C   UNL     1       5.642   2.756  25.010  0.00  0.00    +0.017 A 
ATOM     12  C   UNL     1       5.236   1.492  25.420  0.00  0.00    +0.001 A 
ATOM     13  C   UNL     1       6.187   0.497  25.555  0.00  0.00    +0.002 A 
ATOM     14  C   UNL     1       7.524   0.763  25.243  0.00  0.00    +0.024 A 
ATOM     15  C   UNL     1       7.957   2.007  24.726  0.00  0.00    +0.048 A 
ENDROOT
BRANCH   1  16
ATOM     16  C   UNL     1      10.080   0.982  23.977  0.00  0.00    +0.112 C 
BRANCH  16  17
ATOM     17  C   UNL     1       9.971   0.486  22.525  0.00  0.00    +0.035 C 
BRANCH  17  18
ATOM     18  C   UNL     1       8.779  -0.436  22.258  0.00  0.00    +0.086 C 
BRANCH  18  22
ATOM     19  N   UNL     1       7.898  -3.270  24.596  0.00  0.00    -0.298 NA
ATOM     20  C   UNL     1       7.100  -2.785  23.449  0.00  0.00    +0.100 C 
ATOM     21  C   UNL     1       7.881  -2.674  22.116  0.00  0.00    +0.100 C 
ATOM     22  N   UNL     1       9.116  -1.864  22.202  0.00  0.00    -0.300 NA
ATOM     23  C   UNL     1       9.914  -2.327  23.356  0.00  0.00    +0.100 C 
ATOM     24  C   UNL     1       9.129  -2.449  24.686  0.00  0.00    +0.100 C 
BRANCH  19  25
ATOM     25  C   UNL     1       8.256  -4.698  24.497  0.00  0.00    +0.112 C 
BRANCH  25  26
ATOM     26  C   UNL     1       9.198  -5.223  25.590  0.00  0.00    +0.171 C 
BRANCH  26  27
ATOM     27  O   UNL     1       8.427  -5.902  26.580  0.00  0.00    -0.394 OA
ATOM     28  H   UNL     1       7.602  -5.398  26.689  0.00  0.00    +0.209 HD
ENDBRANCH  26  27
ENDBRANCH  25  26
ENDBRANCH  19  25
ENDBRANCH  18  22
ENDBRANCH  17  18
ENDBRANCH  16  17
ENDBRANCH   1  16
TORSDOF 7
ENDMDL
MODEL 2
REMARK VINA RESULT:      -6.7      5.046      8.943
REMARK  Name = 
REMARK  7 active torsions:
REMARK  status: ('A' for Active; 'I' for Inactive)
REMARK    1  A    between atoms: O_1  and  C_2
REMARK    2  A    between atoms: C_2  and  C_3
REMARK    3  A    between atoms: C_3  and  N_4
REMARK    4  A    between atoms: N_7  and  C_8
REMARK    5  A    between atoms: C_8  and  C_9
REMARK    6  A    between atoms: C_9  and  C_10
REMARK    7  A    between atoms: C_10  and  N_11
REMARK                            x       y       z     vdW  Elec       q    Type
REMARK                         _______ _______ _______ _____ _____    ______ ____
ROOT
ATOM      1  N   UNL     1       6.817  -5.251  25.428  0.00  0.00    -0.298 N 
ATOM      2  C   UNL     1       5.922  -5.696  26.449  0.00  0.00    +0.049 A 
ATOM      3  C   UNL     1       6.214  -5.593  27.829  0.00  0.00    +0.044 A 
ATOM      4  C   UNL     1       5.343  -6.061  28.822  0.00  0.00    +0.043 A 
ATOM      5  C   UNL     1       4.154  -6.680  28.483  0.00  0.00    +0.021 A 
ATOM      6  C   UNL     1       3.830  -6.806  27.139  0.00  0.00    +0.018 A 
ATOM      7 CL   UNL     1       5.756  -5.872  30.484  0.00  0.00    -0.083 Cl
ATOM      8  C   UNL     1       4.689  -6.312  26.133  0.00  0.00    +0.034 A 
ATOM      9  S   UNL     1       4.060  -6.483  24.481  0.00  0.00    -0.086 S 
ATOM     10  C   UNL     1       5.434  -5.960  23.492  0.00  0.00    +0.034 A 
ATOM     11  C   UNL     1       5.240  -6.041  22.099  0.00  0.00    +0.017 A 
ATOM     12  C   UNL     1       6.242  -5.677  21.207  0.00  0.00    +0.001 A 
ATOM     13  C   UNL     1       7.468  -5.280  21.706  0.00  0.00    +0.002 A 
ATOM     14  C   UNL     1       7.669  -5.213  23.089  0.00  0.00    +0.024 A 
ATOM     15  C   UNL     1       6.643  -5.477  24.026  0.00  0.00    +0.048 A 
ENDROOT
BRANCH   1  16
ATOM     16  C   UNL     1       7.952  -4.365  25.807  0.00  0.00    +0.112 C 
BRANCH  16  17
ATOM     17  C   UNL     1       7.544  -2.919  26.134  0.00  0.00    +0.035 C 
BRANCH  17  18
ATOM     18  C   UNL     1       8.620  -1.873  25.838  0.00  0.00    +0.086 C 
BRANCH  18  22
ATOM     19  N   UNL     1       9.817  -0.857  22.402  0.00  0.00    -0.298 NA
ATOM     20  C   UNL     1       8.766  -1.848  22.718  0.00  0.00    +0.100 C 
ATOM     21  C   UNL     1       7.666  -1.341  23.683  0.00  0.00    +0.100 C 
ATOM     22  N   UNL     1       8.183  -0.785  24.954  0.00  0.00    -0.300 NA
ATOM     23  C   UNL     1       9.247   0.194  24.651  0.00  0.00    +0.100 C 
ATOM     24  C   UNL     1      10.340  -0.310  23.676  0.00  0.00    +0.100 C 
BRANCH  19  25
ATOM     25  C   UNL     1       9.342   0.245  21.543  0.00  0.00    +0.112 C 
BRANCH  25  26
ATOM     26  C   UNL     1       9.991   1.613  21.798  0.00  0.00    +0.171 C 
BRANCH  26  27
ATOM     27  O   UNL     1       8.977   2.617  21.785  0.00  0.00    -0.394 OA
ATOM     28  H   UNL     1       8.572   2.619  22.669  0.00  0.00    +0.209 HD
ENDBRANCH  26  27
ENDBRANCH  25  26
ENDBRANCH  19  25
ENDBRANCH  18  22
ENDBRANCH  17  18
ENDBRANCH  16  17
ENDBRANCH   1  16
TORSDOF 7
ENDMDL
MODEL 3
REMARK VINA RESULT:      -6.6      2.100      4.212
REMARK  Name = 
REMARK  7 active torsions:
REMARK  status: ('A' for Active; 'I' for Inactive)
REMARK    1  A    between atoms: O_1  and  C_2
REMARK    2  A    between atoms: C_2  and  C_3
REMARK    3  A    between atoms: C_3  and  N_4
REMARK    4  A    between atoms: N_7  and  C_8
REMARK    5  A    between atoms: C_8  and  C_9
REMARK    6  A    between atoms: C_9  and  C_10
REMARK    7  A    between atoms: C_10  and  N_11
REMARK                            x       y       z     vdW  Elec       q    Type
REMARK                         _______ _______ _______ _____ _____    ______ ____
ROOT
ATOM      1  N   UNL     1       9.236   2.243  24.411  0.00  0.00    -0.298 N 
ATOM      2  C   UNL     1       7.885   2.152  24.864  0.00  0.00    +0.049 A 
ATOM      3  C   UNL     1       7.211   0.920  25.038  0.00  0.00    +0.044 A 
ATOM      4  C   UNL     1       5.875   0.843  25.453  0.00  0.00    +0.043 A 
ATOM      5  C   UNL     1       5.140   1.990  25.686  0.00  0.00    +0.021 A 
ATOM      6  C   UNL     1       5.762   3.221  25.523  0.00  0.00    +0.018 A 
ATOM      7 CL   UNL     1       5.133  -0.697  25.670  0.00  0.00    -0.083 Cl
ATOM      8  C   UNL     1       7.115   3.308  25.132  0.00  0.00    +0.034 A 
ATOM      9  S   UNL     1       7.757   4.963  25.068  0.00  0.00    -0.086 S 
ATOM     10  C   UNL     1       9.369   4.722  24.373  0.00  0.00    +0.034 A 
ATOM     11  C   UNL     1      10.111   5.899  24.151  0.00  0.00    +0.017 A 
ATOM     12  C   UNL     1      11.385   5.856  23.595  0.00  0.00    +0.001 A 
ATOM     13  C   UNL     1      11.903   4.635  23.207  0.00  0.00    +0.002 A 
ATOM     14  C   UNL     1      11.162   3.466  23.412  0.00  0.00    +0.024 A 
ATOM     15  C   UNL     1       9.908   3.460  24.066  0.00  0.00    +0.048 A 
ENDROOT
BRANCH   1  16
ATOM     16  C   UNL     1      10.079   1.016  24.417  0.00  0.00    +0.112 C 
BRANCH  16  17
ATOM     17  C   UNL     1      10.271   0.374  23.033  0.00  0.00    +0.035 C 
BRANCH  17  18
ATOM     18  C   UNL     1       9.080  -0.454  22.547  0.00  0.00    +0.086 C 
BRANCH  18  22
ATOM     19  N   UNL     1       7.666  -3.263  24.641  0.00  0.00    -0.298 NA
ATOM     20  C   UNL     1       7.085  -2.701  23.403  0.00  0.00    +0.100 C 
ATOM     21  C   UNL     1       8.065  -2.620  22.206  0.00  0.00    +0.100 C 
ATOM     22  N   UNL     1       9.325  -1.901  22.501  0.00  0.00    -0.300 NA
ATOM     23  C   UNL     1       9.905  -2.442  23.747  0.00  0.00    +0.100 C 
ATOM     24  C   UNL     1       8.921  -2.534  24.940  0.00  0.00    +0.100 C 
BRANCH  19  25
ATOM     25  C   UNL     1       7.937  -4.711  24.555  0.00  0.00    +0.112 C 
BRANCH  25  26
ATOM     26  C   UNL     1       8.741  -5.306  25.720  0.00  0.00    +0.171 C 
BRANCH  26  27
ATOM     27  O   UNL     1       9.900  -5.956  25.201  0.00  0.00    -0.394 OA
ATOM     28  H   UNL     1       9.951  -5.727  24.257  0.00  0.00    +0.209 HD
ENDBRANCH  26  27
ENDBRANCH  25  26
ENDBRANCH  19  25
ENDBRANCH  18  22
ENDBRANCH  17  18
ENDBRANCH  16  17
ENDBRANCH   1  16
TORSDOF 7
ENDMDL
MODEL 4
REMARK VINA RESULT:      -6.4      4.251      7.535
REMARK  Name = 
REMARK  7 active torsions:
REMARK  status: ('A' for Active; 'I' for Inactive)
REMARK    1  A    between atoms: O_1  and  C_2
REMARK    2  A    between atoms: C_2  and  C_3
REMARK    3  A    between atoms: C_3  and  N_4
REMARK    4  A    between atoms: N_7  and  C_8
REMARK    5  A    between atoms: C_8  and  C_9
REMARK    6  A    between atoms: C_9  and  C_10
REMARK    7  A    between atoms: C_10  and  N_11
REMARK                            x       y       z     vdW  Elec       q    Type
REMARK                         _______ _______ _______ _____ _____    ______ ____
ROOT
ATOM      1  N   UNL     1       9.072  -1.040  25.222  0.00  0.00    -0.298 N 
ATOM      2  C   UNL     1       8.589  -2.368  25.012  0.00  0.00    +0.049 A 
ATOM      3  C   UNL     1       8.321  -3.268  26.070  0.00  0.00    +0.044 A 
ATOM      4  C   UNL     1       7.877  -4.579  25.852  0.00  0.00    +0.043 A 
ATOM      5  C   UNL     1       7.710  -5.064  24.568  0.00  0.00    +0.021 A 
ATOM      6  C   UNL     1       7.966  -4.215  23.500  0.00  0.00    +0.018 A 
ATOM      7 CL   UNL     1       7.543  -5.606  27.195  0.00  0.00    -0.083 Cl
ATOM      8  C   UNL     1       8.386  -2.884  23.711  0.00  0.00    +0.034 A 
ATOM      9  S   UNL     1       8.574  -1.928  22.225  0.00  0.00    -0.086 S 
ATOM     10  C   UNL     1       9.279  -0.419  22.827  0.00  0.00    +0.034 A 
ATOM     11  C   UNL     1       9.594   0.536  21.840  0.00  0.00    +0.017 A 
ATOM     12  C   UNL     1      10.168   1.757  22.172  0.00  0.00    +0.001 A 
ATOM     13  C   UNL     1      10.482   2.010  23.494  0.00  0.00    +0.002 A 
ATOM     14  C   UNL     1      10.185   1.058  24.475  0.00  0.00    +0.024 A 
ATOM     15  C   UNL     1       9.510  -0.152  24.189  0.00  0.00    +0.048 A 
ENDROOT
BRANCH   1  16
ATOM     16  C   UNL     1       8.997  -0.459  26.590  0.00  0.00    +0.112 C 
BRANCH  16  17
ATOM     17  C   UNL     1       7.577  -0.066  27.033  0.00  0.00    +0.035 C 
BRANCH  17  18
ATOM     18  C   UNL     1       7.091   1.277  26.486  0.00  0.00    +0.086 C 
BRANCH  18  22
ATOM     19  N   UNL     1       5.759   3.357  23.626  0.00  0.00    -0.298 NA
ATOM     20  C   UNL     1       6.580   2.131  23.524  0.00  0.00    +0.100 C 
ATOM     21  C   UNL     1       6.046   0.925  24.336  0.00  0.00    +0.100 C 
ATOM     22  N   UNL     1       5.811   1.213  25.768  0.00  0.00    -0.300 NA
ATOM     23  C   UNL     1       5.006   2.446  25.883  0.00  0.00    +0.100 C 
ATOM     24  C   UNL     1       5.534   3.649  25.062  0.00  0.00    +0.100 C 
BRANCH  19  25
ATOM     25  C   UNL     1       4.463   3.252  22.929  0.00  0.00    +0.112 C 
BRANCH  25  26
ATOM     26  C   UNL     1       3.806   4.586  22.544  0.00  0.00    +0.171 C 
BRANCH  26  27
ATOM     27  O   UNL     1       4.820   5.500  22.131  0.00  0.00    -0.394 OA
ATOM     28  H   UNL     1       5.162   5.176  21.280  0.00  0.00    +0.209 HD
ENDBRANCH  26  27
ENDBRANCH  25  26
ENDBRANCH  19  25
ENDBRANCH  18  22
ENDBRANCH  17  18
ENDBRANCH  16  17
ENDBRANCH   1  16
TORSDOF 7
ENDMDL
MODEL 5
REMARK VINA RESULT:      -6.4      3.917      7.386
REMARK  Name = 
REMARK  7 active torsions:
REMARK  status: ('A' for Active; 'I' for Inactive)
REMARK    1  A    between atoms: O_1  and  C_2
REMARK    2  A    between atoms: C_2  and  C_3
REMARK    3  A    between atoms: C_3  and  N_4
REMARK    4  A    between atoms: N_7  and  C_8
REMARK    5  A    between atoms: C_8  and  C_9
REMARK    6  A    between atoms: C_9  and  C_10
REMARK    7  A    between atoms: C_10  and  N_11
REMARK                            x       y       z     vdW  Elec       q    Type
REMARK                         _______ _______ _______ _____ _____    ______ ____
ROOT
ATOM      1  N   UNL     1       7.455  -3.114  24.336  0.00  0.00    -0.298 N 
ATOM      2  C   UNL     1       6.723  -2.314  25.265  0.00  0.00    +0.049 A 
ATOM      3  C   UNL     1       7.333  -1.349  26.100  0.00  0.00    +0.044 A 
ATOM      4  C   UNL     1       6.610  -0.591  27.030  0.00  0.00    +0.043 A 
ATOM      5  C   UNL     1       5.250  -0.780  27.192  0.00  0.00    +0.021 A 
ATOM      6  C   UNL     1       4.612  -1.721  26.395  0.00  0.00    +0.018 A 
ATOM      7 CL   UNL     1       7.421   0.588  27.992  0.00  0.00    -0.083 Cl
ATOM      8  C   UNL     1       5.328  -2.469  25.435  0.00  0.00    +0.034 A 
ATOM      9  S   UNL     1       4.323  -3.554  24.450  0.00  0.00    -0.086 S 
ATOM     10  C   UNL     1       5.531  -4.454  23.519  0.00  0.00    +0.034 A 
ATOM     11  C   UNL     1       5.015  -5.450  22.666  0.00  0.00    +0.017 A 
ATOM     12  C   UNL     1       5.853  -6.243  21.890  0.00  0.00    +0.001 A 
ATOM     13  C   UNL     1       7.221  -6.079  22.004  0.00  0.00    +0.002 A 
ATOM     14  C   UNL     1       7.737  -5.101  22.861  0.00  0.00    +0.024 A 
ATOM     15  C   UNL     1       6.915  -4.209  23.589  0.00  0.00    +0.048 A 
ENDROOT
BRANCH   1  16
ATOM     16  C   UNL     1       8.850  -2.721  23.994  0.00  0.00    +0.112 C 
BRANCH  16  17
ATOM     17  C   UNL     1       8.968  -1.841  22.739  0.00  0.00    +0.035 C 
BRANCH  17  18
ATOM     18  C   UNL     1       9.733  -0.532  22.951  0.00  0.00    +0.086 C 
BRANCH  18  22
ATOM     19  N   UNL     1       9.473   2.960  24.368  0.00  0.00    -0.298 NA
ATOM     20  C   UNL     1      10.537   2.439  23.483  0.00  0.00    +0.100 C 
ATOM     21  C   UNL     1      10.027   1.744  22.196  0.00  0.00    +0.100 C 
ATOM     22  N   UNL     1       9.047   0.661  22.439  0.00  0.00    -0.300 NA
ATOM     23  C   UNL     1       7.989   1.165  23.337  0.00  0.00    +0.100 C 
ATOM     24  C   UNL     1       8.500   1.871  24.618  0.00  0.00    +0.100 C 
BRANCH  19  25
ATOM     25  C   UNL     1       8.775   4.136  23.813  0.00  0.00    +0.112 C 
BRANCH  25  26
ATOM     26  C   UNL     1       9.421   5.496  24.117  0.00  0.00    +0.171 C 
BRANCH  26  27
ATOM     27  O   UNL     1       9.900   6.064  22.899  0.00  0.00    -0.394 OA
ATOM     28  H   UNL     1       9.121   6.385  22.413  0.00  0.00    +0.209 HD
ENDBRANCH  26  27
ENDBRANCH  25  26
ENDBRANCH  19  25
ENDBRANCH  18  22
ENDBRANCH  17  18
ENDBRANCH  16  17
ENDBRANCH   1  16
TORSDOF 7
ENDMDL
MODEL 6
REMARK VINA RESULT:      -6.4      4.405      7.942
REMARK  Name = 
REMARK  7 active torsions:
REMARK  status: ('A' for Active; 'I' for Inactive)
REMARK    1  A    between atoms: O_1  and  C_2
REMARK    2  A    between atoms: C_2  and  C_3
REMARK    3  A    between atoms: C_3  and  N_4
REMARK    4  A    between atoms: N_7  and  C_8
REMARK    5  A    between atoms: C_8  and  C_9
REMARK    6  A    between atoms: C_9  and  C_10
REMARK    7  A    between atoms: C_10  and  N_11
REMARK                            x       y       z     vdW  Elec       q    Type
REMARK                         _______ _______ _______ _____ _____    ______ ____
ROOT
ATOM      1  N   UNL     1       8.486  -2.086  25.454  0.00  0.00    -0.298 N 
ATOM      2  C   UNL     1       7.670  -3.253  25.573  0.00  0.00    +0.049 A 
ATOM      3  C   UNL     1       7.281  -3.798  26.819  0.00  0.00    +0.044 A 
ATOM      4  C   UNL     1       6.506  -4.960  26.925  0.00  0.00    +0.043 A 
ATOM      5  C   UNL     1       6.107  -5.650  25.795  0.00  0.00    +0.021 A 
ATOM      6  C   UNL     1       6.472  -5.152  24.551  0.00  0.00    +0.018 A 
ATOM      7 CL   UNL     1       6.047  -5.546  28.480  0.00  0.00    -0.083 Cl
ATOM      8  C   UNL     1       7.228  -3.966  24.434  0.00  0.00    +0.034 A 
ATOM      9  S   UNL     1       7.515  -3.439  22.762  0.00  0.00    -0.086 S 
ATOM     10  C   UNL     1       8.627  -2.076  22.975  0.00  0.00    +0.034 A 
ATOM     11  C   UNL     1       9.080  -1.476  21.783  0.00  0.00    +0.017 A 
ATOM     12  C   UNL     1       9.969  -0.407  21.805  0.00  0.00    +0.001 A 
ATOM     13  C   UNL     1      10.453   0.034  23.022  0.00  0.00    +0.002 A 
ATOM     14  C   UNL     1      10.017  -0.570  24.206  0.00  0.00    +0.024 A 
ATOM     15  C   UNL     1       9.038  -1.591  24.230  0.00  0.00    +0.048 A 
ENDROOT
BRANCH   1  16
ATOM     16  C   UNL     1       8.682  -1.224  26.651  0.00  0.00    +0.112 C 
BRANCH  16  17
ATOM     17  C   UNL     1       7.572  -0.181  26.867  0.00  0.00    +0.035 C 
BRANCH  17  18
ATOM     18  C   UNL     1       6.793   0.188  25.603  0.00  0.00    +0.086 C 
BRANCH  18  22
ATOM     19  N   UNL     1       8.245   2.970  23.498  0.00  0.00    -0.298 NA
ATOM     20  C   UNL     1       7.167   2.034  23.111  0.00  0.00    +0.100 C 
ATOM     21  C   UNL     1       6.003   1.930  24.127  0.00  0.00    +0.100 C 
ATOM     22  N   UNL     1       6.429   1.608  25.507  0.00  0.00    -0.300 NA
ATOM     23  C   UNL     1       7.519   2.525  25.899  0.00  0.00    +0.100 C 
ATOM     24  C   UNL     1       8.677   2.637  24.876  0.00  0.00    +0.100 C 
BRANCH  19  25
ATOM     25  C   UNL     1       7.842   4.388  23.429  0.00  0.00    +0.112 C 
BRANCH  25  26
ATOM     26  C   UNL     1       7.146   4.818  22.130  0.00  0.00    +0.171 C 
BRANCH  26  27
ATOM     27  O   UNL     1       7.750   6.020  21.656  0.00  0.00    -0.394 OA
ATOM     28  H   UNL     1       8.062   6.506  22.439  0.00  0.00    +0.209 HD
ENDBRANCH  26  27
ENDBRANCH  25  26
ENDBRANCH  19  25
ENDBRANCH  18  22
ENDBRANCH  17  18
ENDBRANCH  16  17
ENDBRANCH   1  16
TORSDOF 7
ENDMDL
MODEL 7
REMARK VINA RESULT:      -6.3      5.207      8.863
REMARK  Name = 
REMARK  7 active torsions:
REMARK  status: ('A' for Active; 'I' for Inactive)
REMARK    1  A    between atoms: O_1  and  C_2
REMARK    2  A    between atoms: C_2  and  C_3
REMARK    3  A    between atoms: C_3  and  N_4
REMARK    4  A    between atoms: N_7  and  C_8
REMARK    5  A    between atoms: C_8  and  C_9
REMARK    6  A    between atoms: C_9  and  C_10
REMARK    7  A    between atoms: C_10  and  N_11
REMARK                            x       y       z     vdW  Elec       q    Type
REMARK                         _______ _______ _______ _____ _____    ______ ____
ROOT
ATOM      1  N   UNL     1       6.140  -5.624  26.549  0.00  0.00    -0.298 N 
ATOM      2  C   UNL     1       5.552  -5.773  25.256  0.00  0.00    +0.049 A 
ATOM      3  C   UNL     1       6.196  -5.363  24.064  0.00  0.00    +0.044 A 
ATOM      4  C   UNL     1       5.598  -5.485  22.803  0.00  0.00    +0.043 A 
ATOM      5  C   UNL     1       4.319  -5.993  22.674  0.00  0.00    +0.021 A 
ATOM      6  C   UNL     1       3.649  -6.403  23.818  0.00  0.00    +0.018 A 
ATOM      7 CL   UNL     1       6.459  -4.989  21.394  0.00  0.00    -0.083 Cl
ATOM      8  C   UNL     1       4.255  -6.310  25.090  0.00  0.00    +0.034 A 
ATOM      9  S   UNL     1       3.278  -6.971  26.419  0.00  0.00    -0.086 S 
ATOM     10  C   UNL     1       4.225  -6.524  27.848  0.00  0.00    +0.034 A 
ATOM     11  C   UNL     1       3.654  -6.881  29.086  0.00  0.00    +0.017 A 
ATOM     12  C   UNL     1       4.283  -6.576  30.288  0.00  0.00    +0.001 A 
ATOM     13  C   UNL     1       5.465  -5.861  30.260  0.00  0.00    +0.002 A 
ATOM     14  C   UNL     1       6.028  -5.492  29.033  0.00  0.00    +0.024 A 
ATOM     15  C   UNL     1       5.470  -5.872  27.789  0.00  0.00    +0.048 A 
ENDROOT
BRANCH   1  16
ATOM     16  C   UNL     1       7.595  -5.324  26.645  0.00  0.00    +0.112 C 
BRANCH  16  17
ATOM     17  C   UNL     1       7.930  -3.824  26.672  0.00  0.00    +0.035 C 
BRANCH  17  18
ATOM     18  C   UNL     1       8.823  -3.352  25.522  0.00  0.00    +0.086 C 
BRANCH  18  22
ATOM     19  N   UNL     1      10.274  -0.611  23.364  0.00  0.00    -0.298 NA
ATOM     20  C   UNL     1      10.122  -2.037  23.003  0.00  0.00    +0.100 C 
ATOM     21  C   UNL     1       8.701  -2.613  23.224  0.00  0.00    +0.100 C 
ATOM     22  N   UNL     1       8.173  -2.418  24.593  0.00  0.00    -0.300 NA
ATOM     23  C   UNL     1       8.336  -1.000  24.972  0.00  0.00    +0.100 C 
ATOM     24  C   UNL     1       9.754  -0.420  24.739  0.00  0.00    +0.100 C 
BRANCH  19  25
ATOM     25  C   UNL     1       9.581   0.304  22.437  0.00  0.00    +0.112 C 
BRANCH  25  26
ATOM     26  C   UNL     1       9.749   1.801  22.732  0.00  0.00    +0.171 C 
BRANCH  26  27
ATOM     27  O   UNL     1      10.439   2.414  21.644  0.00  0.00    -0.394 OA
ATOM     28  H   UNL     1       9.768   2.862  21.101  0.00  0.00    +0.209 HD
ENDBRANCH  26  27
ENDBRANCH  25  26
ENDBRANCH  19  25
ENDBRANCH  18  22
ENDBRANCH  17  18
ENDBRANCH  16  17
ENDBRANCH   1  16
TORSDOF 7
ENDMDL
MODEL 8
REMARK VINA RESULT:      -6.1      3.022      4.565
REMARK  Name = 
REMARK  7 active torsions:
REMARK  status: ('A' for Active; 'I' for Inactive)
REMARK    1  A    between atoms: O_1  and  C_2
REMARK    2  A    between atoms: C_2  and  C_3
REMARK    3  A    between atoms: C_3  and  N_4
REMARK    4  A    between atoms: N_7  and  C_8
REMARK    5  A    between atoms: C_8  and  C_9
REMARK    6  A    between atoms: C_9  and  C_10
REMARK    7  A    between atoms: C_10  and  N_11
REMARK                            x       y       z     vdW  Elec       q    Type
REMARK                         _______ _______ _______ _____ _____    ______ ____
ROOT
ATOM      1  N   UNL     1       7.690   0.773  24.902  0.00  0.00    -0.298 N 
ATOM      2  C   UNL     1       7.748   2.114  25.391  0.00  0.00    +0.049 A 
ATOM      3  C   UNL     1       7.020   2.555  26.521  0.00  0.00    +0.044 A 
ATOM      4  C   UNL     1       7.060   3.880  26.975  0.00  0.00    +0.043 A 
ATOM      5  C   UNL     1       7.805   4.834  26.306  0.00  0.00    +0.021 A 
ATOM      6  C   UNL     1       8.531   4.445  25.189  0.00  0.00    +0.018 A 
ATOM      7 CL   UNL     1       6.167   4.334  28.378  0.00  0.00    -0.083 Cl
ATOM      8  C   UNL     1       8.519   3.106  24.741  0.00  0.00    +0.034 A 
ATOM      9  S   UNL     1       9.583   2.785  23.355  0.00  0.00    -0.086 S 
ATOM     10  C   UNL     1       9.181   1.108  22.946  0.00  0.00    +0.034 A 
ATOM     11  C   UNL     1       9.851   0.585  21.821  0.00  0.00    +0.017 A 
ATOM     12  C   UNL     1       9.618  -0.712  21.379  0.00  0.00    +0.001 A 
ATOM     13  C   UNL     1       8.670  -1.479  22.030  0.00  0.00    +0.002 A 
ATOM     14  C   UNL     1       7.993  -0.958  23.138  0.00  0.00    +0.024 A 
ATOM     15  C   UNL     1       8.276   0.319  23.678  0.00  0.00    +0.048 A 
ENDROOT
BRANCH   1  16
ATOM     16  C   UNL     1       7.103  -0.282  25.772  0.00  0.00    +0.112 C 
BRANCH  16  17
ATOM     17  C   UNL     1       8.138  -1.084  26.579  0.00  0.00    +0.035 C 
BRANCH  17  18
ATOM     18  C   UNL     1       7.951  -2.601  26.522  0.00  0.00    +0.086 C 
BRANCH  18  22
ATOM     19  N   UNL     1       6.405  -6.045  26.367  0.00  0.00    -0.298 NA
ATOM     20  C   UNL     1       6.421  -5.131  27.530  0.00  0.00    +0.100 C 
ATOM     21  C   UNL     1       5.918  -3.696  27.233  0.00  0.00    +0.100 C 
ATOM     22  N   UNL     1       6.610  -3.032  26.106  0.00  0.00    -0.300 NA
ATOM     23  C   UNL     1       6.616  -3.943  24.943  0.00  0.00    +0.100 C 
ATOM     24  C   UNL     1       7.108  -5.382  25.244  0.00  0.00    +0.100 C 
BRANCH  19  25
ATOM     25  C   UNL     1       5.045  -6.433  25.946  0.00  0.00    +0.112 C 
BRANCH  25  26
ATOM     26  C   UNL     1       4.864  -6.696  24.445  0.00  0.00    +0.171 C 
BRANCH  26  27
ATOM     27  O   UNL     1       3.946  -7.774  24.270  0.00  0.00    -0.394 OA
ATOM     28  H   UNL     1       3.726  -8.103  25.159  0.00  0.00    +0.209 HD
ENDBRANCH  26  27
ENDBRANCH  25  26
ENDBRANCH  19  25
ENDBRANCH  18  22
ENDBRANCH  17  18
ENDBRANCH  16  17
ENDBRANCH   1  16
TORSDOF 7
ENDMDL
MODEL 9
REMARK VINA RESULT:      -6.0      3.148      5.046
REMARK  Name = 
REMARK  7 active torsions:
REMARK  status: ('A' for Active; 'I' for Inactive)
REMARK    1  A    between atoms: O_1  and  C_2
REMARK    2  A    between atoms: C_2  and  C_3
REMARK    3  A    between atoms: C_3  and  N_4
REMARK    4  A    between atoms: N_7  and  C_8
REMARK    5  A    between atoms: C_8  and  C_9
REMARK    6  A    between atoms: C_9  and  C_10
REMARK    7  A    between atoms: C_10  and  N_11
REMARK                            x       y       z     vdW  Elec       q    Type
REMARK                         _______ _______ _______ _____ _____    ______ ____
ROOT
ATOM      1  N   UNL     1       8.250   1.135  25.169  0.00  0.00    -0.298 N 
ATOM      2  C   UNL     1       8.890   0.109  24.409  0.00  0.00    +0.049 A 
ATOM      3  C   UNL     1       8.934  -1.243  24.822  0.00  0.00    +0.044 A 
ATOM      4  C   UNL     1       9.591  -2.237  24.084  0.00  0.00    +0.043 A 
ATOM      5  C   UNL     1      10.259  -1.923  22.915  0.00  0.00    +0.021 A 
ATOM      6  C   UNL     1      10.244  -0.607  22.475  0.00  0.00    +0.018 A 
ATOM      7 CL   UNL     1       9.575  -3.868  24.639  0.00  0.00    -0.083 Cl
ATOM      8  C   UNL     1       9.561   0.396  23.198  0.00  0.00    +0.034 A 
ATOM      9  S   UNL     1       9.578   1.997  22.428  0.00  0.00    -0.086 S 
ATOM     10  C   UNL     1       8.826   3.022  23.662  0.00  0.00    +0.034 A 
ATOM     11  C   UNL     1       8.750   4.393  23.342  0.00  0.00    +0.017 A 
ATOM     12  C   UNL     1       8.198   5.312  24.227  0.00  0.00    +0.001 A 
ATOM     13  C   UNL     1       7.766   4.872  25.464  0.00  0.00    +0.002 A 
ATOM     14  C   UNL     1       7.854   3.514  25.791  0.00  0.00    +0.024 A 
ATOM     15  C   UNL     1       8.315   2.535  24.879  0.00  0.00    +0.048 A 
ENDROOT
BRANCH   1  16
ATOM     16  C   UNL     1       7.328   0.743  26.270  0.00  0.00    +0.112 C 
BRANCH  16  17
ATOM     17  C   UNL     1       5.903   0.396  25.807  0.00  0.00    +0.035 C 
BRANCH  17  18
ATOM     18  C   UNL     1       5.315  -0.861  26.453  0.00  0.00    +0.086 C 
BRANCH  18  22
ATOM     19  N   UNL     1       5.112  -4.610  26.034  0.00  0.00    -0.298 NA
ATOM     20  C   UNL     1       4.333  -3.780  26.977  0.00  0.00    +0.100 C 
ATOM     21  C   UNL     1       3.612  -2.570  26.332  0.00  0.00    +0.100 C 
ATOM     22  N   UNL     1       4.498  -1.682  25.549  0.00  0.00    -0.300 NA
ATOM     23  C   UNL     1       5.295  -2.502  24.615  0.00  0.00    +0.100 C 
ATOM     24  C   UNL     1       6.007  -3.719  25.258  0.00  0.00    +0.100 C 
BRANCH  19  25
ATOM     25  C   UNL     1       4.269  -5.396  25.112  0.00  0.00    +0.112 C 
BRANCH  25  26
ATOM     26  C   UNL     1       5.024  -6.216  24.057  0.00  0.00    +0.171 C 
BRANCH  26  27
ATOM     27  O   UNL     1       4.379  -7.479  23.902  0.00  0.00    -0.394 OA
ATOM     28  H   UNL     1       4.391  -7.686  22.952  0.00  0.00    +0.209 HD
ENDBRANCH  26  27
ENDBRANCH  25  26
ENDBRANCH  19  25
ENDBRANCH  18  22
ENDBRANCH  17  18
ENDBRANCH  16  17
ENDBRANCH   1  16
TORSDOF 7
ENDMDL
