MODEL 1
REMARK VINA RESULT:      -6.8      0.000      0.000
REMARK  Name = 
REMARK  5 active torsions:
REMARK  status: ('A' for Active; 'I' for Inactive)
REMARK    1  A    between atoms: C_1  and  C_2
REMARK    2  A    between atoms: C_2  and  N_3
REMARK    3  A    between atoms: C_5  and  C_6
REMARK    4  A    between atoms: C_6  and  O_7
REMARK    5  A    between atoms: C_14  and  C_17
REMARK                            x       y       z     vdW  Elec       q    Type
REMARK                         _______ _______ _______ _____ _____    ______ ____
ROOT
ATOM      1  N   UNL     1       8.959  -0.892  25.239  0.00  0.00    -0.346 N 
ATOM      2  C   UNL     1       9.284  -0.002  24.189  0.00  0.00    +0.053 A 
ATOM      3  C   UNL     1       9.561   1.362  24.387  0.00  0.00    +0.035 A 
ATOM      4  C   UNL     1       9.977   2.231  23.352  0.00  0.00    -0.016 A 
ATOM      5  C   UNL     1      10.041   1.697  22.056  0.00  0.00    +0.009 A 
ATOM      6  C   UNL     1       9.716   0.361  21.809  0.00  0.00    +0.014 A 
ATOM      7  C   UNL     1       9.346  -0.478  22.867  0.00  0.00    +0.046 A 
ATOM      8  C   UNL     1       9.019  -1.895  22.584  0.00  0.00    +0.203 A 
ATOM      9  O   UNL     1       9.076  -2.359  21.445  0.00  0.00    -0.286 OA
ATOM     10  C   UNL     1       8.606  -2.756  23.709  0.00  0.00    +0.122 A 
ATOM     11  C   UNL     1       8.614  -2.200  24.930  0.00  0.00    +0.105 A 
ENDROOT
BRANCH   4  12
ATOM     12  C   UNL     1      10.365   3.634  23.648  0.00  0.00    -0.015 A 
ATOM     13  C   UNL     1       9.469   4.557  24.203  0.00  0.00    +0.028 A 
ATOM     14  C   UNL     1       9.887   5.863  24.433  0.00  0.00    +0.111 A 
ATOM     15  N   UNL     1      11.128   6.315  24.164  0.00  0.00    -0.263 NA
ATOM     16  C   UNL     1      11.987   5.425  23.633  0.00  0.00    +0.111 A 
ATOM     17  C   UNL     1      11.656   4.108  23.358  0.00  0.00    +0.028 A 
ENDBRANCH   4  12
BRANCH   1  19
ATOM     18  C   UNL     1       7.688  -0.180  27.233  0.00  0.00    +0.027 C 
ATOM     19  C   UNL     1       9.064  -0.449  26.641  0.00  0.00    +0.118 C 
ENDBRANCH   1  19
BRANCH  10  20
ATOM     20  C   UNL     1       8.212  -4.172  23.562  0.00  0.00    +0.342 C 
ATOM     21  O   UNL     1       8.753  -5.088  24.166  0.00  0.00    -0.245 OA
BRANCH  20  22
ATOM     22  O   UNL     1       7.192  -4.382  22.701  0.00  0.00    -0.477 OA
ATOM     23  H   UNL     1       6.689  -5.214  22.873  0.00  0.00    +0.295 HD
ENDBRANCH  20  22
ENDBRANCH  10  20
TORSDOF 4
ENDMDL
MODEL 2
REMARK VINA RESULT:      -6.7      2.919      4.507
REMARK  Name = 
REMARK  5 active torsions:
REMARK  status: ('A' for Active; 'I' for Inactive)
REMARK    1  A    between atoms: C_1  and  C_2
REMARK    2  A    between atoms: C_2  and  N_3
REMARK    3  A    between atoms: C_5  and  C_6
REMARK    4  A    between atoms: C_6  and  O_7
REMARK    5  A    between atoms: C_14  and  C_17
REMARK                            x       y       z     vdW  Elec       q    Type
REMARK                         _______ _______ _______ _____ _____    ______ ____
ROOT
ATOM      1  N   UNL     1       7.466  -4.474  25.486  0.00  0.00    -0.346 N 
ATOM      2  C   UNL     1       7.270  -3.411  24.574  0.00  0.00    +0.053 A 
ATOM      3  C   UNL     1       8.089  -2.269  24.527  0.00  0.00    +0.035 A 
ATOM      4  C   UNL     1       7.951  -1.251  23.555  0.00  0.00    -0.016 A 
ATOM      5  C   UNL     1       6.891  -1.376  22.644  0.00  0.00    +0.009 A 
ATOM      6  C   UNL     1       6.019  -2.467  22.696  0.00  0.00    +0.014 A 
ATOM      7  C   UNL     1       6.212  -3.474  23.649  0.00  0.00    +0.046 A 
ATOM      8  C   UNL     1       5.285  -4.629  23.677  0.00  0.00    +0.203 A 
ATOM      9  O   UNL     1       4.356  -4.734  22.877  0.00  0.00    -0.286 OA
ATOM     10  C   UNL     1       5.490  -5.666  24.705  0.00  0.00    +0.122 A 
ATOM     11  C   UNL     1       6.551  -5.516  25.513  0.00  0.00    +0.105 A 
ENDROOT
BRANCH   4  12
ATOM     12  C   UNL     1       8.919  -0.127  23.489  0.00  0.00    -0.015 A 
ATOM     13  C   UNL     1       9.884   0.089  24.481  0.00  0.00    +0.028 A 
ATOM     14  C   UNL     1      10.746   1.175  24.373  0.00  0.00    +0.111 A 
ATOM     15  N   UNL     1      10.727   2.053  23.349  0.00  0.00    -0.263 NA
ATOM     16  C   UNL     1       9.801   1.840  22.397  0.00  0.00    +0.111 A 
ATOM     17  C   UNL     1       8.893   0.793  22.427  0.00  0.00    +0.028 A 
ENDBRANCH   4  12
BRANCH   1  19
ATOM     18  C   UNL     1       9.824  -5.198  25.628  0.00  0.00    +0.027 C 
ATOM     19  C   UNL     1       8.670  -4.503  26.337  0.00  0.00    +0.118 C 
ENDBRANCH   1  19
BRANCH  10  20
ATOM     20  C   UNL     1       4.616  -6.845  24.873  0.00  0.00    +0.342 C 
ATOM     21  O   UNL     1       4.123  -7.172  25.944  0.00  0.00    -0.245 OA
BRANCH  20  22
ATOM     22  O   UNL     1       4.394  -7.543  23.738  0.00  0.00    -0.477 OA
ATOM     23  H   UNL     1       4.132  -8.483  23.891  0.00  0.00    +0.295 HD
ENDBRANCH  20  22
ENDBRANCH  10  20
TORSDOF 4
ENDMDL
MODEL 3
REMARK VINA RESULT:      -6.6      1.333      1.531
REMARK  Name = 
REMARK  5 active torsions:
REMARK  status: ('A' for Active; 'I' for Inactive)
REMARK    1  A    between atoms: C_1  and  C_2
REMARK    2  A    between atoms: C_2  and  N_3
REMARK    3  A    between atoms: C_5  and  C_6
REMARK    4  A    between atoms: C_6  and  O_7
REMARK    5  A    between atoms: C_14  and  C_17
REMARK                            x       y       z     vdW  Elec       q    Type
REMARK                         _______ _______ _______ _____ _____    ______ ____
ROOT
ATOM      1  N   UNL     1       8.379  -0.710  25.922  0.00  0.00    -0.346 N 
ATOM      2  C   UNL     1       8.940   0.047  24.868  0.00  0.00    +0.053 A 
ATOM      3  C   UNL     1       8.829   1.445  24.773  0.00  0.00    +0.035 A 
ATOM      4  C   UNL     1       9.467   2.211  23.771  0.00  0.00    -0.016 A 
ATOM      5  C   UNL     1      10.187   1.511  22.791  0.00  0.00    +0.009 A 
ATOM      6  C   UNL     1      10.271   0.116  22.817  0.00  0.00    +0.014 A 
ATOM      7  C   UNL     1       9.658  -0.604  23.847  0.00  0.00    +0.046 A 
ATOM      8  C   UNL     1       9.772  -2.082  23.863  0.00  0.00    +0.203 A 
ATOM      9  O   UNL     1      10.403  -2.692  23.002  0.00  0.00    -0.286 OA
ATOM     10  C   UNL     1       9.096  -2.824  24.944  0.00  0.00    +0.122 A 
ATOM     11  C   UNL     1       8.467  -2.094  25.878  0.00  0.00    +0.105 A 
ENDROOT
BRANCH   4  12
ATOM     12  C   UNL     1       9.403   3.695  23.792  0.00  0.00    -0.015 A 
ATOM     13  C   UNL     1       8.189   4.392  23.845  0.00  0.00    +0.028 A 
ATOM     14  C   UNL     1       8.197   5.782  23.838  0.00  0.00    +0.111 A 
ATOM     15  N   UNL     1       9.318   6.529  23.794  0.00  0.00    -0.263 NA
ATOM     16  C   UNL     1      10.483   5.857  23.747  0.00  0.00    +0.111 A 
ATOM     17  C   UNL     1      10.572   4.474  23.738  0.00  0.00    +0.028 A 
ENDBRANCH   4  12
BRANCH   1  19
ATOM     18  C   UNL     1       6.268  -0.191  27.094  0.00  0.00    +0.027 C 
ATOM     19  C   UNL     1       7.781  -0.027  27.084  0.00  0.00    +0.118 C 
ENDBRANCH   1  19
BRANCH  10  20
ATOM     20  C   UNL     1       9.093  -4.297  25.055  0.00  0.00    +0.342 C 
ATOM     21  O   UNL     1       8.089  -4.952  25.299  0.00  0.00    -0.245 OA
BRANCH  20  22
ATOM     22  O   UNL     1      10.298  -4.875  24.860  0.00  0.00    -0.477 OA
ATOM     23  H   UNL     1      10.594  -4.876  23.917  0.00  0.00    +0.295 HD
ENDBRANCH  20  22
ENDBRANCH  10  20
TORSDOF 4
ENDMDL
MODEL 4
REMARK VINA RESULT:      -6.5      1.690      2.393
REMARK  Name = 
REMARK  5 active torsions:
REMARK  status: ('A' for Active; 'I' for Inactive)
REMARK    1  A    between atoms: C_1  and  C_2
REMARK    2  A    between atoms: C_2  and  N_3
REMARK    3  A    between atoms: C_5  and  C_6
REMARK    4  A    between atoms: C_6  and  O_7
REMARK    5  A    between atoms: C_14  and  C_17
REMARK                            x       y       z     vdW  Elec       q    Type
REMARK                         _______ _______ _______ _____ _____    ______ ____
ROOT
ATOM      1  N   UNL     1       7.274  -1.509  26.245  0.00  0.00    -0.346 N 
ATOM      2  C   UNL     1       8.264  -1.001  25.374  0.00  0.00    +0.053 A 
ATOM      3  C   UNL     1       8.442   0.370  25.118  0.00  0.00    +0.035 A 
ATOM      4  C   UNL     1       9.490   0.885  24.320  0.00  0.00    -0.016 A 
ATOM      5  C   UNL     1      10.343  -0.045  23.707  0.00  0.00    +0.009 A 
ATOM      6  C   UNL     1      10.164  -1.419  23.890  0.00  0.00    +0.014 A 
ATOM      7  C   UNL     1       9.137  -1.888  24.718  0.00  0.00    +0.046 A 
ATOM      8  C   UNL     1       8.974  -3.348  24.910  0.00  0.00    +0.203 A 
ATOM      9  O   UNL     1       9.724  -4.161  24.370  0.00  0.00    -0.286 OA
ATOM     10  C   UNL     1       7.870  -3.823  25.766  0.00  0.00    +0.122 A 
ATOM     11  C   UNL     1       7.121  -2.883  26.363  0.00  0.00    +0.105 A 
ENDROOT
BRANCH   4  12
ATOM     12  C   UNL     1       9.690   2.350  24.180  0.00  0.00    -0.015 A 
ATOM     13  C   UNL     1       8.742   3.281  24.624  0.00  0.00    +0.028 A 
ATOM     14  C   UNL     1       8.978   4.638  24.441  0.00  0.00    +0.111 A 
ATOM     15  N   UNL     1      10.089   5.139  23.864  0.00  0.00    -0.263 NA
ATOM     16  C   UNL     1      11.000   4.242  23.442  0.00  0.00    +0.111 A 
ATOM     17  C   UNL     1      10.844   2.871  23.570  0.00  0.00    +0.028 A 
ENDBRANCH   4  12
BRANCH   1  19
ATOM     18  C   UNL     1       4.992  -0.703  26.740  0.00  0.00    +0.027 C 
ATOM     19  C   UNL     1       6.473  -0.586  27.071  0.00  0.00    +0.118 C 
ENDBRANCH   1  19
BRANCH  10  20
ATOM     20  C   UNL     1       7.568  -5.248  26.006  0.00  0.00    +0.342 C 
ATOM     21  O   UNL     1       6.442  -5.720  25.929  0.00  0.00    -0.245 OA
BRANCH  20  22
ATOM     22  O   UNL     1       8.644  -6.003  26.318  0.00  0.00    -0.477 OA
ATOM     23  H   UNL     1       8.425  -6.817  26.834  0.00  0.00    +0.295 HD
ENDBRANCH  20  22
ENDBRANCH  10  20
TORSDOF 4
ENDMDL
MODEL 5
REMARK VINA RESULT:      -6.5      3.025      5.219
REMARK  Name = 
REMARK  5 active torsions:
REMARK  status: ('A' for Active; 'I' for Inactive)
REMARK    1  A    between atoms: C_1  and  C_2
REMARK    2  A    between atoms: C_2  and  N_3
REMARK    3  A    between atoms: C_5  and  C_6
REMARK    4  A    between atoms: C_6  and  O_7
REMARK    5  A    between atoms: C_14  and  C_17
REMARK                            x       y       z     vdW  Elec       q    Type
REMARK                         _______ _______ _______ _____ _____    ______ ____
ROOT
ATOM      1  N   UNL     1       6.497  -4.494  23.411  0.00  0.00    -0.346 N 
ATOM      2  C   UNL     1       7.037  -3.459  24.209  0.00  0.00    +0.053 A 
ATOM      3  C   UNL     1       7.804  -2.401  23.692  0.00  0.00    +0.035 A 
ATOM      4  C   UNL     1       8.266  -1.318  24.475  0.00  0.00    -0.016 A 
ATOM      5  C   UNL     1       7.990  -1.359  25.850  0.00  0.00    +0.009 A 
ATOM      6  C   UNL     1       7.280  -2.424  26.412  0.00  0.00    +0.014 A 
ATOM      7  C   UNL     1       6.807  -3.458  25.597  0.00  0.00    +0.046 A 
ATOM      8  C   UNL     1       6.045  -4.571  26.212  0.00  0.00    +0.203 A 
ATOM      9  O   UNL     1       5.805  -4.603  27.419  0.00  0.00    -0.286 OA
ATOM     10  C   UNL     1       5.577  -5.665  25.340  0.00  0.00    +0.122 A 
ATOM     11  C   UNL     1       5.829  -5.541  24.027  0.00  0.00    +0.105 A 
ENDROOT
BRANCH   4  12
ATOM     12  C   UNL     1       8.975  -0.173  23.847  0.00  0.00    -0.015 A 
ATOM     13  C   UNL     1       9.007   0.017  22.459  0.00  0.00    +0.028 A 
ATOM     14  C   UNL     1       9.709   1.095  21.933  0.00  0.00    +0.111 A 
ATOM     15  N   UNL     1      10.370   2.002  22.681  0.00  0.00    -0.263 NA
ATOM     16  C   UNL     1      10.334   1.818  24.013  0.00  0.00    +0.111 A 
ATOM     17  C   UNL     1       9.671   0.766  24.626  0.00  0.00    +0.028 A 
ENDBRANCH   4  12
BRANCH   1  19
ATOM     18  C   UNL     1       6.550  -5.797  21.313  0.00  0.00    +0.027 C 
ATOM     19  C   UNL     1       6.580  -4.411  21.941  0.00  0.00    +0.118 C 
ENDBRANCH   1  19
BRANCH  10  20
ATOM     20  C   UNL     1       4.846  -6.852  25.827  0.00  0.00    +0.342 C 
ATOM     21  O   UNL     1       4.060  -7.488  25.139  0.00  0.00    -0.245 OA
BRANCH  20  22
ATOM     22  O   UNL     1       5.118  -7.191  27.106  0.00  0.00    -0.477 OA
ATOM     23  H   UNL     1       4.706  -8.042  27.391  0.00  0.00    +0.295 HD
ENDBRANCH  20  22
ENDBRANCH  10  20
TORSDOF 4
ENDMDL
MODEL 6
REMARK VINA RESULT:      -6.5      3.030      7.399
REMARK  Name = 
REMARK  5 active torsions:
REMARK  status: ('A' for Active; 'I' for Inactive)
REMARK    1  A    between atoms: C_1  and  C_2
REMARK    2  A    between atoms: C_2  and  N_3
REMARK    3  A    between atoms: C_5  and  C_6
REMARK    4  A    between atoms: C_6  and  O_7
REMARK    5  A    between atoms: C_14  and  C_17
REMARK                            x       y       z     vdW  Elec       q    Type
REMARK                         _______ _______ _______ _____ _____    ______ ____
ROOT
ATOM      1  N   UNL     1       8.281   0.122  25.377  0.00  0.00    -0.346 N 
ATOM      2  C   UNL     1       8.228  -1.201  24.879  0.00  0.00    +0.053 A 
ATOM      3  C   UNL     1       7.665  -2.275  25.590  0.00  0.00    +0.035 A 
ATOM      4  C   UNL     1       7.527  -3.576  25.055  0.00  0.00    -0.016 A 
ATOM      5  C   UNL     1       8.052  -3.800  23.773  0.00  0.00    +0.009 A 
ATOM      6  C   UNL     1       8.673  -2.772  23.058  0.00  0.00    +0.014 A 
ATOM      7  C   UNL     1       8.754  -1.487  23.606  0.00  0.00    +0.046 A 
ATOM      8  C   UNL     1       9.405  -0.408  22.825  0.00  0.00    +0.203 A 
ATOM      9  O   UNL     1       9.864  -0.609  21.701  0.00  0.00    -0.286 OA
ATOM     10  C   UNL     1       9.504   0.932  23.432  0.00  0.00    +0.122 A 
ATOM     11  C   UNL     1       8.938   1.094  24.638  0.00  0.00    +0.105 A 
ENDROOT
BRANCH   4  12
ATOM     12  C   UNL     1       6.820  -4.640  25.814  0.00  0.00    -0.015 A 
ATOM     13  C   UNL     1       7.063  -4.877  27.173  0.00  0.00    +0.028 A 
ATOM     14  C   UNL     1       6.385  -5.904  27.820  0.00  0.00    +0.111 A 
ATOM     15  N   UNL     1       5.478  -6.702  27.222  0.00  0.00    -0.263 NA
ATOM     16  C   UNL     1       5.244  -6.469  25.917  0.00  0.00    +0.111 A 
ATOM     17  C   UNL     1       5.880  -5.477  25.188  0.00  0.00    +0.028 A 
ENDBRANCH   4  12
BRANCH   1  19
ATOM     18  C   UNL     1       7.100   1.912  26.602  0.00  0.00    +0.027 C 
ATOM     19  C   UNL     1       7.579   0.468  26.627  0.00  0.00    +0.118 C 
ENDBRANCH   1  19
BRANCH  10  20
ATOM     20  C   UNL     1      10.163   2.084  22.783  0.00  0.00    +0.342 C 
ATOM     21  O   UNL     1      10.817   2.918  23.394  0.00  0.00    -0.245 OA
BRANCH  20  22
ATOM     22  O   UNL     1       9.992   2.145  21.444  0.00  0.00    -0.477 OA
ATOM     23  H   UNL     1      10.106   3.051  21.067  0.00  0.00    +0.295 HD
ENDBRANCH  20  22
ENDBRANCH  10  20
TORSDOF 4
ENDMDL
MODEL 7
REMARK VINA RESULT:      -6.4      3.748      5.888
REMARK  Name = 
REMARK  5 active torsions:
REMARK  status: ('A' for Active; 'I' for Inactive)
REMARK    1  A    between atoms: C_1  and  C_2
REMARK    2  A    between atoms: C_2  and  N_3
REMARK    3  A    between atoms: C_5  and  C_6
REMARK    4  A    between atoms: C_6  and  O_7
REMARK    5  A    between atoms: C_14  and  C_17
REMARK                            x       y       z     vdW  Elec       q    Type
REMARK                         _______ _______ _______ _____ _____    ______ ____
ROOT
ATOM      1  N   UNL     1       6.147  -5.404  25.669  0.00  0.00    -0.346 N 
ATOM      2  C   UNL     1       6.205  -4.443  24.633  0.00  0.00    +0.053 A 
ATOM      3  C   UNL     1       7.172  -3.425  24.573  0.00  0.00    +0.035 A 
ATOM      4  C   UNL     1       7.288  -2.523  23.491  0.00  0.00    -0.016 A 
ATOM      5  C   UNL     1       6.333  -2.624  22.468  0.00  0.00    +0.009 A 
ATOM      6  C   UNL     1       5.320  -3.585  22.520  0.00  0.00    +0.014 A 
ATOM      7  C   UNL     1       5.262  -4.486  23.590  0.00  0.00    +0.046 A 
ATOM      8  C   UNL     1       4.187  -5.506  23.618  0.00  0.00    +0.203 A 
ATOM      9  O   UNL     1       3.351  -5.591  22.719  0.00  0.00    -0.286 OA
ATOM     10  C   UNL     1       4.128  -6.429  24.767  0.00  0.00    +0.122 A 
ATOM     11  C   UNL     1       5.100  -6.314  25.686  0.00  0.00    +0.105 A 
ENDROOT
BRANCH   4  12
ATOM     12  C   UNL     1       8.403  -1.542  23.434  0.00  0.00    -0.015 A 
ATOM     13  C   UNL     1       8.816  -0.947  22.235  0.00  0.00    +0.028 A 
ATOM     14  C   UNL     1       9.882  -0.055  22.246  0.00  0.00    +0.111 A 
ATOM     15  N   UNL     1      10.559   0.298  23.358  0.00  0.00    -0.263 NA
ATOM     16  C   UNL     1      10.157  -0.273  24.508  0.00  0.00    +0.111 A 
ATOM     17  C   UNL     1       9.113  -1.182  24.592  0.00  0.00    +0.028 A 
ENDBRANCH   4  12
BRANCH   1  19
ATOM     18  C   UNL     1       6.667  -5.647  28.071  0.00  0.00    +0.027 C 
ATOM     19  C   UNL     1       7.229  -5.479  26.668  0.00  0.00    +0.118 C 
ENDBRANCH   1  19
BRANCH  10  20
ATOM     20  C   UNL     1       3.087  -7.462  24.942  0.00  0.00    +0.342 C 
ATOM     21  O   UNL     1       2.444  -7.602  25.973  0.00  0.00    -0.245 OA
BRANCH  20  22
ATOM     22  O   UNL     1       2.893  -8.249  23.861  0.00  0.00    -0.477 OA
ATOM     23  H   UNL     1       3.082  -9.205  24.023  0.00  0.00    +0.295 HD
ENDBRANCH  20  22
ENDBRANCH  10  20
TORSDOF 4
ENDMDL
MODEL 8
REMARK VINA RESULT:      -6.2      1.778      2.161
REMARK  Name = 
REMARK  5 active torsions:
REMARK  status: ('A' for Active; 'I' for Inactive)
REMARK    1  A    between atoms: C_1  and  C_2
REMARK    2  A    between atoms: C_2  and  N_3
REMARK    3  A    between atoms: C_5  and  C_6
REMARK    4  A    between atoms: C_6  and  O_7
REMARK    5  A    between atoms: C_14  and  C_17
REMARK                            x       y       z     vdW  Elec       q    Type
REMARK                         _______ _______ _______ _____ _____    ______ ____
ROOT
ATOM      1  N   UNL     1       6.709   0.344  24.481  0.00  0.00    -0.346 N 
ATOM      2  C   UNL     1       7.852   0.746  23.754  0.00  0.00    +0.053 A 
ATOM      3  C   UNL     1       8.453   2.010  23.890  0.00  0.00    +0.035 A 
ATOM      4  C   UNL     1       9.650   2.378  23.233  0.00  0.00    -0.016 A 
ATOM      5  C   UNL     1      10.210   1.442  22.351  0.00  0.00    +0.009 A 
ATOM      6  C   UNL     1       9.610   0.197  22.143  0.00  0.00    +0.014 A 
ATOM      7  C   UNL     1       8.447  -0.145  22.842  0.00  0.00    +0.046 A 
ATOM      8  C   UNL     1       7.835  -1.476  22.617  0.00  0.00    +0.203 A 
ATOM      9  O   UNL     1       8.329  -2.294  21.842  0.00  0.00    -0.286 OA
ATOM     10  C   UNL     1       6.595  -1.808  23.344  0.00  0.00    +0.122 A 
ATOM     11  C   UNL     1       6.138  -0.891  24.210  0.00  0.00    +0.105 A 
ENDROOT
BRANCH   4  12
ATOM     12  C   UNL     1      10.295   3.688  23.507  0.00  0.00    -0.015 A 
ATOM     13  C   UNL     1      11.655   3.918  23.263  0.00  0.00    +0.028 A 
ATOM     14  C   UNL     1      12.204   5.159  23.564  0.00  0.00    +0.111 A 
ATOM     15  N   UNL     1      11.502   6.190  24.077  0.00  0.00    -0.263 NA
ATOM     16  C   UNL     1      10.195   5.966  24.307  0.00  0.00    +0.111 A 
ATOM     17  C   UNL     1       9.565   4.759  24.051  0.00  0.00    +0.028 A 
ENDBRANCH   4  12
BRANCH   1  19
ATOM     18  C   UNL     1       4.956   1.970  25.104  0.00  0.00    +0.027 C 
ATOM     19  C   UNL     1       6.184   1.198  25.563  0.00  0.00    +0.118 C 
ENDBRANCH   1  19
BRANCH  10  20
ATOM     20  C   UNL     1       5.859  -3.078  23.181  0.00  0.00    +0.342 C 
ATOM     21  O   UNL     1       5.694  -3.882  24.088  0.00  0.00    -0.245 OA
BRANCH  20  22
ATOM     22  O   UNL     1       5.370  -3.286  21.939  0.00  0.00    -0.477 OA
ATOM     23  H   UNL     1       5.092  -2.460  21.475  0.00  0.00    +0.295 HD
ENDBRANCH  20  22
ENDBRANCH  10  20
TORSDOF 4
ENDMDL
MODEL 9
REMARK VINA RESULT:      -6.2      3.668      7.212
REMARK  Name = 
REMARK  5 active torsions:
REMARK  status: ('A' for Active; 'I' for Inactive)
REMARK    1  A    between atoms: C_1  and  C_2
REMARK    2  A    between atoms: C_2  and  N_3
REMARK    3  A    between atoms: C_5  and  C_6
REMARK    4  A    between atoms: C_6  and  O_7
REMARK    5  A    between atoms: C_14  and  C_17
REMARK                            x       y       z     vdW  Elec       q    Type
REMARK                         _______ _______ _______ _____ _____    ______ ____
ROOT
ATOM      1  N   UNL     1       7.368   2.280  24.005  0.00  0.00    -0.346 N 
ATOM      2  C   UNL     1       8.298   1.239  23.781  0.00  0.00    +0.053 A 
ATOM      3  C   UNL     1       7.947  -0.122  23.757  0.00  0.00    +0.035 A 
ATOM      4  C   UNL     1       8.857  -1.157  23.441  0.00  0.00    -0.016 A 
ATOM      5  C   UNL     1      10.191  -0.786  23.211  0.00  0.00    +0.009 A 
ATOM      6  C   UNL     1      10.592   0.550  23.284  0.00  0.00    +0.014 A 
ATOM      7  C   UNL     1       9.652   1.549  23.562  0.00  0.00    +0.046 A 
ATOM      8  C   UNL     1      10.096   2.962  23.621  0.00  0.00    +0.203 A 
ATOM      9  O   UNL     1      11.267   3.282  23.420  0.00  0.00    -0.286 OA
ATOM     10  C   UNL     1       9.095   3.997  23.941  0.00  0.00    +0.122 A 
ATOM     11  C   UNL     1       7.828   3.585  24.100  0.00  0.00    +0.105 A 
ENDROOT
BRANCH   4  12
ATOM     12  C   UNL     1       8.398  -2.564  23.320  0.00  0.00    -0.015 A 
ATOM     13  C   UNL     1       7.568  -2.994  22.277  0.00  0.00    +0.028 A 
ATOM     14  C   UNL     1       7.153  -4.320  22.235  0.00  0.00    +0.111 A 
ATOM     15  N   UNL     1       7.510  -5.251  23.143  0.00  0.00    -0.263 NA
ATOM     16  C   UNL     1       8.310  -4.835  24.142  0.00  0.00    +0.111 A 
ATOM     17  C   UNL     1       8.763  -3.532  24.272  0.00  0.00    +0.028 A 
ENDBRANCH   4  12
BRANCH   1  19
ATOM     18  C   UNL     1       5.129   2.979  23.230  0.00  0.00    +0.027 C 
ATOM     19  C   UNL     1       5.924   1.981  24.059  0.00  0.00    +0.118 C 
ENDBRANCH   1  19
BRANCH  10  20
ATOM     20  C   UNL     1       9.409   5.435  24.074  0.00  0.00    +0.342 C 
ATOM     21  O   UNL     1       9.172   6.086  25.082  0.00  0.00    -0.245 OA
BRANCH  20  22
ATOM     22  O   UNL     1       9.991   5.983  22.985  0.00  0.00    -0.477 OA
ATOM     23  H   UNL     1      10.934   5.718  22.859  0.00  0.00    +0.295 HD
ENDBRANCH  20  22
ENDBRANCH  10  20
TORSDOF 4
ENDMDL
