MODEL 1
REMARK VINA RESULT:      -5.7      0.000      0.000
REMARK  Name = 
REMARK  5 active torsions:
REMARK  status: ('A' for Active; 'I' for Inactive)
REMARK    1  A    between atoms: C_1  and  C_2
REMARK    2  A    between atoms: C_2  and  C_4
REMARK    3  A    between atoms: C_2  and  C_9
REMARK    4  A    between atoms: C_10  and  C_11
REMARK    5  A    between atoms: C_12  and  C_13
REMARK                            x       y       z     vdW  Elec       q    Type
REMARK                         _______ _______ _______ _____ _____    ______ ____
ROOT
ATOM      1  C   UNL     1       7.976   3.519  24.694  0.00  0.00    +0.019 C 
ATOM      2  C   UNL     1       9.374   2.998  24.338  0.00  0.00    +0.066 C 
ENDROOT
BRANCH   2   3
ATOM      3  C   UNL     1       9.414   1.865  23.309  0.00  0.00    -0.036 A 
ATOM      4  C   UNL     1       8.825   2.050  22.041  0.00  0.00    +0.004 A 
ATOM      5  C   UNL     1       8.792   1.027  21.098  0.00  0.00    +0.001 A 
ATOM      6  C   UNL     1       9.300  -0.224  21.421  0.00  0.00    +0.003 A 
ATOM      7  C   UNL     1       9.885  -0.458  22.674  0.00  0.00    -0.047 A 
ATOM      8  C   UNL     1      10.357  -1.861  22.959  0.00  0.00    +0.044 C 
ATOM      9  C   UNL     1      10.021   0.610  23.597  0.00  0.00    -0.044 A 
ATOM     10  C   UNL     1      10.777   0.382  24.885  0.00  0.00    +0.044 C 
ENDBRANCH   2   3
BRANCH   2  11
ATOM     11  C   UNL     1      10.257   4.105  23.833  0.00  0.00    +0.066 A 
ATOM     12  N   UNL     1      11.565   3.819  23.487  0.00  0.00    -0.240 NA
ATOM     13  C   UNL     1      12.098   4.962  23.124  0.00  0.00    +0.196 A 
ATOM     14  N   UNL     1      11.198   5.982  23.214  0.00  0.00    -0.351 N 
ATOM     15  H   UNL     1      11.372   6.952  22.986  0.00  0.00    +0.166 HD
ATOM     16  C   UNL     1      10.024   5.460  23.679  0.00  0.00    +0.107 A 
ENDBRANCH   2  11
TORSDOF 2
ENDMDL
MODEL 2
REMARK VINA RESULT:      -5.4      4.112      6.745
REMARK  Name = 
REMARK  5 active torsions:
REMARK  status: ('A' for Active; 'I' for Inactive)
REMARK    1  A    between atoms: C_1  and  C_2
REMARK    2  A    between atoms: C_2  and  C_4
REMARK    3  A    between atoms: C_2  and  C_9
REMARK    4  A    between atoms: C_10  and  C_11
REMARK    5  A    between atoms: C_12  and  C_13
REMARK                            x       y       z     vdW  Elec       q    Type
REMARK                         _______ _______ _______ _____ _____    ______ ____
ROOT
ATOM      1  C   UNL     1       6.655  -2.871  23.252  0.00  0.00    +0.019 C 
ATOM      2  C   UNL     1       8.175  -2.886  23.461  0.00  0.00    +0.066 C 
ENDROOT
BRANCH   2   3
ATOM      3  C   UNL     1       8.803  -1.540  23.833  0.00  0.00    -0.036 A 
ATOM      4  C   UNL     1       8.872  -1.149  25.186  0.00  0.00    +0.004 A 
ATOM      5  C   UNL     1       9.384   0.089  25.561  0.00  0.00    +0.001 A 
ATOM      6  C   UNL     1       9.792   0.989  24.586  0.00  0.00    +0.003 A 
ATOM      7  C   UNL     1       9.732   0.650  23.226  0.00  0.00    -0.047 A 
ATOM      8  C   UNL     1      10.139   1.710  22.236  0.00  0.00    +0.044 C 
ATOM      9  C   UNL     1       9.314  -0.651  22.845  0.00  0.00    -0.044 A 
ATOM     10  C   UNL     1       9.386  -1.053  21.391  0.00  0.00    +0.044 C 
ENDBRANCH   2   3
BRANCH   2  11
ATOM     11  C   UNL     1       8.572  -3.881  24.515  0.00  0.00    +0.066 A 
ATOM     12  N   UNL     1       9.891  -4.287  24.597  0.00  0.00    -0.240 NA
ATOM     13  C   UNL     1       9.936  -5.171  25.565  0.00  0.00    +0.196 A 
ATOM     14  N   UNL     1       8.706  -5.361  26.123  0.00  0.00    -0.351 N 
ATOM     15  H   UNL     1       8.489  -5.988  26.886  0.00  0.00    +0.166 HD
ATOM     16  C   UNL     1       7.821  -4.560  25.458  0.00  0.00    +0.107 A 
ENDBRANCH   2  11
TORSDOF 2
ENDMDL
MODEL 3
REMARK VINA RESULT:      -5.4      2.200      5.094
REMARK  Name = 
REMARK  5 active torsions:
REMARK  status: ('A' for Active; 'I' for Inactive)
REMARK    1  A    between atoms: C_1  and  C_2
REMARK    2  A    between atoms: C_2  and  C_4
REMARK    3  A    between atoms: C_2  and  C_9
REMARK    4  A    between atoms: C_10  and  C_11
REMARK    5  A    between atoms: C_12  and  C_13
REMARK                            x       y       z     vdW  Elec       q    Type
REMARK                         _______ _______ _______ _____ _____    ______ ____
ROOT
ATOM      1  C   UNL     1      10.635   0.940  24.804  0.00  0.00    +0.019 C 
ATOM      2  C   UNL     1       9.685   1.924  24.108  0.00  0.00    +0.066 C 
ENDROOT
BRANCH   2   3
ATOM      3  C   UNL     1      10.221   3.347  23.932  0.00  0.00    -0.036 A 
ATOM      4  C   UNL     1      11.513   3.548  23.404  0.00  0.00    +0.004 A 
ATOM      5  C   UNL     1      12.059   4.822  23.280  0.00  0.00    +0.001 A 
ATOM      6  C   UNL     1      11.345   5.923  23.731  0.00  0.00    +0.003 A 
ATOM      7  C   UNL     1      10.060   5.772  24.275  0.00  0.00    -0.047 A 
ATOM      8  C   UNL     1       9.384   7.014  24.793  0.00  0.00    +0.044 C 
ATOM      9  C   UNL     1       9.457   4.489  24.302  0.00  0.00    -0.044 A 
ATOM     10  C   UNL     1       8.023   4.358  24.759  0.00  0.00    +0.044 C 
ENDBRANCH   2   3
BRANCH   2  11
ATOM     11  C   UNL     1       9.273   1.420  22.753  0.00  0.00    +0.066 A 
ATOM     12  N   UNL     1       9.749   0.199  22.314  0.00  0.00    -0.240 NA
ATOM     13  C   UNL     1       9.265   0.038  21.105  0.00  0.00    +0.196 A 
ATOM     14  N   UNL     1       8.492   1.097  20.734  0.00  0.00    -0.351 N 
ATOM     15  H   UNL     1       8.008   1.201  19.852  0.00  0.00    +0.166 HD
ATOM     16  C   UNL     1       8.497   1.996  21.763  0.00  0.00    +0.107 A 
ENDBRANCH   2  11
TORSDOF 2
ENDMDL
MODEL 4
REMARK VINA RESULT:      -5.2      4.632      6.886
REMARK  Name = 
REMARK  5 active torsions:
REMARK  status: ('A' for Active; 'I' for Inactive)
REMARK    1  A    between atoms: C_1  and  C_2
REMARK    2  A    between atoms: C_2  and  C_4
REMARK    3  A    between atoms: C_2  and  C_9
REMARK    4  A    between atoms: C_10  and  C_11
REMARK    5  A    between atoms: C_12  and  C_13
REMARK                            x       y       z     vdW  Elec       q    Type
REMARK                         _______ _______ _______ _____ _____    ______ ____
ROOT
ATOM      1  C   UNL     1       8.926  -3.163  24.702  0.00  0.00    +0.019 C 
ATOM      2  C   UNL     1       7.774  -2.588  23.869  0.00  0.00    +0.066 C 
ENDROOT
BRANCH   2   3
ATOM      3  C   UNL     1       8.114  -1.349  23.037  0.00  0.00    -0.036 A 
ATOM      4  C   UNL     1       9.149  -1.410  22.081  0.00  0.00    +0.004 A 
ATOM      5  C   UNL     1       9.527  -0.291  21.345  0.00  0.00    +0.001 A 
ATOM      6  C   UNL     1       8.914   0.931  21.585  0.00  0.00    +0.003 A 
ATOM      7  C   UNL     1       7.887   1.043  22.535  0.00  0.00    -0.047 A 
ATOM      8  C   UNL     1       7.320   2.419  22.772  0.00  0.00    +0.044 C 
ATOM      9  C   UNL     1       7.424  -0.116  23.209  0.00  0.00    -0.044 A 
ATOM     10  C   UNL     1       6.227  -0.008  24.124  0.00  0.00    +0.044 C 
ENDBRANCH   2   3
BRANCH   2  11
ATOM     11  C   UNL     1       7.204  -3.621  22.936  0.00  0.00    +0.066 A 
ATOM     12  N   UNL     1       7.704  -4.910  22.972  0.00  0.00    -0.240 NA
ATOM     13  C   UNL     1       7.058  -5.570  22.040  0.00  0.00    +0.196 A 
ATOM     14  N   UNL     1       6.157  -4.773  21.398  0.00  0.00    -0.351 N 
ATOM     15  H   UNL     1       5.541  -5.056  20.648  0.00  0.00    +0.166 HD
ATOM     16  C   UNL     1       6.246  -3.524  21.944  0.00  0.00    +0.107 A 
ENDBRANCH   2  11
TORSDOF 2
ENDMDL
MODEL 5
REMARK VINA RESULT:      -5.1      3.186      5.211
REMARK  Name = 
REMARK  5 active torsions:
REMARK  status: ('A' for Active; 'I' for Inactive)
REMARK    1  A    between atoms: C_1  and  C_2
REMARK    2  A    between atoms: C_2  and  C_4
REMARK    3  A    between atoms: C_2  and  C_9
REMARK    4  A    between atoms: C_10  and  C_11
REMARK    5  A    between atoms: C_12  and  C_13
REMARK                            x       y       z     vdW  Elec       q    Type
REMARK                         _______ _______ _______ _____ _____    ______ ____
ROOT
ATOM      1  C   UNL     1       9.646  -1.160  21.462  0.00  0.00    +0.019 C 
ATOM      2  C   UNL     1       8.616  -1.144  22.599  0.00  0.00    +0.066 C 
ENDROOT
BRANCH   2   3
ATOM      3  C   UNL     1       8.459  -2.459  23.367  0.00  0.00    -0.036 A 
ATOM      4  C   UNL     1       9.531  -2.951  24.140  0.00  0.00    +0.004 A 
ATOM      5  C   UNL     1       9.448  -4.170  24.806  0.00  0.00    +0.001 A 
ATOM      6  C   UNL     1       8.309  -4.952  24.673  0.00  0.00    +0.003 A 
ATOM      7  C   UNL     1       7.221  -4.509  23.905  0.00  0.00    -0.047 A 
ATOM      8  C   UNL     1       6.052  -5.449  23.768  0.00  0.00    +0.044 C 
ATOM      9  C   UNL     1       7.257  -3.220  23.314  0.00  0.00    -0.044 A 
ATOM     10  C   UNL     1       6.028  -2.698  22.608  0.00  0.00    +0.044 C 
ENDBRANCH   2   3
BRANCH   2  11
ATOM     11  C   UNL     1       8.924  -0.065  23.600  0.00  0.00    +0.066 A 
ATOM     12  N   UNL     1      10.127   0.610  23.515  0.00  0.00    -0.240 NA
ATOM     13  C   UNL     1      10.138   1.452  24.522  0.00  0.00    +0.196 A 
ATOM     14  N   UNL     1       8.996   1.359  25.261  0.00  0.00    -0.351 N 
ATOM     15  H   UNL     1       8.772   1.906  26.081  0.00  0.00    +0.166 HD
ATOM     16  C   UNL     1       8.216   0.388  24.699  0.00  0.00    +0.107 A 
ENDBRANCH   2  11
TORSDOF 2
ENDMDL
MODEL 6
REMARK VINA RESULT:      -5.1      2.271      3.487
REMARK  Name = 
REMARK  5 active torsions:
REMARK  status: ('A' for Active; 'I' for Inactive)
REMARK    1  A    between atoms: C_1  and  C_2
REMARK    2  A    between atoms: C_2  and  C_4
REMARK    3  A    between atoms: C_2  and  C_9
REMARK    4  A    between atoms: C_10  and  C_11
REMARK    5  A    between atoms: C_12  and  C_13
REMARK                            x       y       z     vdW  Elec       q    Type
REMARK                         _______ _______ _______ _____ _____    ______ ____
ROOT
ATOM      1  C   UNL     1      10.830   2.842  23.400  0.00  0.00    +0.019 C 
ATOM      2  C   UNL     1       9.728   1.915  22.872  0.00  0.00    +0.066 C 
ENDROOT
BRANCH   2   3
ATOM      3  C   UNL     1       9.323   0.771  23.805  0.00  0.00    -0.036 A 
ATOM      4  C   UNL     1       8.731   1.060  25.052  0.00  0.00    +0.004 A 
ATOM      5  C   UNL     1       8.400   0.051  25.951  0.00  0.00    +0.001 A 
ATOM      6  C   UNL     1       8.703  -1.269  25.649  0.00  0.00    +0.003 A 
ATOM      7  C   UNL     1       9.304  -1.604  24.425  0.00  0.00    -0.047 A 
ATOM      8  C   UNL     1       9.651  -3.053  24.206  0.00  0.00    +0.044 C 
ATOM      9  C   UNL     1       9.542  -0.593  23.460  0.00  0.00    -0.044 A 
ATOM     10  C   UNL     1      10.057  -0.983  22.094  0.00  0.00    +0.044 C 
ENDBRANCH   2   3
BRANCH   2  11
ATOM     11  C   UNL     1       8.483   2.686  22.530  0.00  0.00    +0.066 A 
ATOM     12  N   UNL     1       8.340   3.979  23.000  0.00  0.00    -0.240 NA
ATOM     13  C   UNL     1       7.163   4.383  22.586  0.00  0.00    +0.196 A 
ATOM     14  N   UNL     1       6.529   3.415  21.864  0.00  0.00    -0.351 N 
ATOM     15  H   UNL     1       5.616   3.492  21.438  0.00  0.00    +0.166 HD
ATOM     16  C   UNL     1       7.347   2.321  21.830  0.00  0.00    +0.107 A 
ENDBRANCH   2  11
TORSDOF 2
ENDMDL
MODEL 7
REMARK VINA RESULT:      -5.1      4.561      6.595
REMARK  Name = 
REMARK  5 active torsions:
REMARK  status: ('A' for Active; 'I' for Inactive)
REMARK    1  A    between atoms: C_1  and  C_2
REMARK    2  A    between atoms: C_2  and  C_4
REMARK    3  A    between atoms: C_2  and  C_9
REMARK    4  A    between atoms: C_10  and  C_11
REMARK    5  A    between atoms: C_12  and  C_13
REMARK                            x       y       z     vdW  Elec       q    Type
REMARK                         _______ _______ _______ _____ _____    ______ ____
ROOT
ATOM      1  C   UNL     1       8.711  -1.032  26.870  0.00  0.00    +0.019 C 
ATOM      2  C   UNL     1       8.049  -1.696  25.657  0.00  0.00    +0.066 C 
ENDROOT
BRANCH   2   3
ATOM      3  C   UNL     1       8.622  -1.302  24.293  0.00  0.00    -0.036 A 
ATOM      4  C   UNL     1       9.744  -1.986  23.781  0.00  0.00    +0.004 A 
ATOM      5  C   UNL     1      10.329  -1.622  22.572  0.00  0.00    +0.001 A 
ATOM      6  C   UNL     1       9.838  -0.530  21.871  0.00  0.00    +0.003 A 
ATOM      7  C   UNL     1       8.731   0.189  22.346  0.00  0.00    -0.047 A 
ATOM      8  C   UNL     1       8.303   1.395  21.551  0.00  0.00    +0.044 C 
ATOM      9  C   UNL     1       8.064  -0.245  23.520  0.00  0.00    -0.044 A 
ATOM     10  C   UNL     1       6.791   0.449  23.945  0.00  0.00    +0.044 C 
ENDBRANCH   2   3
BRANCH   2  11
ATOM     11  C   UNL     1       8.101  -3.195  25.758  0.00  0.00    +0.066 A 
ATOM     12  N   UNL     1       7.160  -3.950  25.082  0.00  0.00    -0.240 NA
ATOM     13  C   UNL     1       7.423  -5.201  25.379  0.00  0.00    +0.196 A 
ATOM     14  N   UNL     1       8.494  -5.299  26.216  0.00  0.00    -0.351 N 
ATOM     15  H   UNL     1       8.888  -6.156  26.580  0.00  0.00    +0.166 HD
ATOM     16  C   UNL     1       8.931  -4.032  26.482  0.00  0.00    +0.107 A 
ENDBRANCH   2  11
TORSDOF 2
ENDMDL
MODEL 8
REMARK VINA RESULT:      -5.1      8.306      9.867
REMARK  Name = 
REMARK  5 active torsions:
REMARK  status: ('A' for Active; 'I' for Inactive)
REMARK    1  A    between atoms: C_1  and  C_2
REMARK    2  A    between atoms: C_2  and  C_4
REMARK    3  A    between atoms: C_2  and  C_9
REMARK    4  A    between atoms: C_10  and  C_11
REMARK    5  A    between atoms: C_12  and  C_13
REMARK                            x       y       z     vdW  Elec       q    Type
REMARK                         _______ _______ _______ _____ _____    ______ ____
ROOT
ATOM      1  C   UNL     1       5.488  -3.179  27.010  0.00  0.00    +0.019 C 
ATOM      2  C   UNL     1       5.245  -4.563  26.395  0.00  0.00    +0.066 C 
ENDROOT
BRANCH   2   3
ATOM      3  C   UNL     1       6.127  -4.918  25.195  0.00  0.00    -0.036 A 
ATOM      4  C   UNL     1       7.522  -4.724  25.270  0.00  0.00    +0.004 A 
ATOM      5  C   UNL     1       8.351  -4.980  24.182  0.00  0.00    +0.001 A 
ATOM      6  C   UNL     1       7.799  -5.387  22.975  0.00  0.00    +0.003 A 
ATOM      7  C   UNL     1       6.415  -5.582  22.850  0.00  0.00    -0.047 A 
ATOM      8  C   UNL     1       5.898  -5.966  21.488  0.00  0.00    +0.044 C 
ATOM      9  C   UNL     1       5.579  -5.428  23.985  0.00  0.00    -0.044 A 
ATOM     10  C   UNL     1       4.113  -5.776  23.874  0.00  0.00    +0.044 C 
ENDBRANCH   2   3
BRANCH   2  11
ATOM     11  C   UNL     1       5.409  -5.652  27.419  0.00  0.00    +0.066 A 
ATOM     12  N   UNL     1       6.236  -5.437  28.506  0.00  0.00    -0.240 NA
ATOM     13  C   UNL     1       6.217  -6.551  29.198  0.00  0.00    +0.196 A 
ATOM     14  N   UNL     1       5.413  -7.486  28.615  0.00  0.00    -0.351 N 
ATOM     15  H   UNL     1       5.235  -8.418  28.962  0.00  0.00    +0.166 HD
ATOM     16  C   UNL     1       4.902  -6.938  27.472  0.00  0.00    +0.107 A 
ENDBRANCH   2  11
TORSDOF 2
ENDMDL
MODEL 9
REMARK VINA RESULT:      -5.0      2.964      4.043
REMARK  Name = 
REMARK  5 active torsions:
REMARK  status: ('A' for Active; 'I' for Inactive)
REMARK    1  A    between atoms: C_1  and  C_2
REMARK    2  A    between atoms: C_2  and  C_4
REMARK    3  A    between atoms: C_2  and  C_9
REMARK    4  A    between atoms: C_10  and  C_11
REMARK    5  A    between atoms: C_12  and  C_13
REMARK                            x       y       z     vdW  Elec       q    Type
REMARK                         _______ _______ _______ _____ _____    ______ ____
ROOT
ATOM      1  C   UNL     1       6.097   0.646  24.234  0.00  0.00    +0.019 C 
ATOM      2  C   UNL     1       7.586   0.276  24.269  0.00  0.00    +0.066 C 
ENDROOT
BRANCH   2   3
ATOM      3  C   UNL     1       7.896  -1.222  24.210  0.00  0.00    -0.036 A 
ATOM      4  C   UNL     1       7.701  -1.930  23.006  0.00  0.00    +0.004 A 
ATOM      5  C   UNL     1       7.918  -3.302  22.926  0.00  0.00    +0.001 A 
ATOM      6  C   UNL     1       8.284  -4.009  24.062  0.00  0.00    +0.003 A 
ATOM      7  C   UNL     1       8.479  -3.349  25.285  0.00  0.00    -0.047 A 
ATOM      8  C   UNL     1       8.818  -4.204  26.479  0.00  0.00    +0.044 C 
ATOM      9  C   UNL     1       8.367  -1.937  25.347  0.00  0.00    -0.044 A 
ATOM     10  C   UNL     1       8.715  -1.224  26.632  0.00  0.00    +0.044 C 
ENDBRANCH   2   3
BRANCH   2  11
ATOM     11  C   UNL     1       8.341   0.943  23.154  0.00  0.00    +0.066 A 
ATOM     12  N   UNL     1       9.721   1.009  23.218  0.00  0.00    -0.240 NA
ATOM     13  C   UNL     1      10.099   1.667  22.147  0.00  0.00    +0.196 A 
ATOM     14  N   UNL     1       9.030   2.034  21.385  0.00  0.00    -0.351 N 
ATOM     15  H   UNL     1       9.068   2.544  20.513  0.00  0.00    +0.166 HD
ATOM     16  C   UNL     1       7.900   1.596  22.016  0.00  0.00    +0.107 A 
ENDBRANCH   2  11
TORSDOF 2
ENDMDL
