MODEL 1
REMARK VINA RESULT:      -6.5      0.000      0.000
REMARK  Name = 
REMARK  26 active torsions:
REMARK  status: ('A' for Active; 'I' for Inactive)
REMARK    1  A    between atoms: C_1  and  C_2
REMARK    2  A    between atoms: C_2  and  N_3
REMARK    3  A    between atoms: C_4  and  C_6
REMARK    4  A    between atoms: C_6  and  C_7
REMARK    5  A    between atoms: C_7  and  N_8
REMARK    6  A    between atoms: C_9  and  C_11
REMARK    7  A    between atoms: C_11  and  O_13
REMARK    8  A    between atoms: C_11  and  C_14
REMARK    9  A    between atoms: C_14  and  C_15
REMARK   10  A    between atoms: C_14  and  C_16
REMARK   11  A    between atoms: C_14  and  C_17
REMARK   12  A    between atoms: C_17  and  O_18
REMARK   13  A    between atoms: O_18  and  P_19
REMARK   14  A    between atoms: P_19  and  O_20
REMARK   15  A    between atoms: P_19  and  O_22
REMARK   16  A    between atoms: O_22  and  P_23
REMARK   17  A    between atoms: P_23  and  O_24
REMARK   18  A    between atoms: P_23  and  O_26
REMARK   19  A    between atoms: O_26  and  C_27
REMARK   20  A    between atoms: C_27  and  C_28
REMARK   21  A    between atoms: C_31  and  N_43
REMARK   22  A    between atoms: C_33  and  O_35
REMARK   23  A    between atoms: C_36  and  O_38
REMARK   24  A    between atoms: O_38  and  P_39
REMARK   25  A    between atoms: P_39  and  O_40
REMARK   26  A    between atoms: P_39  and  O_41
REMARK                            x       y       z     vdW  Elec       q    Type
REMARK                         _______ _______ _______ _____ _____    ______ ____
ROOT
ATOM      1  P   UNL     1       9.133  -4.808  25.511  0.00  0.00    +0.483 P 
ATOM      2  O   UNL     1      10.554  -5.243  25.351  0.00  0.00    -0.227 OA
ENDROOT
BRANCH   1   3
ATOM      3  O   UNL     1       9.047  -3.575  26.548  0.00  0.00    -0.302 OA
ATOM      4  H   UNL     1       8.176  -3.527  27.000  0.00  0.00    +0.222 HD
ENDBRANCH   1   3
BRANCH   1   5
ATOM      5  O   UNL     1       8.494  -4.016  24.246  0.00  0.00    -0.284 OA
BRANCH   5   6
ATOM      6  C   UNL     1       8.668  -2.593  24.109  0.00  0.00    +0.206 C 
BRANCH   6   7
ATOM      7  C   UNL     1       7.471  -1.559  24.088  0.00  0.00    +0.179 C 
ATOM      8  C   UNL     1       6.930  -0.963  25.393  0.00  0.00    +0.194 C 
ATOM      9  C   UNL     1       7.156   0.543  25.281  0.00  0.00    +0.196 C 
ATOM     10  C   UNL     1       7.904   0.729  23.958  0.00  0.00    +0.253 C 
ATOM     11  O   UNL     1       7.695  -0.456  23.175  0.00  0.00    -0.346 OA
BRANCH  10  12
ATOM     12  N   UNL     1       7.493   1.937  23.243  0.00  0.00    -0.286 N 
ATOM     13  C   UNL     1       8.052   3.169  23.446  0.00  0.00    +0.167 A 
ATOM     14  N   UNL     1       8.996   3.497  24.349  0.00  0.00    -0.216 NA
ATOM     15  C   UNL     1       9.321   4.809  24.244  0.00  0.00    +0.225 A 
ATOM     16  N   UNL     1       8.842   5.723  23.382  0.00  0.00    -0.219 NA
ATOM     17  C   UNL     1       7.909   5.344  22.484  0.00  0.00    +0.147 A 
ATOM     18  N   UNL     1       7.423   6.301  21.595  0.00  0.00    -0.341 N 
ATOM     19  H   UNL     1       6.525   6.072  21.187  0.00  0.00    +0.144 HD
ATOM     20  H   UNL     1       7.571   7.249  21.920  0.00  0.00    +0.144 HD
ATOM     21  C   UNL     1       7.464   4.004  22.513  0.00  0.00    +0.147 A 
ATOM     22  N   UNL     1       6.508   3.316  21.786  0.00  0.00    -0.231 NA
ATOM     23  C   UNL     1       6.557   2.080  22.251  0.00  0.00    +0.203 A 
ENDBRANCH  10  12
BRANCH   9  24
ATOM     24  O   UNL     1       7.934   1.000  26.392  0.00  0.00    -0.385 OA
ATOM     25  H   UNL     1       8.609   1.610  26.023  0.00  0.00    +0.210 HD
ENDBRANCH   9  24
BRANCH   8  26
ATOM     26  O   UNL     1       5.512  -1.199  25.404  0.00  0.00    -0.278 OA
BRANCH  26  27
ATOM     27  P   UNL     1       4.627  -0.656  26.623  0.00  0.00    +0.473 P 
ATOM     28  O   UNL     1       3.915   0.631  26.405  0.00  0.00    -0.228 OA
BRANCH  27  29
ATOM     29  O   UNL     1       3.700  -1.909  26.961  0.00  0.00    -0.303 OA
ATOM     30  H   UNL     1       2.822  -1.637  27.281  0.00  0.00    +0.222 HD
ENDBRANCH  27  29
BRANCH  27  31
ATOM     31  O   UNL     1       5.666  -0.653  27.830  0.00  0.00    -0.303 OA
ATOM     32  H   UNL     1       5.400  -0.017  28.513  0.00  0.00    +0.222 HD
ENDBRANCH  27  31
ENDBRANCH  26  27
ENDBRANCH   8  26
ENDBRANCH   6   7
ENDBRANCH   5   6
ENDBRANCH   1   5
BRANCH   1  33
ATOM     33  O   UNL     1       8.164  -5.976  26.242  0.00  0.00    -0.186 OA
BRANCH  33  34
ATOM     34  P   UNL     1       6.647  -5.147  26.191  0.00  0.00    +0.483 P 
ATOM     35  O   UNL     1       5.906  -6.420  25.766  0.00  0.00    -0.227 OA
BRANCH  34  36
ATOM     36  O   UNL     1       5.130  -4.316  26.141  0.00  0.00    -0.302 OA
ATOM     37  H   UNL     1       4.706  -4.652  25.326  0.00  0.00    +0.222 HD
ENDBRANCH  34  36
BRANCH  34  38
ATOM     38  O   UNL     1       6.656  -5.061  27.847  0.00  0.00    -0.286 OA
BRANCH  38  39
ATOM     39  C   UNL     1       5.397  -4.655  28.408  0.00  0.00    +0.181 C 
BRANCH  39  40
ATOM     40  C   UNL     1       4.873  -5.567  29.543  0.00  0.00    +0.024 C 
ATOM     41  C   UNL     1       6.090  -5.965  30.407  0.00  0.00    +0.016 C 
ATOM     42  C   UNL     1       3.881  -4.828  30.464  0.00  0.00    +0.016 C 
BRANCH  40  43
ATOM     43  C   UNL     1       4.194  -6.847  28.930  0.00  0.00    +0.208 C 
BRANCH  43  46
ATOM     44  N   UNL     1       3.304  -7.029  26.596  0.00  0.00    -0.313 N 
ATOM     45  H   UNL     1       4.117  -7.591  26.367  0.00  0.00    +0.149 HD
ATOM     46  C   UNL     1       3.084  -6.541  27.874  0.00  0.00    +0.242 C 
ATOM     47  O   UNL     1       2.059  -5.908  28.117  0.00  0.00    -0.273 OA
BRANCH  44  48
ATOM     48  C   UNL     1       2.353  -6.678  25.555  0.00  0.00    +0.113 C 
BRANCH  48  49
ATOM     49  C   UNL     1       2.674  -7.217  24.174  0.00  0.00    +0.114 C 
BRANCH  49  52
ATOM     50  N   UNL     1       4.667  -6.521  22.970  0.00  0.00    -0.316 N 
ATOM     51  H   UNL     1       5.090  -7.370  23.324  0.00  0.00    +0.149 HD
ATOM     52  C   UNL     1       3.392  -6.176  23.352  0.00  0.00    +0.215 C 
ATOM     53  O   UNL     1       2.834  -5.132  23.023  0.00  0.00    -0.276 OA
BRANCH  50  55
ATOM     54  C   UNL     1       6.893  -6.184  21.998  0.00  0.00    +0.024 C 
ATOM     55  C   UNL     1       5.500  -5.618  22.201  0.00  0.00    +0.101 C 
ENDBRANCH  50  55
ENDBRANCH  49  52
ENDBRANCH  48  49
ENDBRANCH  44  48
ENDBRANCH  43  46
BRANCH  43  56
ATOM     56  O   UNL     1       5.207  -7.675  28.350  0.00  0.00    -0.382 OA
ATOM     57  H   UNL     1       6.073  -7.266  28.520  0.00  0.00    +0.210 HD
ENDBRANCH  43  56
ENDBRANCH  40  43
ENDBRANCH  39  40
ENDBRANCH  38  39
ENDBRANCH  34  38
ENDBRANCH  33  34
ENDBRANCH   1  33
TORSDOF 23
ENDMDL
MODEL 2
REMARK VINA RESULT:      -6.5      3.129      8.555
REMARK  Name = 
REMARK  26 active torsions:
REMARK  status: ('A' for Active; 'I' for Inactive)
REMARK    1  A    between atoms: C_1  and  C_2
REMARK    2  A    between atoms: C_2  and  N_3
REMARK    3  A    between atoms: C_4  and  C_6
REMARK    4  A    between atoms: C_6  and  C_7
REMARK    5  A    between atoms: C_7  and  N_8
REMARK    6  A    between atoms: C_9  and  C_11
REMARK    7  A    between atoms: C_11  and  O_13
REMARK    8  A    between atoms: C_11  and  C_14
REMARK    9  A    between atoms: C_14  and  C_15
REMARK   10  A    between atoms: C_14  and  C_16
REMARK   11  A    between atoms: C_14  and  C_17
REMARK   12  A    between atoms: C_17  and  O_18
REMARK   13  A    between atoms: O_18  and  P_19
REMARK   14  A    between atoms: P_19  and  O_20
REMARK   15  A    between atoms: P_19  and  O_22
REMARK   16  A    between atoms: O_22  and  P_23
REMARK   17  A    between atoms: P_23  and  O_24
REMARK   18  A    between atoms: P_23  and  O_26
REMARK   19  A    between atoms: O_26  and  C_27
REMARK   20  A    between atoms: C_27  and  C_28
REMARK   21  A    between atoms: C_31  and  N_43
REMARK   22  A    between atoms: C_33  and  O_35
REMARK   23  A    between atoms: C_36  and  O_38
REMARK   24  A    between atoms: O_38  and  P_39
REMARK   25  A    between atoms: P_39  and  O_40
REMARK   26  A    between atoms: P_39  and  O_41
REMARK                            x       y       z     vdW  Elec       q    Type
REMARK                         _______ _______ _______ _____ _____    ______ ____
ROOT
ATOM      1  P   UNL     1       6.357  -3.647  22.096  0.00  0.00    +0.483 P 
ATOM      2  O   UNL     1       5.660  -3.818  20.786  0.00  0.00    -0.227 OA
ENDROOT
BRANCH   1   3
ATOM      3  O   UNL     1       5.713  -2.410  22.907  0.00  0.00    -0.302 OA
ATOM      4  H   UNL     1       4.813  -2.612  23.244  0.00  0.00    +0.222 HD
ENDBRANCH   1   3
BRANCH   1   5
ATOM      5  O   UNL     1       6.033  -4.777  23.216  0.00  0.00    -0.284 OA
BRANCH   5   6
ATOM      6  C   UNL     1       4.753  -4.808  23.876  0.00  0.00    +0.206 C 
BRANCH   6   7
ATOM      7  C   UNL     1       4.546  -4.475  25.409  0.00  0.00    +0.179 C 
ATOM      8  C   UNL     1       5.653  -4.768  26.429  0.00  0.00    +0.194 C 
ATOM      9  C   UNL     1       6.028  -3.413  27.026  0.00  0.00    +0.196 C 
ATOM     10  C   UNL     1       5.184  -2.396  26.252  0.00  0.00    +0.253 C 
ATOM     11  O   UNL     1       4.104  -3.114  25.635  0.00  0.00    -0.346 OA
BRANCH  10  12
ATOM     12  N   UNL     1       4.704  -1.302  27.094  0.00  0.00    -0.286 N 
ATOM     13  C   UNL     1       5.472  -0.231  27.463  0.00  0.00    +0.167 A 
ATOM     14  N   UNL     1       6.775  -0.029  27.185  0.00  0.00    -0.216 NA
ATOM     15  C   UNL     1       7.192   1.155  27.696  0.00  0.00    +0.225 A 
ATOM     16  N   UNL     1       6.479   2.071  28.376  0.00  0.00    -0.219 NA
ATOM     17  C   UNL     1       5.174   1.832  28.616  0.00  0.00    +0.147 A 
ATOM     18  N   UNL     1       4.447   2.790  29.320  0.00  0.00    -0.341 N 
ATOM     19  H   UNL     1       3.603   2.437  29.753  0.00  0.00    +0.144 HD
ATOM     20  H   UNL     1       5.036   3.410  29.861  0.00  0.00    +0.144 HD
ATOM     21  C   UNL     1       4.626   0.613  28.159  0.00  0.00    +0.147 A 
ATOM     22  N   UNL     1       3.370   0.045  28.277  0.00  0.00    -0.231 NA
ATOM     23  C   UNL     1       3.456  -1.101  27.624  0.00  0.00    +0.203 A 
ENDBRANCH  10  12
BRANCH   9  24
ATOM     24  O   UNL     1       7.428  -3.176  26.850  0.00  0.00    -0.385 OA
ATOM     25  H   UNL     1       7.769  -3.926  26.316  0.00  0.00    +0.210 HD
ENDBRANCH   9  24
BRANCH   8  26
ATOM     26  O   UNL     1       5.063  -5.564  27.470  0.00  0.00    -0.278 OA
BRANCH  26  27
ATOM     27  P   UNL     1       5.983  -6.135  28.650  0.00  0.00    +0.473 P 
ATOM     28  O   UNL     1       5.912  -5.421  29.952  0.00  0.00    -0.228 OA
BRANCH  27  29
ATOM     29  O   UNL     1       5.580  -7.677  28.685  0.00  0.00    -0.303 OA
ATOM     30  H   UNL     1       5.002  -7.886  29.439  0.00  0.00    +0.222 HD
ENDBRANCH  27  29
BRANCH  27  31
ATOM     31  O   UNL     1       7.427  -6.165  27.978  0.00  0.00    -0.303 OA
ATOM     32  H   UNL     1       7.713  -5.270  27.734  0.00  0.00    +0.222 HD
ENDBRANCH  27  31
ENDBRANCH  26  27
ENDBRANCH   8  26
ENDBRANCH   6   7
ENDBRANCH   5   6
ENDBRANCH   1   5
BRANCH   1  33
ATOM     33  O   UNL     1       7.969  -3.183  21.931  0.00  0.00    -0.186 OA
BRANCH  33  34
ATOM     34  P   UNL     1       8.170  -2.348  23.432  0.00  0.00    +0.483 P 
ATOM     35  O   UNL     1       9.452  -3.127  23.753  0.00  0.00    -0.227 OA
BRANCH  34  36
ATOM     36  O   UNL     1       8.371  -1.512  24.934  0.00  0.00    -0.302 OA
ATOM     37  H   UNL     1       7.804  -2.010  25.556  0.00  0.00    +0.222 HD
ENDBRANCH  34  36
BRANCH  34  38
ATOM     38  O   UNL     1       8.574  -0.974  22.596  0.00  0.00    -0.286 OA
BRANCH  38  39
ATOM     39  C   UNL     1       9.542  -0.155  23.270  0.00  0.00    +0.181 C 
BRANCH  39  40
ATOM     40  C   UNL     1       9.303   1.368  23.138  0.00  0.00    +0.024 C 
ATOM     41  C   UNL     1       9.174   1.935  24.569  0.00  0.00    +0.016 C 
ATOM     42  C   UNL     1      10.494   2.083  22.469  0.00  0.00    +0.016 C 
BRANCH  40  43
ATOM     43  C   UNL     1       7.983   1.633  22.323  0.00  0.00    +0.208 C 
BRANCH  43  46
ATOM     44  N   UNL     1       7.896   4.132  22.167  0.00  0.00    -0.313 N 
ATOM     45  H   UNL     1       8.725   4.090  21.585  0.00  0.00    +0.149 HD
ATOM     46  C   UNL     1       7.284   2.990  22.658  0.00  0.00    +0.242 C 
ATOM     47  O   UNL     1       6.251   3.086  23.316  0.00  0.00    -0.273 OA
BRANCH  44  48
ATOM     48  C   UNL     1       7.342   5.421  22.543  0.00  0.00    +0.113 C 
BRANCH  48  49
ATOM     49  C   UNL     1       8.361   6.476  22.933  0.00  0.00    +0.114 C 
BRANCH  49  52
ATOM     50  N   UNL     1      10.710   5.854  22.961  0.00  0.00    -0.316 N 
ATOM     51  H   UNL     1      10.731   6.171  22.000  0.00  0.00    +0.149 HD
ATOM     52  C   UNL     1       9.524   5.848  23.658  0.00  0.00    +0.215 C 
ATOM     53  O   UNL     1       9.401   5.416  24.801  0.00  0.00    -0.276 OA
BRANCH  50  55
ATOM     54  C   UNL     1      13.102   5.467  22.585  0.00  0.00    +0.024 C 
ATOM     55  C   UNL     1      11.915   5.263  23.508  0.00  0.00    +0.101 C 
ENDBRANCH  50  55
ENDBRANCH  49  52
ENDBRANCH  48  49
ENDBRANCH  44  48
ENDBRANCH  43  46
BRANCH  43  56
ATOM     56  O   UNL     1       8.283   1.570  20.925  0.00  0.00    -0.382 OA
ATOM     57  H   UNL     1       9.138   1.119  20.813  0.00  0.00    +0.210 HD
ENDBRANCH  43  56
ENDBRANCH  40  43
ENDBRANCH  39  40
ENDBRANCH  38  39
ENDBRANCH  34  38
ENDBRANCH  33  34
ENDBRANCH   1  33
TORSDOF 23
ENDMDL
MODEL 3
REMARK VINA RESULT:      -6.3      2.002      3.559
REMARK  Name = 
REMARK  26 active torsions:
REMARK  status: ('A' for Active; 'I' for Inactive)
REMARK    1  A    between atoms: C_1  and  C_2
REMARK    2  A    between atoms: C_2  and  N_3
REMARK    3  A    between atoms: C_4  and  C_6
REMARK    4  A    between atoms: C_6  and  C_7
REMARK    5  A    between atoms: C_7  and  N_8
REMARK    6  A    between atoms: C_9  and  C_11
REMARK    7  A    between atoms: C_11  and  O_13
REMARK    8  A    between atoms: C_11  and  C_14
REMARK    9  A    between atoms: C_14  and  C_15
REMARK   10  A    between atoms: C_14  and  C_16
REMARK   11  A    between atoms: C_14  and  C_17
REMARK   12  A    between atoms: C_17  and  O_18
REMARK   13  A    between atoms: O_18  and  P_19
REMARK   14  A    between atoms: P_19  and  O_20
REMARK   15  A    between atoms: P_19  and  O_22
REMARK   16  A    between atoms: O_22  and  P_23
REMARK   17  A    between atoms: P_23  and  O_24
REMARK   18  A    between atoms: P_23  and  O_26
REMARK   19  A    between atoms: O_26  and  C_27
REMARK   20  A    between atoms: C_27  and  C_28
REMARK   21  A    between atoms: C_31  and  N_43
REMARK   22  A    between atoms: C_33  and  O_35
REMARK   23  A    between atoms: C_36  and  O_38
REMARK   24  A    between atoms: O_38  and  P_39
REMARK   25  A    between atoms: P_39  and  O_40
REMARK   26  A    between atoms: P_39  and  O_41
REMARK                            x       y       z     vdW  Elec       q    Type
REMARK                         _______ _______ _______ _____ _____    ______ ____
ROOT
ATOM      1  P   UNL     1       7.231  -4.766  26.611  0.00  0.00    +0.483 P 
ATOM      2  O   UNL     1       6.292  -5.185  25.527  0.00  0.00    -0.227 OA
ENDROOT
BRANCH   1   3
ATOM      3  O   UNL     1       8.186  -6.000  27.020  0.00  0.00    -0.302 OA
ATOM      4  H   UNL     1       8.891  -6.163  26.356  0.00  0.00    +0.222 HD
ENDBRANCH   1   3
BRANCH   1   5
ATOM      5  O   UNL     1       8.426  -3.765  26.156  0.00  0.00    -0.284 OA
BRANCH   5   6
ATOM      6  C   UNL     1       8.349  -2.355  26.442  0.00  0.00    +0.206 C 
BRANCH   6   7
ATOM      7  C   UNL     1       8.522  -1.225  25.349  0.00  0.00    +0.179 C 
ATOM      8  C   UNL     1       7.529  -1.100  24.188  0.00  0.00    +0.194 C 
ATOM      9  C   UNL     1       6.895   0.281  24.337  0.00  0.00    +0.196 C 
ATOM     10  C   UNL     1       7.487   0.846  25.632  0.00  0.00    +0.253 C 
ATOM     11  O   UNL     1       8.676   0.097  25.924  0.00  0.00    -0.346 OA
BRANCH  10  12
ATOM     12  N   UNL     1       7.751   2.282  25.552  0.00  0.00    -0.286 N 
ATOM     13  C   UNL     1       8.769   2.830  24.822  0.00  0.00    +0.167 A 
ATOM     14  N   UNL     1       9.718   2.174  24.125  0.00  0.00    -0.216 NA
ATOM     15  C   UNL     1      10.548   3.049  23.510  0.00  0.00    +0.225 A 
ATOM     16  N   UNL     1      10.501   4.393  23.515  0.00  0.00    -0.219 NA
ATOM     17  C   UNL     1       9.524   5.006  24.214  0.00  0.00    +0.147 A 
ATOM     18  N   UNL     1       9.485   6.400  24.210  0.00  0.00    -0.341 N 
ATOM     19  H   UNL     1       8.971   6.804  24.982  0.00  0.00    +0.144 HD
ATOM     20  H   UNL     1      10.373   6.815  23.960  0.00  0.00    +0.144 HD
ATOM     21  C   UNL     1       8.609   4.200  24.927  0.00  0.00    +0.147 A 
ATOM     22  N   UNL     1       7.546   4.497  25.762  0.00  0.00    -0.231 NA
ATOM     23  C   UNL     1       7.056   3.322  26.114  0.00  0.00    +0.203 A 
ENDBRANCH  10  12
BRANCH   9  24
ATOM     24  O   UNL     1       5.472   0.156  24.422  0.00  0.00    -0.385 OA
ATOM     25  H   UNL     1       5.278  -0.176  25.325  0.00  0.00    +0.210 HD
ENDBRANCH   9  24
BRANCH   8  26
ATOM     26  O   UNL     1       8.299  -1.107  22.975  0.00  0.00    -0.278 OA
BRANCH  26  27
ATOM     27  P   UNL     1       9.802  -1.659  22.992  0.00  0.00    +0.473 P 
ATOM     28  O   UNL     1      10.012  -2.996  23.610  0.00  0.00    -0.228 OA
BRANCH  27  29
ATOM     29  O   UNL     1      10.234  -1.529  21.463  0.00  0.00    -0.303 OA
ATOM     30  H   UNL     1      10.843  -0.782  21.319  0.00  0.00    +0.222 HD
ENDBRANCH  27  29
BRANCH  27  31
ATOM     31  O   UNL     1      10.600  -0.466  23.685  0.00  0.00    -0.303 OA
ATOM     32  H   UNL     1      11.558  -0.605  23.615  0.00  0.00    +0.222 HD
ENDBRANCH  27  31
ENDBRANCH  26  27
ENDBRANCH   8  26
ENDBRANCH   6   7
ENDBRANCH   5   6
ENDBRANCH   1   5
BRANCH   1  33
ATOM     33  O   UNL     1       6.449  -4.406  28.059  0.00  0.00    -0.186 OA
BRANCH  33  34
ATOM     34  P   UNL     1       5.651  -5.917  28.324  0.00  0.00    +0.483 P 
ATOM     35  O   UNL     1       6.376  -6.125  29.660  0.00  0.00    -0.227 OA
BRANCH  34  36
ATOM     36  O   UNL     1       4.852  -7.429  28.590  0.00  0.00    -0.302 OA
ATOM     37  H   UNL     1       3.927  -7.253  28.325  0.00  0.00    +0.222 HD
ENDBRANCH  34  36
BRANCH  34  38
ATOM     38  O   UNL     1       4.235  -5.102  28.606  0.00  0.00    -0.286 OA
BRANCH  38  39
ATOM     39  C   UNL     1       4.426  -3.728  28.975  0.00  0.00    +0.181 C 
BRANCH  39  40
ATOM     40  C   UNL     1       3.472  -2.732  28.273  0.00  0.00    +0.024 C 
ATOM     41  C   UNL     1       2.036  -3.263  28.467  0.00  0.00    +0.016 C 
ATOM     42  C   UNL     1       3.531  -1.329  28.911  0.00  0.00    +0.016 C 
BRANCH  40  43
ATOM     43  C   UNL     1       3.822  -2.645  26.741  0.00  0.00    +0.208 C 
BRANCH  43  46
ATOM     44  N   UNL     1       3.246  -4.835  25.669  0.00  0.00    -0.313 N 
ATOM     45  H   UNL     1       4.035  -5.242  26.158  0.00  0.00    +0.149 HD
ATOM     46  C   UNL     1       2.894  -3.503  25.822  0.00  0.00    +0.242 C 
ATOM     47  O   UNL     1       1.900  -3.065  25.249  0.00  0.00    -0.273 OA
BRANCH  44  48
ATOM     48  C   UNL     1       2.476  -5.644  24.739  0.00  0.00    +0.113 C 
BRANCH  48  49
ATOM     49  C   UNL     1       3.290  -6.576  23.862  0.00  0.00    +0.114 C 
BRANCH  49  52
ATOM     50  N   UNL     1       5.318  -6.497  22.525  0.00  0.00    -0.316 N 
ATOM     51  H   UNL     1       5.492  -7.435  22.864  0.00  0.00    +0.149 HD
ATOM     52  C   UNL     1       4.229  -5.791  22.981  0.00  0.00    +0.215 C 
ATOM     53  O   UNL     1       3.986  -4.627  22.674  0.00  0.00    -0.276 OA
BRANCH  50  55
ATOM     54  C   UNL     1       7.665  -5.798  22.407  0.00  0.00    +0.024 C 
ATOM     55  C   UNL     1       6.329  -5.878  21.692  0.00  0.00    +0.101 C 
ENDBRANCH  50  55
ENDBRANCH  49  52
ENDBRANCH  48  49
ENDBRANCH  44  48
ENDBRANCH  43  46
BRANCH  43  56
ATOM     56  O   UNL     1       3.782  -1.274  26.334  0.00  0.00    -0.382 OA
ATOM     57  H   UNL     1       2.851  -1.007  26.243  0.00  0.00    +0.210 HD
ENDBRANCH  43  56
ENDBRANCH  40  43
ENDBRANCH  39  40
ENDBRANCH  38  39
ENDBRANCH  34  38
ENDBRANCH  33  34
ENDBRANCH   1  33
TORSDOF 23
ENDMDL
MODEL 4
REMARK VINA RESULT:      -6.3      2.831      5.075
REMARK  Name = 
REMARK  26 active torsions:
REMARK  status: ('A' for Active; 'I' for Inactive)
REMARK    1  A    between atoms: C_1  and  C_2
REMARK    2  A    between atoms: C_2  and  N_3
REMARK    3  A    between atoms: C_4  and  C_6
REMARK    4  A    between atoms: C_6  and  C_7
REMARK    5  A    between atoms: C_7  and  N_8
REMARK    6  A    between atoms: C_9  and  C_11
REMARK    7  A    between atoms: C_11  and  O_13
REMARK    8  A    between atoms: C_11  and  C_14
REMARK    9  A    between atoms: C_14  and  C_15
REMARK   10  A    between atoms: C_14  and  C_16
REMARK   11  A    between atoms: C_14  and  C_17
REMARK   12  A    between atoms: C_17  and  O_18
REMARK   13  A    between atoms: O_18  and  P_19
REMARK   14  A    between atoms: P_19  and  O_20
REMARK   15  A    between atoms: P_19  and  O_22
REMARK   16  A    between atoms: O_22  and  P_23
REMARK   17  A    between atoms: P_23  and  O_24
REMARK   18  A    between atoms: P_23  and  O_26
REMARK   19  A    between atoms: O_26  and  C_27
REMARK   20  A    between atoms: C_27  and  C_28
REMARK   21  A    between atoms: C_31  and  N_43
REMARK   22  A    between atoms: C_33  and  O_35
REMARK   23  A    between atoms: C_36  and  O_38
REMARK   24  A    between atoms: O_38  and  P_39
REMARK   25  A    between atoms: P_39  and  O_40
REMARK   26  A    between atoms: P_39  and  O_41
REMARK                            x       y       z     vdW  Elec       q    Type
REMARK                         _______ _______ _______ _____ _____    ______ ____
ROOT
ATOM      1  P   UNL     1       7.316  -4.987  26.684  0.00  0.00    +0.483 P 
ATOM      2  O   UNL     1       7.234  -3.522  26.966  0.00  0.00    -0.227 OA
ENDROOT
BRANCH   1   3
ATOM      3  O   UNL     1       6.067  -5.443  25.769  0.00  0.00    -0.302 OA
ATOM      4  H   UNL     1       6.351  -5.951  24.977  0.00  0.00    +0.222 HD
ENDBRANCH   1   3
BRANCH   1   5
ATOM      5  O   UNL     1       8.473  -5.436  25.637  0.00  0.00    -0.284 OA
BRANCH   5   6
ATOM      6  C   UNL     1       9.347  -4.456  25.046  0.00  0.00    +0.206 C 
BRANCH   6   7
ATOM      7  C   UNL     1       8.910  -3.476  23.883  0.00  0.00    +0.179 C 
ATOM      8  C   UNL     1       7.434  -3.113  23.679  0.00  0.00    +0.194 C 
ATOM      9  C   UNL     1       7.353  -1.600  23.876  0.00  0.00    +0.196 C 
ATOM     10  C   UNL     1       8.770  -1.181  24.278  0.00  0.00    +0.253 C 
ATOM     11  O   UNL     1       9.660  -2.236  23.880  0.00  0.00    -0.346 OA
BRANCH  10  12
ATOM     12  N   UNL     1       9.160   0.108  23.708  0.00  0.00    -0.286 N 
ATOM     13  C   UNL     1       8.818   1.316  24.253  0.00  0.00    +0.167 A 
ATOM     14  N   UNL     1       8.037   1.533  25.329  0.00  0.00    -0.216 NA
ATOM     15  C   UNL     1       7.939   2.860  25.586  0.00  0.00    +0.225 A 
ATOM     16  N   UNL     1       8.517   3.884  24.933  0.00  0.00    -0.219 NA
ATOM     17  C   UNL     1       9.303   3.617  23.871  0.00  0.00    +0.147 A 
ATOM     18  N   UNL     1       9.898   4.687  23.205  0.00  0.00    -0.341 N 
ATOM     19  H   UNL     1      10.188   4.479  22.258  0.00  0.00    +0.144 HD
ATOM     20  H   UNL     1       9.425   5.566  23.376  0.00  0.00    +0.144 HD
ATOM     21  C   UNL     1       9.461   2.268  23.482  0.00  0.00    +0.147 A 
ATOM     22  N   UNL     1      10.139   1.664  22.438  0.00  0.00    -0.231 NA
ATOM     23  C   UNL     1       9.936   0.370  22.608  0.00  0.00    +0.203 A 
ENDBRANCH  10  12
BRANCH   9  24
ATOM     24  O   UNL     1       6.405  -1.295  24.903  0.00  0.00    -0.385 OA
ATOM     25  H   UNL     1       6.658  -1.837  25.682  0.00  0.00    +0.210 HD
ENDBRANCH   9  24
BRANCH   8  26
ATOM     26  O   UNL     1       7.119  -3.399  22.306  0.00  0.00    -0.278 OA
BRANCH  26  27
ATOM     27  P   UNL     1       6.096  -4.581  21.958  0.00  0.00    +0.473 P 
ATOM     28  O   UNL     1       6.035  -5.009  20.535  0.00  0.00    -0.228 OA
BRANCH  27  29
ATOM     29  O   UNL     1       6.511  -5.714  23.002  0.00  0.00    -0.303 OA
ATOM     30  H   UNL     1       6.019  -6.541  22.856  0.00  0.00    +0.222 HD
ENDBRANCH  27  29
BRANCH  27  31
ATOM     31  O   UNL     1       4.723  -4.039  22.556  0.00  0.00    -0.303 OA
ATOM     32  H   UNL     1       4.851  -3.180  22.990  0.00  0.00    +0.222 HD
ENDBRANCH  27  31
ENDBRANCH  26  27
ENDBRANCH   8  26
ENDBRANCH   6   7
ENDBRANCH   5   6
ENDBRANCH   1   5
BRANCH   1  33
ATOM     33  O   UNL     1       7.131  -5.937  28.063  0.00  0.00    -0.186 OA
BRANCH  33  34
ATOM     34  P   UNL     1       5.516  -6.497  27.797  0.00  0.00    +0.483 P 
ATOM     35  O   UNL     1       5.655  -7.572  28.881  0.00  0.00    -0.227 OA
BRANCH  34  36
ATOM     36  O   UNL     1       3.900  -7.056  27.531  0.00  0.00    -0.302 OA
ATOM     37  H   UNL     1       3.614  -7.373  28.412  0.00  0.00    +0.222 HD
ENDBRANCH  34  36
BRANCH  34  38
ATOM     38  O   UNL     1       4.936  -5.108  28.494  0.00  0.00    -0.286 OA
BRANCH  38  39
ATOM     39  C   UNL     1       3.579  -4.807  28.131  0.00  0.00    +0.181 C 
BRANCH  39  40
ATOM     40  C   UNL     1       3.156  -3.339  28.380  0.00  0.00    +0.024 C 
ATOM     41  C   UNL     1       1.636  -3.344  28.654  0.00  0.00    +0.016 C 
ATOM     42  C   UNL     1       3.842  -2.744  29.626  0.00  0.00    +0.016 C 
BRANCH  40  43
ATOM     43  C   UNL     1       3.481  -2.466  27.112  0.00  0.00    +0.208 C 
BRANCH  43  46
ATOM     44  N   UNL     1       3.309   0.001  27.507  0.00  0.00    -0.313 N 
ATOM     45  H   UNL     1       2.304  -0.087  27.401  0.00  0.00    +0.149 HD
ATOM     46  C   UNL     1       4.155  -1.094  27.434  0.00  0.00    +0.242 C 
ATOM     47  O   UNL     1       5.361  -0.947  27.620  0.00  0.00    -0.273 OA
BRANCH  44  48
ATOM     48  C   UNL     1       3.903   1.314  27.697  0.00  0.00    +0.113 C 
BRANCH  48  49
ATOM     49  C   UNL     1       3.436   2.383  26.728  0.00  0.00    +0.114 C 
BRANCH  49  52
ATOM     50  N   UNL     1       4.346   3.478  24.758  0.00  0.00    -0.316 N 
ATOM     51  H   UNL     1       3.883   4.312  25.096  0.00  0.00    +0.149 HD
ATOM     52  C   UNL     1       4.191   2.285  25.426  0.00  0.00    +0.215 C 
ATOM     53  O   UNL     1       4.661   1.217  25.044  0.00  0.00    -0.276 OA
BRANCH  50  55
ATOM     54  C   UNL     1       4.041   3.463  22.325  0.00  0.00    +0.024 C 
ATOM     55  C   UNL     1       5.024   3.548  23.478  0.00  0.00    +0.101 C 
ENDBRANCH  50  55
ENDBRANCH  49  52
ENDBRANCH  48  49
ENDBRANCH  44  48
ENDBRANCH  43  46
BRANCH  43  56
ATOM     56  O   UNL     1       4.314  -3.225  26.230  0.00  0.00    -0.382 OA
ATOM     57  H   UNL     1       4.989  -3.682  26.760  0.00  0.00    +0.210 HD
ENDBRANCH  43  56
ENDBRANCH  40  43
ENDBRANCH  39  40
ENDBRANCH  38  39
ENDBRANCH  34  38
ENDBRANCH  33  34
ENDBRANCH   1  33
TORSDOF 23
ENDMDL
MODEL 5
REMARK VINA RESULT:      -6.3      2.221      4.754
REMARK  Name = 
REMARK  26 active torsions:
REMARK  status: ('A' for Active; 'I' for Inactive)
REMARK    1  A    between atoms: C_1  and  C_2
REMARK    2  A    between atoms: C_2  and  N_3
REMARK    3  A    between atoms: C_4  and  C_6
REMARK    4  A    between atoms: C_6  and  C_7
REMARK    5  A    between atoms: C_7  and  N_8
REMARK    6  A    between atoms: C_9  and  C_11
REMARK    7  A    between atoms: C_11  and  O_13
REMARK    8  A    between atoms: C_11  and  C_14
REMARK    9  A    between atoms: C_14  and  C_15
REMARK   10  A    between atoms: C_14  and  C_16
REMARK   11  A    between atoms: C_14  and  C_17
REMARK   12  A    between atoms: C_17  and  O_18
REMARK   13  A    between atoms: O_18  and  P_19
REMARK   14  A    between atoms: P_19  and  O_20
REMARK   15  A    between atoms: P_19  and  O_22
REMARK   16  A    between atoms: O_22  and  P_23
REMARK   17  A    between atoms: P_23  and  O_24
REMARK   18  A    between atoms: P_23  and  O_26
REMARK   19  A    between atoms: O_26  and  C_27
REMARK   20  A    between atoms: C_27  and  C_28
REMARK   21  A    between atoms: C_31  and  N_43
REMARK   22  A    between atoms: C_33  and  O_35
REMARK   23  A    between atoms: C_36  and  O_38
REMARK   24  A    between atoms: O_38  and  P_39
REMARK   25  A    between atoms: P_39  and  O_40
REMARK   26  A    between atoms: P_39  and  O_41
REMARK                            x       y       z     vdW  Elec       q    Type
REMARK                         _______ _______ _______ _____ _____    ______ ____
ROOT
ATOM      1  P   UNL     1       4.539  -4.768  23.056  0.00  0.00    +0.483 P 
ATOM      2  O   UNL     1       3.075  -5.068  23.060  0.00  0.00    -0.227 OA
ENDROOT
BRANCH   1   3
ATOM      3  O   UNL     1       5.288  -5.689  21.963  0.00  0.00    -0.302 OA
ATOM      4  H   UNL     1       6.213  -5.896  22.220  0.00  0.00    +0.222 HD
ENDBRANCH   1   3
BRANCH   1   5
ATOM      5  O   UNL     1       4.961  -3.343  22.400  0.00  0.00    -0.284 OA
BRANCH   5   6
ATOM      6  C   UNL     1       6.344  -3.039  22.137  0.00  0.00    +0.206 C 
BRANCH   6   7
ATOM      7  C   UNL     1       7.326  -2.411  23.207  0.00  0.00    +0.179 C 
ATOM      8  C   UNL     1       8.787  -2.865  23.289  0.00  0.00    +0.194 C 
ATOM      9  C   UNL     1       9.622  -1.619  22.997  0.00  0.00    +0.196 C 
ATOM     10  C   UNL     1       8.597  -0.531  22.668  0.00  0.00    +0.253 C 
ATOM     11  O   UNL     1       7.329  -0.961  23.186  0.00  0.00    -0.346 OA
BRANCH  10  12
ATOM     12  N   UNL     1       8.982   0.782  23.184  0.00  0.00    -0.286 N 
ATOM     13  C   UNL     1       8.366   1.951  22.828  0.00  0.00    +0.167 A 
ATOM     14  N   UNL     1       7.379   2.110  21.925  0.00  0.00    -0.216 NA
ATOM     15  C   UNL     1       7.005   3.410  21.853  0.00  0.00    +0.225 A 
ATOM     16  N   UNL     1       7.475   4.457  22.555  0.00  0.00    -0.219 NA
ATOM     17  C   UNL     1       8.453   4.246  23.459  0.00  0.00    +0.147 A 
ATOM     18  N   UNL     1       8.930   5.339  24.181  0.00  0.00    -0.341 N 
ATOM     19  H   UNL     1       9.849   5.204  24.582  0.00  0.00    +0.144 HD
ATOM     20  H   UNL     1       8.732   6.223  23.729  0.00  0.00    +0.144 HD
ATOM     21  C   UNL     1       8.951   2.933  23.607  0.00  0.00    +0.147 A 
ATOM     22  N   UNL     1       9.959   2.392  24.386  0.00  0.00    -0.231 NA
ATOM     23  C   UNL     1       9.945   1.101  24.107  0.00  0.00    +0.203 A 
ENDBRANCH  10  12
BRANCH   9  24
ATOM     24  O   UNL     1      10.496  -1.869  21.892  0.00  0.00    -0.385 OA
ATOM     25  H   UNL     1       9.989  -1.640  21.083  0.00  0.00    +0.210 HD
ENDBRANCH   9  24
BRANCH   8  26
ATOM     26  O   UNL     1       9.029  -3.252  24.653  0.00  0.00    -0.278 OA
BRANCH  26  27
ATOM     27  P   UNL     1       8.935  -4.796  25.068  0.00  0.00    +0.473 P 
ATOM     28  O   UNL     1       8.185  -5.103  26.315  0.00  0.00    -0.228 OA
BRANCH  27  29
ATOM     29  O   UNL     1       8.374  -5.476  23.739  0.00  0.00    -0.303 OA
ATOM     30  H   UNL     1       7.401  -5.500  23.725  0.00  0.00    +0.222 HD
ENDBRANCH  27  29
BRANCH  27  31
ATOM     31  O   UNL     1      10.463  -5.246  25.074  0.00  0.00    -0.303 OA
ATOM     32  H   UNL     1      10.666  -5.767  25.868  0.00  0.00    +0.222 HD
ENDBRANCH  27  31
ENDBRANCH  26  27
ENDBRANCH   8  26
ENDBRANCH   6   7
ENDBRANCH   5   6
ENDBRANCH   1   5
BRANCH   1  33
ATOM     33  O   UNL     1       5.306  -5.198  24.493  0.00  0.00    -0.186 OA
BRANCH  33  34
ATOM     34  P   UNL     1       4.227  -6.444  25.018  0.00  0.00    +0.483 P 
ATOM     35  O   UNL     1       4.942  -7.497  24.163  0.00  0.00    -0.227 OA
BRANCH  34  36
ATOM     36  O   UNL     1       3.147  -7.689  25.545  0.00  0.00    -0.302 OA
ATOM     37  H   UNL     1       2.500  -7.761  24.815  0.00  0.00    +0.222 HD
ENDBRANCH  34  36
BRANCH  34  38
ATOM     38  O   UNL     1       4.934  -6.402  26.518  0.00  0.00    -0.286 OA
BRANCH  38  39
ATOM     39  C   UNL     1       3.992  -6.266  27.593  0.00  0.00    +0.181 C 
BRANCH  39  40
ATOM     40  C   UNL     1       4.631  -6.094  28.992  0.00  0.00    +0.024 C 
ATOM     41  C   UNL     1       3.795  -6.936  29.981  0.00  0.00    +0.016 C 
ATOM     42  C   UNL     1       6.074  -6.634  29.038  0.00  0.00    +0.016 C 
BRANCH  40  43
ATOM     43  C   UNL     1       4.606  -4.577  29.408  0.00  0.00    +0.208 C 
BRANCH  43  46
ATOM     44  N   UNL     1       5.785  -3.517  27.468  0.00  0.00    -0.313 N 
ATOM     45  H   UNL     1       6.580  -4.112  27.672  0.00  0.00    +0.149 HD
ATOM     46  C   UNL     1       4.612  -3.581  28.204  0.00  0.00    +0.242 C 
ATOM     47  O   UNL     1       3.656  -2.877  27.890  0.00  0.00    -0.273 OA
BRANCH  44  48
ATOM     48  C   UNL     1       5.875  -2.529  26.407  0.00  0.00    +0.113 C 
BRANCH  48  49
ATOM     49  C   UNL     1       6.849  -1.394  26.658  0.00  0.00    +0.114 C 
BRANCH  49  52
ATOM     50  N   UNL     1       6.545   0.834  25.735  0.00  0.00    -0.316 N 
ATOM     51  H   UNL     1       7.349   0.625  25.156  0.00  0.00    +0.149 HD
ATOM     52  C   UNL     1       6.127  -0.070  26.684  0.00  0.00    +0.215 C 
ATOM     53  O   UNL     1       5.207   0.136  27.471  0.00  0.00    -0.276 OA
BRANCH  50  55
ATOM     54  C   UNL     1       4.872   2.223  24.603  0.00  0.00    +0.024 C 
ATOM     55  C   UNL     1       5.971   2.162  25.647  0.00  0.00    +0.101 C 
ENDBRANCH  50  55
ENDBRANCH  49  52
ENDBRANCH  48  49
ENDBRANCH  44  48
ENDBRANCH  43  46
BRANCH  43  56
ATOM     56  O   UNL     1       3.461  -4.341  30.232  0.00  0.00    -0.382 OA
ATOM     57  H   UNL     1       2.664  -4.412  29.679  0.00  0.00    +0.210 HD
ENDBRANCH  43  56
ENDBRANCH  40  43
ENDBRANCH  39  40
ENDBRANCH  38  39
ENDBRANCH  34  38
ENDBRANCH  33  34
ENDBRANCH   1  33
TORSDOF 23
ENDMDL
MODEL 6
REMARK VINA RESULT:      -6.2      2.557      8.981
REMARK  Name = 
REMARK  26 active torsions:
REMARK  status: ('A' for Active; 'I' for Inactive)
REMARK    1  A    between atoms: C_1  and  C_2
REMARK    2  A    between atoms: C_2  and  N_3
REMARK    3  A    between atoms: C_4  and  C_6
REMARK    4  A    between atoms: C_6  and  C_7
REMARK    5  A    between atoms: C_7  and  N_8
REMARK    6  A    between atoms: C_9  and  C_11
REMARK    7  A    between atoms: C_11  and  O_13
REMARK    8  A    between atoms: C_11  and  C_14
REMARK    9  A    between atoms: C_14  and  C_15
REMARK   10  A    between atoms: C_14  and  C_16
REMARK   11  A    between atoms: C_14  and  C_17
REMARK   12  A    between atoms: C_17  and  O_18
REMARK   13  A    between atoms: O_18  and  P_19
REMARK   14  A    between atoms: P_19  and  O_20
REMARK   15  A    between atoms: P_19  and  O_22
REMARK   16  A    between atoms: O_22  and  P_23
REMARK   17  A    between atoms: P_23  and  O_24
REMARK   18  A    between atoms: P_23  and  O_26
REMARK   19  A    between atoms: O_26  and  C_27
REMARK   20  A    between atoms: C_27  and  C_28
REMARK   21  A    between atoms: C_31  and  N_43
REMARK   22  A    between atoms: C_33  and  O_35
REMARK   23  A    between atoms: C_36  and  O_38
REMARK   24  A    between atoms: O_38  and  P_39
REMARK   25  A    between atoms: P_39  and  O_40
REMARK   26  A    between atoms: P_39  and  O_41
REMARK                            x       y       z     vdW  Elec       q    Type
REMARK                         _______ _______ _______ _____ _____    ______ ____
ROOT
ATOM      1  P   UNL     1       9.520  -2.307  23.741  0.00  0.00    +0.483 P 
ATOM      2  O   UNL     1      10.400  -1.857  22.621  0.00  0.00    -0.227 OA
ENDROOT
BRANCH   1   3
ATOM      3  O   UNL     1       8.012  -2.517  23.209  0.00  0.00    -0.302 OA
ATOM      4  H   UNL     1       7.443  -1.734  23.379  0.00  0.00    +0.222 HD
ENDBRANCH   1   3
BRANCH   1   5
ATOM      5  O   UNL     1       9.744  -3.838  24.237  0.00  0.00    -0.284 OA
BRANCH   5   6
ATOM      6  C   UNL     1       9.280  -4.264  25.532  0.00  0.00    +0.206 C 
BRANCH   6   7
ATOM      7  C   UNL     1       8.010  -5.181  25.753  0.00  0.00    +0.179 C 
ATOM      8  C   UNL     1       7.124  -5.004  26.991  0.00  0.00    +0.194 C 
ATOM      9  C   UNL     1       5.743  -4.626  26.458  0.00  0.00    +0.196 C 
ATOM     10  C   UNL     1       5.928  -4.511  24.942  0.00  0.00    +0.253 C 
ATOM     11  O   UNL     1       7.132  -5.214  24.600  0.00  0.00    -0.346 OA
BRANCH  10  12
ATOM     12  N   UNL     1       4.773  -5.006  24.194  0.00  0.00    -0.286 N 
ATOM     13  C   UNL     1       3.487  -4.596  24.419  0.00  0.00    +0.167 A 
ATOM     14  N   UNL     1       3.057  -3.748  25.373  0.00  0.00    -0.216 NA
ATOM     15  C   UNL     1       1.719  -3.561  25.276  0.00  0.00    +0.225 A 
ATOM     16  N   UNL     1       0.863  -4.083  24.379  0.00  0.00    -0.219 NA
ATOM     17  C   UNL     1       1.342  -4.915  23.432  0.00  0.00    +0.147 A 
ATOM     18  N   UNL     1       0.445  -5.448  22.508  0.00  0.00    -0.341 N 
ATOM     19  H   UNL     1       0.771  -6.289  22.050  0.00  0.00    +0.144 HD
ATOM     20  H   UNL     1      -0.513  -5.422  22.833  0.00  0.00    +0.144 HD
ATOM     21  C   UNL     1       2.723  -5.214  23.446  0.00  0.00    +0.147 A 
ATOM     22  N   UNL     1       3.512  -6.045  22.670  0.00  0.00    -0.231 NA
ATOM     23  C   UNL     1       4.734  -5.892  23.148  0.00  0.00    +0.203 A 
ENDBRANCH  10  12
BRANCH   9  24
ATOM     24  O   UNL     1       5.325  -3.383  27.031  0.00  0.00    -0.385 OA
ATOM     25  H   UNL     1       5.273  -2.742  26.290  0.00  0.00    +0.210 HD
ENDBRANCH   9  24
BRANCH   8  26
ATOM     26  O   UNL     1       7.019  -6.293  27.619  0.00  0.00    -0.278 OA
BRANCH  26  27
ATOM     27  P   UNL     1       6.120  -6.465  28.932  0.00  0.00    +0.473 P 
ATOM     28  O   UNL     1       5.743  -5.218  29.648  0.00  0.00    -0.228 OA
BRANCH  27  29
ATOM     29  O   UNL     1       4.905  -7.353  28.403  0.00  0.00    -0.303 OA
ATOM     30  H   UNL     1       5.121  -8.302  28.399  0.00  0.00    +0.222 HD
ENDBRANCH  27  29
BRANCH  27  31
ATOM     31  O   UNL     1       6.964  -7.506  29.795  0.00  0.00    -0.303 OA
ATOM     32  H   UNL     1       7.735  -7.075  30.199  0.00  0.00    +0.222 HD
ENDBRANCH  27  31
ENDBRANCH  26  27
ENDBRANCH   8  26
ENDBRANCH   6   7
ENDBRANCH   5   6
ENDBRANCH   1   5
BRANCH   1  33
ATOM     33  O   UNL     1       9.331  -1.142  24.943  0.00  0.00    -0.186 OA
BRANCH  33  34
ATOM     34  P   UNL     1       7.642  -0.822  24.753  0.00  0.00    +0.483 P 
ATOM     35  O   UNL     1       7.300  -1.586  26.037  0.00  0.00    -0.227 OA
BRANCH  34  36
ATOM     36  O   UNL     1       5.952  -0.501  24.562  0.00  0.00    -0.302 OA
ATOM     37  H   UNL     1       5.630  -0.394  25.480  0.00  0.00    +0.222 HD
ENDBRANCH  34  36
BRANCH  34  38
ATOM     38  O   UNL     1       7.916   0.769  25.134  0.00  0.00    -0.286 OA
BRANCH  38  39
ATOM     39  C   UNL     1       9.260   1.200  24.869  0.00  0.00    +0.181 C 
BRANCH  39  40
ATOM     40  C   UNL     1       9.376   2.372  23.865  0.00  0.00    +0.024 C 
ATOM     41  C   UNL     1       8.751   3.613  24.540  0.00  0.00    +0.016 C 
ATOM     42  C   UNL     1      10.845   2.716  23.547  0.00  0.00    +0.016 C 
BRANCH  40  43
ATOM     43  C   UNL     1       8.603   2.020  22.541  0.00  0.00    +0.208 C 
BRANCH  43  46
ATOM     44  N   UNL     1       6.186   2.311  23.132  0.00  0.00    -0.313 N 
ATOM     45  H   UNL     1       6.293   1.552  23.796  0.00  0.00    +0.149 HD
ATOM     46  C   UNL     1       7.246   2.776  22.370  0.00  0.00    +0.242 C 
ATOM     47  O   UNL     1       7.082   3.732  21.617  0.00  0.00    -0.273 OA
BRANCH  44  48
ATOM     48  C   UNL     1       4.879   2.913  22.928  0.00  0.00    +0.113 C 
BRANCH  48  49
ATOM     49  C   UNL     1       4.329   3.687  24.111  0.00  0.00    +0.114 C 
BRANCH  49  52
ATOM     50  N   UNL     1       5.299   5.730  23.221  0.00  0.00    -0.316 N 
ATOM     51  H   UNL     1       4.988   5.398  22.317  0.00  0.00    +0.149 HD
ATOM     52  C   UNL     1       5.127   4.946  24.338  0.00  0.00    +0.215 C 
ATOM     53  O   UNL     1       5.536   5.244  25.457  0.00  0.00    -0.276 OA
BRANCH  50  55
ATOM     54  C   UNL     1       7.499   6.734  22.819  0.00  0.00    +0.024 C 
ATOM     55  C   UNL     1       6.067   6.958  23.267  0.00  0.00    +0.101 C 
ENDBRANCH  50  55
ENDBRANCH  49  52
ENDBRANCH  48  49
ENDBRANCH  44  48
ENDBRANCH  43  46
BRANCH  43  56
ATOM     56  O   UNL     1       9.455   2.286  21.423  0.00  0.00    -0.382 OA
ATOM     57  H   UNL     1       8.981   2.045  20.609  0.00  0.00    +0.210 HD
ENDBRANCH  43  56
ENDBRANCH  40  43
ENDBRANCH  39  40
ENDBRANCH  38  39
ENDBRANCH  34  38
ENDBRANCH  33  34
ENDBRANCH   1  33
TORSDOF 23
ENDMDL
MODEL 7
REMARK VINA RESULT:      -6.2      1.334      2.069
REMARK  Name = 
REMARK  26 active torsions:
REMARK  status: ('A' for Active; 'I' for Inactive)
REMARK    1  A    between atoms: C_1  and  C_2
REMARK    2  A    between atoms: C_2  and  N_3
REMARK    3  A    between atoms: C_4  and  C_6
REMARK    4  A    between atoms: C_6  and  C_7
REMARK    5  A    between atoms: C_7  and  N_8
REMARK    6  A    between atoms: C_9  and  C_11
REMARK    7  A    between atoms: C_11  and  O_13
REMARK    8  A    between atoms: C_11  and  C_14
REMARK    9  A    between atoms: C_14  and  C_15
REMARK   10  A    between atoms: C_14  and  C_16
REMARK   11  A    between atoms: C_14  and  C_17
REMARK   12  A    between atoms: C_17  and  O_18
REMARK   13  A    between atoms: O_18  and  P_19
REMARK   14  A    between atoms: P_19  and  O_20
REMARK   15  A    between atoms: P_19  and  O_22
REMARK   16  A    between atoms: O_22  and  P_23
REMARK   17  A    between atoms: P_23  and  O_24
REMARK   18  A    between atoms: P_23  and  O_26
REMARK   19  A    between atoms: O_26  and  C_27
REMARK   20  A    between atoms: C_27  and  C_28
REMARK   21  A    between atoms: C_31  and  N_43
REMARK   22  A    between atoms: C_33  and  O_35
REMARK   23  A    between atoms: C_36  and  O_38
REMARK   24  A    between atoms: O_38  and  P_39
REMARK   25  A    between atoms: P_39  and  O_40
REMARK   26  A    between atoms: P_39  and  O_41
REMARK                            x       y       z     vdW  Elec       q    Type
REMARK                         _______ _______ _______ _____ _____    ______ ____
ROOT
ATOM      1  P   UNL     1       9.030  -4.565  25.012  0.00  0.00    +0.483 P 
ATOM      2  O   UNL     1       8.432  -5.562  24.073  0.00  0.00    -0.227 OA
ENDROOT
BRANCH   1   3
ATOM      3  O   UNL     1      10.186  -5.262  25.895  0.00  0.00    -0.302 OA
ATOM      4  H   UNL     1      11.085  -4.961  25.639  0.00  0.00    +0.222 HD
ENDBRANCH   1   3
BRANCH   1   5
ATOM      5  O   UNL     1       9.985  -3.443  24.329  0.00  0.00    -0.284 OA
BRANCH   5   6
ATOM      6  C   UNL     1       9.521  -2.671  23.205  0.00  0.00    +0.206 C 
BRANCH   6   7
ATOM      7  C   UNL     1       8.676  -1.340  23.341  0.00  0.00    +0.179 C 
ATOM      8  C   UNL     1       7.973  -0.992  24.658  0.00  0.00    +0.194 C 
ATOM      9  C   UNL     1       8.595   0.324  25.120  0.00  0.00    +0.196 C 
ATOM     10  C   UNL     1       9.693   0.619  24.094  0.00  0.00    +0.253 C 
ATOM     11  O   UNL     1       9.410  -0.162  22.923  0.00  0.00    -0.346 OA
BRANCH  10  12
ATOM     12  N   UNL     1       9.809   2.044  23.786  0.00  0.00    -0.286 N 
ATOM     13  C   UNL     1       8.741   2.854  23.513  0.00  0.00    +0.167 A 
ATOM     14  N   UNL     1       7.447   2.491  23.415  0.00  0.00    -0.216 NA
ATOM     15  C   UNL     1       6.669   3.569  23.153  0.00  0.00    +0.225 A 
ATOM     16  N   UNL     1       7.038   4.854  23.016  0.00  0.00    -0.219 NA
ATOM     17  C   UNL     1       8.343   5.172  23.138  0.00  0.00    +0.147 A 
ATOM     18  N   UNL     1       8.712   6.509  22.995  0.00  0.00    -0.341 N 
ATOM     19  H   UNL     1       9.687   6.649  22.767  0.00  0.00    +0.144 HD
ATOM     20  H   UNL     1       8.022   7.054  22.494  0.00  0.00    +0.144 HD
ATOM     21  C   UNL     1       9.262   4.128  23.382  0.00  0.00    +0.147 A 
ATOM     22  N   UNL     1      10.640   4.100  23.508  0.00  0.00    -0.231 NA
ATOM     23  C   UNL     1      10.930   2.834  23.752  0.00  0.00    +0.203 A 
ENDBRANCH  10  12
BRANCH   9  24
ATOM     24  O   UNL     1       9.134   0.170  26.436  0.00  0.00    -0.385 OA
ATOM     25  H   UNL     1       9.530   1.037  26.675  0.00  0.00    +0.210 HD
ENDBRANCH   9  24
BRANCH   8  26
ATOM     26  O   UNL     1       6.592  -0.744  24.343  0.00  0.00    -0.278 OA
BRANCH  26  27
ATOM     27  P   UNL     1       5.475  -0.923  25.476  0.00  0.00    +0.473 P 
ATOM     28  O   UNL     1       4.646   0.272  25.785  0.00  0.00    -0.228 OA
BRANCH  27  29
ATOM     29  O   UNL     1       4.676  -2.207  24.972  0.00  0.00    -0.303 OA
ATOM     30  H   UNL     1       4.298  -2.076  24.085  0.00  0.00    +0.222 HD
ENDBRANCH  27  29
BRANCH  27  31
ATOM     31  O   UNL     1       6.316  -1.493  26.704  0.00  0.00    -0.303 OA
ATOM     32  H   UNL     1       7.255  -1.574  26.471  0.00  0.00    +0.222 HD
ENDBRANCH  27  31
ENDBRANCH  26  27
ENDBRANCH   8  26
ENDBRANCH   6   7
ENDBRANCH   5   6
ENDBRANCH   1   5
BRANCH   1  33
ATOM     33  O   UNL     1       7.944  -4.025  26.181  0.00  0.00    -0.186 OA
BRANCH  33  34
ATOM     34  P   UNL     1       6.794  -5.315  26.106  0.00  0.00    +0.483 P 
ATOM     35  O   UNL     1       7.518  -6.095  27.210  0.00  0.00    -0.227 OA
BRANCH  34  36
ATOM     36  O   UNL     1       5.643  -6.606  26.030  0.00  0.00    -0.302 OA
ATOM     37  H   UNL     1       6.186  -7.410  26.156  0.00  0.00    +0.222 HD
ENDBRANCH  34  36
BRANCH  34  38
ATOM     38  O   UNL     1       5.661  -4.326  26.803  0.00  0.00    -0.286 OA
BRANCH  38  39
ATOM     39  C   UNL     1       5.475  -4.566  28.207  0.00  0.00    +0.181 C 
BRANCH  39  40
ATOM     40  C   UNL     1       4.016  -4.417  28.700  0.00  0.00    +0.024 C 
ATOM     41  C   UNL     1       3.565  -5.801  29.214  0.00  0.00    +0.016 C 
ATOM     42  C   UNL     1       3.904  -3.432  29.881  0.00  0.00    +0.016 C 
BRANCH  40  43
ATOM     43  C   UNL     1       3.096  -3.947  27.513  0.00  0.00    +0.208 C 
BRANCH  43  46
ATOM     44  N   UNL     1       2.883  -5.935  26.003  0.00  0.00    -0.313 N 
ATOM     45  H   UNL     1       3.875  -5.851  25.812  0.00  0.00    +0.149 HD
ATOM     46  C   UNL     1       2.230  -5.085  26.882  0.00  0.00    +0.242 C 
ATOM     47  O   UNL     1       1.038  -5.255  27.124  0.00  0.00    -0.273 OA
BRANCH  44  48
ATOM     48  C   UNL     1       2.095  -6.940  25.311  0.00  0.00    +0.113 C 
BRANCH  48  49
ATOM     49  C   UNL     1       2.598  -7.321  23.931  0.00  0.00    +0.114 C 
BRANCH  49  52
ATOM     50  N   UNL     1       4.637  -6.357  23.025  0.00  0.00    -0.316 N 
ATOM     51  H   UNL     1       5.095  -7.196  23.358  0.00  0.00    +0.149 HD
ATOM     52  C   UNL     1       3.301  -6.155  23.282  0.00  0.00    +0.215 C 
ATOM     53  O   UNL     1       2.688  -5.136  22.974  0.00  0.00    -0.276 OA
BRANCH  50  55
ATOM     54  C   UNL     1       6.101  -5.798  21.140  0.00  0.00    +0.024 C 
ATOM     55  C   UNL     1       5.460  -5.323  22.431  0.00  0.00    +0.101 C 
ENDBRANCH  50  55
ENDBRANCH  49  52
ENDBRANCH  48  49
ENDBRANCH  44  48
ENDBRANCH  43  46
BRANCH  43  56
ATOM     56  O   UNL     1       2.251  -2.888  27.974  0.00  0.00    -0.382 OA
ATOM     57  H   UNL     1       2.770  -2.315  28.564  0.00  0.00    +0.210 HD
ENDBRANCH  43  56
ENDBRANCH  40  43
ENDBRANCH  39  40
ENDBRANCH  38  39
ENDBRANCH  34  38
ENDBRANCH  33  34
ENDBRANCH   1  33
TORSDOF 23
ENDMDL
MODEL 8
REMARK VINA RESULT:      -6.1      1.985      4.031
REMARK  Name = 
REMARK  26 active torsions:
REMARK  status: ('A' for Active; 'I' for Inactive)
REMARK    1  A    between atoms: C_1  and  C_2
REMARK    2  A    between atoms: C_2  and  N_3
REMARK    3  A    between atoms: C_4  and  C_6
REMARK    4  A    between atoms: C_6  and  C_7
REMARK    5  A    between atoms: C_7  and  N_8
REMARK    6  A    between atoms: C_9  and  C_11
REMARK    7  A    between atoms: C_11  and  O_13
REMARK    8  A    between atoms: C_11  and  C_14
REMARK    9  A    between atoms: C_14  and  C_15
REMARK   10  A    between atoms: C_14  and  C_16
REMARK   11  A    between atoms: C_14  and  C_17
REMARK   12  A    between atoms: C_17  and  O_18
REMARK   13  A    between atoms: O_18  and  P_19
REMARK   14  A    between atoms: P_19  and  O_20
REMARK   15  A    between atoms: P_19  and  O_22
REMARK   16  A    between atoms: O_22  and  P_23
REMARK   17  A    between atoms: P_23  and  O_24
REMARK   18  A    between atoms: P_23  and  O_26
REMARK   19  A    between atoms: O_26  and  C_27
REMARK   20  A    between atoms: C_27  and  C_28
REMARK   21  A    between atoms: C_31  and  N_43
REMARK   22  A    between atoms: C_33  and  O_35
REMARK   23  A    between atoms: C_36  and  O_38
REMARK   24  A    between atoms: O_38  and  P_39
REMARK   25  A    between atoms: P_39  and  O_40
REMARK   26  A    between atoms: P_39  and  O_41
REMARK                            x       y       z     vdW  Elec       q    Type
REMARK                         _______ _______ _______ _____ _____    ______ ____
ROOT
ATOM      1  P   UNL     1       6.282  -4.891  21.668  0.00  0.00    +0.483 P 
ATOM      2  O   UNL     1       6.075  -5.775  20.481  0.00  0.00    -0.227 OA
ENDROOT
BRANCH   1   3
ATOM      3  O   UNL     1       7.078  -5.692  22.820  0.00  0.00    -0.302 OA
ATOM      4  H   UNL     1       7.730  -5.126  23.287  0.00  0.00    +0.222 HD
ENDBRANCH   1   3
BRANCH   1   5
ATOM      5  O   UNL     1       7.384  -3.713  21.482  0.00  0.00    -0.284 OA
BRANCH   5   6
ATOM      6  C   UNL     1       7.922  -3.026  22.628  0.00  0.00    +0.206 C 
BRANCH   6   7
ATOM      7  C   UNL     1       7.389  -1.630  23.146  0.00  0.00    +0.179 C 
ATOM      8  C   UNL     1       7.135  -1.396  24.640  0.00  0.00    +0.194 C 
ATOM      9  C   UNL     1       8.077  -0.263  25.044  0.00  0.00    +0.196 C 
ATOM     10  C   UNL     1       8.893   0.035  23.783  0.00  0.00    +0.253 C 
ATOM     11  O   UNL     1       8.176  -0.512  22.666  0.00  0.00    -0.346 OA
BRANCH  10  12
ATOM     12  N   UNL     1       9.168   1.461  23.612  0.00  0.00    -0.286 N 
ATOM     13  C   UNL     1       8.246   2.365  23.160  0.00  0.00    +0.167 A 
ATOM     14  N   UNL     1       6.991   2.110  22.743  0.00  0.00    -0.216 NA
ATOM     15  C   UNL     1       6.364   3.258  22.388  0.00  0.00    +0.225 A 
ATOM     16  N   UNL     1       6.836   4.516  22.431  0.00  0.00    -0.219 NA
ATOM     17  C   UNL     1       8.093   4.725  22.871  0.00  0.00    +0.147 A 
ATOM     18  N   UNL     1       8.569   6.034  22.912  0.00  0.00    -0.341 N 
ATOM     19  H   UNL     1       9.578   6.110  22.923  0.00  0.00    +0.144 HD
ATOM     20  H   UNL     1       8.051   6.658  22.306  0.00  0.00    +0.144 HD
ATOM     21  C   UNL     1       8.863   3.600  23.243  0.00  0.00    +0.147 A 
ATOM     22  N   UNL     1      10.169   3.458  23.679  0.00  0.00    -0.231 NA
ATOM     23  C   UNL     1      10.313   2.162  23.892  0.00  0.00    +0.203 A 
ENDBRANCH  10  12
BRANCH   9  24
ATOM     24  O   UNL     1       8.914  -0.689  26.123  0.00  0.00    -0.385 OA
ATOM     25  H   UNL     1       9.296  -1.551  25.851  0.00  0.00    +0.210 HD
ENDBRANCH   9  24
BRANCH   8  26
ATOM     26  O   UNL     1       5.785  -0.918  24.766  0.00  0.00    -0.278 OA
BRANCH  26  27
ATOM     27  P   UNL     1       4.951  -1.239  26.094  0.00  0.00    +0.473 P 
ATOM     28  O   UNL     1       5.709  -1.830  27.229  0.00  0.00    -0.228 OA
BRANCH  27  29
ATOM     29  O   UNL     1       4.233   0.153  26.394  0.00  0.00    -0.303 OA
ATOM     30  H   UNL     1       4.154   0.703  25.594  0.00  0.00    +0.222 HD
ENDBRANCH  27  29
BRANCH  27  31
ATOM     31  O   UNL     1       3.756  -2.138  25.544  0.00  0.00    -0.303 OA
ATOM     32  H   UNL     1       4.045  -3.056  25.418  0.00  0.00    +0.222 HD
ENDBRANCH  27  31
ENDBRANCH  26  27
ENDBRANCH   8  26
ENDBRANCH   6   7
ENDBRANCH   5   6
ENDBRANCH   1   5
BRANCH   1  33
ATOM     33  O   UNL     1       4.843  -4.469  22.436  0.00  0.00    -0.186 OA
BRANCH  33  34
ATOM     34  P   UNL     1       4.835  -5.667  23.683  0.00  0.00    +0.483 P 
ATOM     35  O   UNL     1       4.631  -4.608  24.772  0.00  0.00    -0.227 OA
BRANCH  34  36
ATOM     36  O   UNL     1       4.826  -6.867  24.930  0.00  0.00    -0.302 OA
ATOM     37  H   UNL     1       5.557  -6.595  25.521  0.00  0.00    +0.222 HD
ENDBRANCH  34  36
BRANCH  34  38
ATOM     38  O   UNL     1       3.350  -6.184  23.155  0.00  0.00    -0.286 OA
BRANCH  38  39
ATOM     39  C   UNL     1       2.719  -7.120  24.043  0.00  0.00    +0.181 C 
BRANCH  39  40
ATOM     40  C   UNL     1       1.245  -6.791  24.385  0.00  0.00    +0.024 C 
ATOM     41  C   UNL     1       0.604  -6.197  23.112  0.00  0.00    +0.016 C 
ATOM     42  C   UNL     1       0.443  -8.056  24.753  0.00  0.00    +0.016 C 
BRANCH  40  43
ATOM     43  C   UNL     1       1.189  -5.751  25.564  0.00  0.00    +0.208 C 
BRANCH  43  46
ATOM     44  N   UNL     1       3.119  -5.500  27.142  0.00  0.00    -0.313 N 
ATOM     45  H   UNL     1       3.431  -4.716  26.579  0.00  0.00    +0.149 HD
ATOM     46  C   UNL     1       1.958  -6.197  26.850  0.00  0.00    +0.242 C 
ATOM     47  O   UNL     1       1.590  -7.107  27.589  0.00  0.00    -0.273 OA
BRANCH  44  48
ATOM     48  C   UNL     1       3.923  -5.949  28.265  0.00  0.00    +0.113 C 
BRANCH  48  49
ATOM     49  C   UNL     1       5.068  -5.031  28.652  0.00  0.00    +0.114 C 
BRANCH  49  52
ATOM     50  N   UNL     1       6.707  -4.873  26.864  0.00  0.00    -0.316 N 
ATOM     51  H   UNL     1       6.065  -4.221  26.431  0.00  0.00    +0.149 HD
ATOM     52  C   UNL     1       6.360  -5.506  28.035  0.00  0.00    +0.215 C 
ATOM     53  O   UNL     1       7.050  -6.360  28.587  0.00  0.00    -0.276 OA
BRANCH  50  55
ATOM     54  C   UNL     1       9.035  -4.258  26.401  0.00  0.00    +0.024 C 
ATOM     55  C   UNL     1       7.905  -5.235  26.133  0.00  0.00    +0.101 C 
ENDBRANCH  50  55
ENDBRANCH  49  52
ENDBRANCH  48  49
ENDBRANCH  44  48
ENDBRANCH  43  46
BRANCH  43  56
ATOM     56  O   UNL     1       1.699  -4.498  25.100  0.00  0.00    -0.382 OA
ATOM     57  H   UNL     1       2.587  -4.368  25.475  0.00  0.00    +0.210 HD
ENDBRANCH  43  56
ENDBRANCH  40  43
ENDBRANCH  39  40
ENDBRANCH  38  39
ENDBRANCH  34  38
ENDBRANCH  33  34
ENDBRANCH   1  33
TORSDOF 23
ENDMDL
MODEL 9
REMARK VINA RESULT:      -6.1      3.467      5.799
REMARK  Name = 
REMARK  26 active torsions:
REMARK  status: ('A' for Active; 'I' for Inactive)
REMARK    1  A    between atoms: C_1  and  C_2
REMARK    2  A    between atoms: C_2  and  N_3
REMARK    3  A    between atoms: C_4  and  C_6
REMARK    4  A    between atoms: C_6  and  C_7
REMARK    5  A    between atoms: C_7  and  N_8
REMARK    6  A    between atoms: C_9  and  C_11
REMARK    7  A    between atoms: C_11  and  O_13
REMARK    8  A    between atoms: C_11  and  C_14
REMARK    9  A    between atoms: C_14  and  C_15
REMARK   10  A    between atoms: C_14  and  C_16
REMARK   11  A    between atoms: C_14  and  C_17
REMARK   12  A    between atoms: C_17  and  O_18
REMARK   13  A    between atoms: O_18  and  P_19
REMARK   14  A    between atoms: P_19  and  O_20
REMARK   15  A    between atoms: P_19  and  O_22
REMARK   16  A    between atoms: O_22  and  P_23
REMARK   17  A    between atoms: P_23  and  O_24
REMARK   18  A    between atoms: P_23  and  O_26
REMARK   19  A    between atoms: O_26  and  C_27
REMARK   20  A    between atoms: C_27  and  C_28
REMARK   21  A    between atoms: C_31  and  N_43
REMARK   22  A    between atoms: C_33  and  O_35
REMARK   23  A    between atoms: C_36  and  O_38
REMARK   24  A    between atoms: O_38  and  P_39
REMARK   25  A    between atoms: P_39  and  O_40
REMARK   26  A    between atoms: P_39  and  O_41
REMARK                            x       y       z     vdW  Elec       q    Type
REMARK                         _______ _______ _______ _____ _____    ______ ____
ROOT
ATOM      1  P   UNL     1       9.402  -0.696  22.195  0.00  0.00    +0.483 P 
ATOM      2  O   UNL     1       9.179   0.536  21.379  0.00  0.00    -0.227 OA
ENDROOT
BRANCH   1   3
ATOM      3  O   UNL     1      10.603  -1.568  21.560  0.00  0.00    -0.302 OA
ATOM      4  H   UNL     1      10.508  -1.685  20.590  0.00  0.00    +0.222 HD
ENDBRANCH   1   3
BRANCH   1   5
ATOM      5  O   UNL     1      10.102  -0.463  23.641  0.00  0.00    -0.284 OA
BRANCH   5   6
ATOM      6  C   UNL     1      10.665   0.818  23.985  0.00  0.00    +0.206 C 
BRANCH   6   7
ATOM      7  C   UNL     1       9.807   2.050  24.483  0.00  0.00    +0.179 C 
ATOM      8  C   UNL     1       9.655   3.301  23.610  0.00  0.00    +0.194 C 
ATOM      9  C   UNL     1       8.160   3.422  23.322  0.00  0.00    +0.196 C 
ATOM     10  C   UNL     1       7.536   2.180  23.965  0.00  0.00    +0.253 C 
ATOM     11  O   UNL     1       8.478   1.671  24.922  0.00  0.00    -0.346 OA
BRANCH  10  12
ATOM     12  N   UNL     1       6.234   2.453  24.572  0.00  0.00    -0.286 N 
ATOM     13  C   UNL     1       5.122   2.810  23.859  0.00  0.00    +0.167 A 
ATOM     14  N   UNL     1       5.040   3.033  22.533  0.00  0.00    -0.216 NA
ATOM     15  C   UNL     1       3.771   3.347  22.180  0.00  0.00    +0.225 A 
ATOM     16  N   UNL     1       2.680   3.429  22.962  0.00  0.00    -0.219 NA
ATOM     17  C   UNL     1       2.807   3.182  24.282  0.00  0.00    +0.147 A 
ATOM     18  N   UNL     1       1.669   3.269  25.082  0.00  0.00    -0.341 N 
ATOM     19  H   UNL     1       1.861   3.404  26.066  0.00  0.00    +0.144 HD
ATOM     20  H   UNL     1       0.934   3.822  24.659  0.00  0.00    +0.144 HD
ATOM     21  C   UNL     1       4.092   2.872  24.780  0.00  0.00    +0.147 A 
ATOM     22  N   UNL     1       4.570   2.620  26.054  0.00  0.00    -0.231 NA
ATOM     23  C   UNL     1       5.857   2.371  25.888  0.00  0.00    +0.203 A 
ENDBRANCH  10  12
BRANCH   9  24
ATOM     24  O   UNL     1       7.939   3.448  21.909  0.00  0.00    -0.385 OA
ATOM     25  H   UNL     1       8.450   4.212  21.564  0.00  0.00    +0.210 HD
ENDBRANCH   9  24
BRANCH   8  26
ATOM     26  O   UNL     1      10.044   4.425  24.418  0.00  0.00    -0.278 OA
BRANCH  26  27
ATOM     27  P   UNL     1      10.806   5.661  23.743  0.00  0.00    +0.473 P 
ATOM     28  O   UNL     1      12.036   5.341  22.970  0.00  0.00    -0.228 OA
BRANCH  27  29
ATOM     29  O   UNL     1       9.642   6.376  22.922  0.00  0.00    -0.303 OA
ATOM     30  H   UNL     1       9.737   7.345  22.923  0.00  0.00    +0.222 HD
ENDBRANCH  27  29
BRANCH  27  31
ATOM     31  O   UNL     1      11.024   6.647  24.975  0.00  0.00    -0.303 OA
ATOM     32  H   UNL     1      10.506   7.460  24.862  0.00  0.00    +0.222 HD
ENDBRANCH  27  31
ENDBRANCH  26  27
ENDBRANCH   8  26
ENDBRANCH   6   7
ENDBRANCH   5   6
ENDBRANCH   1   5
BRANCH   1  33
ATOM     33  O   UNL     1       8.102  -1.766  22.145  0.00  0.00    -0.186 OA
BRANCH  33  34
ATOM     34  P   UNL     1       7.631  -1.704  23.808  0.00  0.00    +0.483 P 
ATOM     35  O   UNL     1       6.291  -1.045  23.459  0.00  0.00    -0.227 OA
BRANCH  34  36
ATOM     36  O   UNL     1       7.161  -1.643  25.473  0.00  0.00    -0.302 OA
ATOM     37  H   UNL     1       7.990  -1.828  25.957  0.00  0.00    +0.222 HD
ENDBRANCH  34  36
BRANCH  34  38
ATOM     38  O   UNL     1       7.436  -3.351  23.799  0.00  0.00    -0.286 OA
BRANCH  38  39
ATOM     39  C   UNL     1       6.072  -3.767  23.625  0.00  0.00    +0.181 C 
BRANCH  39  40
ATOM     40  C   UNL     1       5.883  -4.981  22.684  0.00  0.00    +0.024 C 
ATOM     41  C   UNL     1       5.918  -4.444  21.237  0.00  0.00    +0.016 C 
ATOM     42  C   UNL     1       7.031  -6.001  22.822  0.00  0.00    +0.016 C 
BRANCH  40  43
ATOM     43  C   UNL     1       4.502  -5.675  22.978  0.00  0.00    +0.208 C 
BRANCH  43  46
ATOM     44  N   UNL     1       4.866  -5.916  25.445  0.00  0.00    -0.313 N 
ATOM     45  H   UNL     1       5.099  -4.929  25.471  0.00  0.00    +0.149 HD
ATOM     46  C   UNL     1       4.486  -6.550  24.273  0.00  0.00    +0.242 C 
ATOM     47  O   UNL     1       4.163  -7.735  24.297  0.00  0.00    -0.273 OA
BRANCH  44  48
ATOM     48  C   UNL     1       4.971  -6.716  26.653  0.00  0.00    +0.113 C 
BRANCH  48  49
ATOM     49  C   UNL     1       5.709  -6.059  27.804  0.00  0.00    +0.114 C 
BRANCH  49  52
ATOM     50  N   UNL     1       7.951  -5.530  27.033  0.00  0.00    -0.316 N 
ATOM     51  H   UNL     1       8.184  -6.483  27.282  0.00  0.00    +0.149 HD
ATOM     52  C   UNL     1       6.693  -5.039  27.290  0.00  0.00    +0.215 C 
ATOM     53  O   UNL     1       6.353  -3.877  27.082  0.00  0.00    -0.276 OA
BRANCH  50  55
ATOM     54  C   UNL     1       9.705  -5.258  25.340  0.00  0.00    +0.024 C 
ATOM     55  C   UNL     1       9.020  -4.672  26.561  0.00  0.00    +0.101 C 
ENDBRANCH  50  55
ENDBRANCH  49  52
ENDBRANCH  48  49
ENDBRANCH  44  48
ENDBRANCH  43  46
BRANCH  43  56
ATOM     56  O   UNL     1       3.486  -4.670  23.055  0.00  0.00    -0.382 OA
ATOM     57  H   UNL     1       2.978  -4.681  22.226  0.00  0.00    +0.210 HD
ENDBRANCH  43  56
ENDBRANCH  40  43
ENDBRANCH  39  40
ENDBRANCH  38  39
ENDBRANCH  34  38
ENDBRANCH  33  34
ENDBRANCH   1  33
TORSDOF 23
ENDMDL
