MODEL 1
REMARK VINA RESULT:      -4.1      0.000      0.000
REMARK  Name = 
REMARK  6 active torsions:
REMARK  status: ('A' for Active; 'I' for Inactive)
REMARK    1  A    between atoms: C_1  and  C_2
REMARK    2  A    between atoms: C_2  and  C_3
REMARK    3  A    between atoms: C_2  and  C_4
REMARK    4  A    between atoms: C_4  and  C_5
REMARK    5  A    between atoms: C_5  and  C_7
REMARK    6  A    between atoms: C_7  and  O_8
REMARK                            x       y       z     vdW  Elec       q    Type
REMARK                         _______ _______ _______ _____ _____    ______ ____
ROOT
ATOM      1  C   UNL     1      12.250   5.767  23.885  0.00  0.00    +0.239 C 
ATOM      2  O   UNL     1      12.710   6.363  24.856  0.00  0.00    -0.285 OA
ENDROOT
BRANCH   1   3
ATOM      3  C   UNL     1      13.224   5.416  22.760  0.00  0.00    +0.373 C 
ATOM      4  O   UNL     1      12.945   5.491  21.582  0.00  0.00    -0.242 OA
BRANCH   3   5
ATOM      5  O   UNL     1      14.411   5.033  23.269  0.00  0.00    -0.475 OA
ATOM      6  H   UNL     1      14.375   5.097  24.253  0.00  0.00    +0.295 HD
ENDBRANCH   3   5
ENDBRANCH   1   3
BRANCH   1   7
ATOM      7  C   UNL     1      10.820   5.311  23.715  0.00  0.00    +0.089 C 
BRANCH   7   9
ATOM      8  C   UNL     1       8.653   6.464  23.079  0.00  0.00    +0.007 C 
ATOM      9  C   UNL     1       9.795   6.389  24.095  0.00  0.00    -0.010 C 
ATOM     10  C   UNL     1       9.224   6.096  25.485  0.00  0.00    +0.007 C 
ENDBRANCH   7   9
ENDBRANCH   1   7
TORSDOF 4
ENDMDL
MODEL 2
REMARK VINA RESULT:      -4.0      6.307      6.854
REMARK  Name = 
REMARK  6 active torsions:
REMARK  status: ('A' for Active; 'I' for Inactive)
REMARK    1  A    between atoms: C_1  and  C_2
REMARK    2  A    between atoms: C_2  and  C_3
REMARK    3  A    between atoms: C_2  and  C_4
REMARK    4  A    between atoms: C_4  and  C_5
REMARK    5  A    between atoms: C_5  and  C_7
REMARK    6  A    between atoms: C_7  and  O_8
REMARK                            x       y       z     vdW  Elec       q    Type
REMARK                         _______ _______ _______ _____ _____    ______ ____
ROOT
ATOM      1  C   UNL     1       9.693  -0.664  23.924  0.00  0.00    +0.239 C 
ATOM      2  O   UNL     1       8.581  -0.667  24.446  0.00  0.00    -0.285 OA
ENDROOT
BRANCH   1   3
ATOM      3  C   UNL     1      10.153  -1.964  23.262  0.00  0.00    +0.373 C 
ATOM      4  O   UNL     1      10.207  -3.029  23.839  0.00  0.00    -0.242 OA
BRANCH   3   5
ATOM      5  O   UNL     1      10.469  -1.746  21.971  0.00  0.00    -0.475 OA
ATOM      6  H   UNL     1      10.278  -2.562  21.450  0.00  0.00    +0.295 HD
ENDBRANCH   3   5
ENDBRANCH   1   3
BRANCH   1   7
ATOM      7  C   UNL     1      10.634   0.514  23.838  0.00  0.00    +0.089 C 
BRANCH   7   9
ATOM      8  C   UNL     1      10.852   3.014  23.471  0.00  0.00    +0.007 C 
ATOM      9  C   UNL     1       9.963   1.782  23.289  0.00  0.00    -0.010 C 
ATOM     10  C   UNL     1       9.642   1.598  21.804  0.00  0.00    +0.007 C 
ENDBRANCH   7   9
ENDBRANCH   1   7
TORSDOF 4
ENDMDL
MODEL 3
REMARK VINA RESULT:      -3.9     10.971     11.461
REMARK  Name = 
REMARK  6 active torsions:
REMARK  status: ('A' for Active; 'I' for Inactive)
REMARK    1  A    between atoms: C_1  and  C_2
REMARK    2  A    between atoms: C_2  and  C_3
REMARK    3  A    between atoms: C_2  and  C_4
REMARK    4  A    between atoms: C_4  and  C_5
REMARK    5  A    between atoms: C_5  and  C_7
REMARK    6  A    between atoms: C_7  and  O_8
REMARK                            x       y       z     vdW  Elec       q    Type
REMARK                         _______ _______ _______ _____ _____    ______ ____
ROOT
ATOM      1  C   UNL     1       8.653  -4.356  24.467  0.00  0.00    +0.239 C 
ATOM      2  O   UNL     1       9.602  -3.659  24.115  0.00  0.00    -0.285 OA
ENDROOT
BRANCH   1   3
ATOM      3  C   UNL     1       8.899  -5.332  25.618  0.00  0.00    +0.373 C 
ATOM      4  O   UNL     1       8.019  -5.763  26.333  0.00  0.00    -0.242 OA
BRANCH   3   5
ATOM      5  O   UNL     1      10.209  -5.638  25.702  0.00  0.00    -0.475 OA
ATOM      6  H   UNL     1      10.739  -4.813  25.593  0.00  0.00    +0.295 HD
ENDBRANCH   3   5
ENDBRANCH   1   3
BRANCH   1   7
ATOM      7  C   UNL     1       7.255  -4.311  23.898  0.00  0.00    +0.089 C 
BRANCH   7   9
ATOM      8  C   UNL     1       7.131  -5.822  21.865  0.00  0.00    +0.007 C 
ATOM      9  C   UNL     1       7.227  -4.378  22.364  0.00  0.00    -0.010 C 
ATOM     10  C   UNL     1       6.038  -3.574  21.831  0.00  0.00    +0.007 C 
ENDBRANCH   7   9
ENDBRANCH   1   7
TORSDOF 4
ENDMDL
MODEL 4
REMARK VINA RESULT:      -3.9      6.230      6.942
REMARK  Name = 
REMARK  6 active torsions:
REMARK  status: ('A' for Active; 'I' for Inactive)
REMARK    1  A    between atoms: C_1  and  C_2
REMARK    2  A    between atoms: C_2  and  C_3
REMARK    3  A    between atoms: C_2  and  C_4
REMARK    4  A    between atoms: C_4  and  C_5
REMARK    5  A    between atoms: C_5  and  C_7
REMARK    6  A    between atoms: C_7  and  O_8
REMARK                            x       y       z     vdW  Elec       q    Type
REMARK                         _______ _______ _______ _____ _____    ______ ____
ROOT
ATOM      1  C   UNL     1       8.667  -0.024  22.292  0.00  0.00    +0.239 C 
ATOM      2  O   UNL     1       7.490   0.197  22.565  0.00  0.00    -0.285 OA
ENDROOT
BRANCH   1   3
ATOM      3  C   UNL     1       9.044  -1.471  21.967  0.00  0.00    +0.373 C 
ATOM      4  O   UNL     1       8.298  -2.413  22.135  0.00  0.00    -0.242 OA
BRANCH   3   5
ATOM      5  O   UNL     1      10.294  -1.530  21.469  0.00  0.00    -0.475 OA
ATOM      6  H   UNL     1      10.452  -2.431  21.101  0.00  0.00    +0.295 HD
ENDBRANCH   3   5
ENDBRANCH   1   3
BRANCH   1   7
ATOM      7  C   UNL     1       9.771   1.002  22.207  0.00  0.00    +0.089 C 
BRANCH   7   9
ATOM      8  C   UNL     1      10.947   0.758  24.441  0.00  0.00    +0.007 C 
ATOM      9  C   UNL     1      10.084   1.663  23.558  0.00  0.00    -0.010 C 
ATOM     10  C   UNL     1      10.806   2.994  23.331  0.00  0.00    +0.007 C 
ENDBRANCH   7   9
ENDBRANCH   1   7
TORSDOF 4
ENDMDL
MODEL 5
REMARK VINA RESULT:      -3.7      5.112      5.760
REMARK  Name = 
REMARK  6 active torsions:
REMARK  status: ('A' for Active; 'I' for Inactive)
REMARK    1  A    between atoms: C_1  and  C_2
REMARK    2  A    between atoms: C_2  and  C_3
REMARK    3  A    between atoms: C_2  and  C_4
REMARK    4  A    between atoms: C_4  and  C_5
REMARK    5  A    between atoms: C_5  and  C_7
REMARK    6  A    between atoms: C_7  and  O_8
REMARK                            x       y       z     vdW  Elec       q    Type
REMARK                         _______ _______ _______ _____ _____    ______ ____
ROOT
ATOM      1  C   UNL     1      10.020   1.815  24.078  0.00  0.00    +0.239 C 
ATOM      2  O   UNL     1       9.134   2.285  24.788  0.00  0.00    -0.285 OA
ENDROOT
BRANCH   1   3
ATOM      3  C   UNL     1      10.638   2.745  23.033  0.00  0.00    +0.373 C 
ATOM      4  O   UNL     1      11.349   3.688  23.310  0.00  0.00    -0.242 OA
BRANCH   3   5
ATOM      5  O   UNL     1      10.287   2.356  21.792  0.00  0.00    -0.475 OA
ATOM      6  H   UNL     1       9.482   2.854  21.515  0.00  0.00    +0.295 HD
ENDBRANCH   3   5
ENDBRANCH   1   3
BRANCH   1   7
ATOM      7  C   UNL     1      10.586   0.418  24.167  0.00  0.00    +0.089 C 
BRANCH   7   9
ATOM      8  C   UNL     1      10.280  -1.414  22.439  0.00  0.00    +0.007 C 
ATOM      9  C   UNL     1       9.639  -0.651  23.602  0.00  0.00    -0.010 C 
ATOM     10  C   UNL     1       9.251  -1.637  24.706  0.00  0.00    +0.007 C 
ENDBRANCH   7   9
ENDBRANCH   1   7
TORSDOF 4
ENDMDL
MODEL 6
REMARK VINA RESULT:      -3.7      9.231      9.776
REMARK  Name = 
REMARK  6 active torsions:
REMARK  status: ('A' for Active; 'I' for Inactive)
REMARK    1  A    between atoms: C_1  and  C_2
REMARK    2  A    between atoms: C_2  and  C_3
REMARK    3  A    between atoms: C_2  and  C_4
REMARK    4  A    between atoms: C_4  and  C_5
REMARK    5  A    between atoms: C_5  and  C_7
REMARK    6  A    between atoms: C_7  and  O_8
REMARK                            x       y       z     vdW  Elec       q    Type
REMARK                         _______ _______ _______ _____ _____    ______ ____
ROOT
ATOM      1  C   UNL     1       9.239  -2.797  23.429  0.00  0.00    +0.239 C 
ATOM      2  O   UNL     1      10.030  -3.381  24.166  0.00  0.00    -0.285 OA
ENDROOT
BRANCH   1   3
ATOM      3  C   UNL     1       9.695  -1.458  22.847  0.00  0.00    +0.373 C 
ATOM      4  O   UNL     1       9.587  -0.400  23.431  0.00  0.00    -0.242 OA
BRANCH   3   5
ATOM      5  O   UNL     1      10.229  -1.635  21.623  0.00  0.00    -0.475 OA
ATOM      6  H   UNL     1      10.982  -2.269  21.689  0.00  0.00    +0.295 HD
ENDBRANCH   3   5
ENDBRANCH   1   3
BRANCH   1   7
ATOM      7  C   UNL     1       7.877  -3.293  23.010  0.00  0.00    +0.089 C 
BRANCH   7   9
ATOM      8  C   UNL     1       6.685  -5.012  24.446  0.00  0.00    +0.007 C 
ATOM      9  C   UNL     1       7.668  -4.788  23.293  0.00  0.00    -0.010 C 
ATOM     10  C   UNL     1       7.147  -5.488  22.035  0.00  0.00    +0.007 C 
ENDBRANCH   7   9
ENDBRANCH   1   7
TORSDOF 4
ENDMDL
MODEL 7
REMARK VINA RESULT:      -3.7      5.731      6.266
REMARK  Name = 
REMARK  6 active torsions:
REMARK  status: ('A' for Active; 'I' for Inactive)
REMARK    1  A    between atoms: C_1  and  C_2
REMARK    2  A    between atoms: C_2  and  C_3
REMARK    3  A    between atoms: C_2  and  C_4
REMARK    4  A    between atoms: C_4  and  C_5
REMARK    5  A    between atoms: C_5  and  C_7
REMARK    6  A    between atoms: C_7  and  O_8
REMARK                            x       y       z     vdW  Elec       q    Type
REMARK                         _______ _______ _______ _____ _____    ______ ____
ROOT
ATOM      1  C   UNL     1      10.200   1.260  23.623  0.00  0.00    +0.239 C 
ATOM      2  O   UNL     1      10.168   2.419  24.029  0.00  0.00    -0.285 OA
ENDROOT
BRANCH   1   3
ATOM      3  C   UNL     1       9.989   1.044  22.124  0.00  0.00    +0.373 C 
ATOM      4  O   UNL     1       9.910  -0.050  21.607  0.00  0.00    -0.242 OA
BRANCH   3   5
ATOM      5  O   UNL     1       9.895   2.228  21.487  0.00  0.00    -0.475 OA
ATOM      6  H   UNL     1      10.730   2.392  20.987  0.00  0.00    +0.295 HD
ENDBRANCH   3   5
ENDBRANCH   1   3
BRANCH   1   7
ATOM      7  C   UNL     1      10.470   0.031  24.457  0.00  0.00    +0.089 C 
BRANCH   7   9
ATOM      8  C   UNL     1       9.317  -2.227  24.376  0.00  0.00    +0.007 C 
ATOM      9  C   UNL     1       9.197  -0.759  24.794  0.00  0.00    -0.010 C 
ATOM     10  C   UNL     1       8.918  -0.677  26.297  0.00  0.00    +0.007 C 
ENDBRANCH   7   9
ENDBRANCH   1   7
TORSDOF 4
ENDMDL
MODEL 8
REMARK VINA RESULT:      -3.6     11.340     11.748
REMARK  Name = 
REMARK  6 active torsions:
REMARK  status: ('A' for Active; 'I' for Inactive)
REMARK    1  A    between atoms: C_1  and  C_2
REMARK    2  A    between atoms: C_2  and  C_3
REMARK    3  A    between atoms: C_2  and  C_4
REMARK    4  A    between atoms: C_4  and  C_5
REMARK    5  A    between atoms: C_5  and  C_7
REMARK    6  A    between atoms: C_7  and  O_8
REMARK                            x       y       z     vdW  Elec       q    Type
REMARK                         _______ _______ _______ _____ _____    ______ ____
ROOT
ATOM      1  C   UNL     1       7.933  -4.911  25.672  0.00  0.00    +0.239 C 
ATOM      2  O   UNL     1       7.724  -5.259  26.831  0.00  0.00    -0.285 OA
ENDROOT
BRANCH   1   3
ATOM      3  C   UNL     1       9.380  -4.971  25.179  0.00  0.00    +0.373 C 
ATOM      4  O   UNL     1       9.912  -4.082  24.548  0.00  0.00    -0.242 OA
BRANCH   3   5
ATOM      5  O   UNL     1       9.956  -6.129  25.556  0.00  0.00    -0.475 OA
ATOM      6  H   UNL     1      10.687  -5.933  26.189  0.00  0.00    +0.295 HD
ENDBRANCH   3   5
ENDBRANCH   1   3
BRANCH   1   7
ATOM      7  C   UNL     1       6.891  -4.468  24.672  0.00  0.00    +0.089 C 
BRANCH   7   9
ATOM      8  C   UNL     1       5.462  -6.042  23.289  0.00  0.00    +0.007 C 
ATOM      9  C   UNL     1       6.829  -5.367  23.429  0.00  0.00    -0.010 C 
ATOM     10  C   UNL     1       7.122  -4.541  22.174  0.00  0.00    +0.007 C 
ENDBRANCH   7   9
ENDBRANCH   1   7
TORSDOF 4
ENDMDL
MODEL 9
REMARK VINA RESULT:      -3.6      7.300      7.877
REMARK  Name = 
REMARK  6 active torsions:
REMARK  status: ('A' for Active; 'I' for Inactive)
REMARK    1  A    between atoms: C_1  and  C_2
REMARK    2  A    between atoms: C_2  and  C_3
REMARK    3  A    between atoms: C_2  and  C_4
REMARK    4  A    between atoms: C_4  and  C_5
REMARK    5  A    between atoms: C_5  and  C_7
REMARK    6  A    between atoms: C_7  and  O_8
REMARK                            x       y       z     vdW  Elec       q    Type
REMARK                         _______ _______ _______ _____ _____    ______ ____
ROOT
ATOM      1  C   UNL     1       9.890  -1.880  23.350  0.00  0.00    +0.239 C 
ATOM      2  O   UNL     1      10.733  -2.219  22.524  0.00  0.00    -0.285 OA
ENDROOT
BRANCH   1   3
ATOM      3  C   UNL     1       9.458  -2.932  24.373  0.00  0.00    +0.373 C 
ATOM      4  O   UNL     1       9.950  -4.038  24.447  0.00  0.00    -0.242 OA
BRANCH   3   5
ATOM      5  O   UNL     1       8.480  -2.447  25.162  0.00  0.00    -0.475 OA
ATOM      6  H   UNL     1       8.790  -1.607  25.578  0.00  0.00    +0.295 HD
ENDBRANCH   3   5
ENDBRANCH   1   3
BRANCH   1   7
ATOM      7  C   UNL     1       9.267  -0.510  23.479  0.00  0.00    +0.089 C 
BRANCH   7   9
ATOM      8  C   UNL     1       9.771   1.400  21.888  0.00  0.00    +0.007 C 
ATOM      9  C   UNL     1      10.237   0.627  23.125  0.00  0.00    -0.010 C 
ATOM     10  C   UNL     1      10.365   1.588  24.309  0.00  0.00    +0.007 C 
ENDBRANCH   7   9
ENDBRANCH   1   7
TORSDOF 4
ENDMDL
