MODEL 1
REMARK VINA RESULT:      -8.0      0.000      0.000
REMARK  Name = 
REMARK  4 active torsions:
REMARK  status: ('A' for Active; 'I' for Inactive)
REMARK    1  A    between atoms: C_2  and  C_8
REMARK    2  A    between atoms: C_8  and  O_9
REMARK    3  A    between atoms: C_18  and  C_20
REMARK    4  A    between atoms: C_27  and  C_28
REMARK                            x       y       z     vdW  Elec       q    Type
REMARK                         _______ _______ _______ _____ _____    ______ ____
ROOT
ATOM      1  C   UNL     1       6.306  -2.241  24.445  0.00  0.00    +0.190 C 
ATOM      2  O   UNL     1       7.151  -1.477  25.345  0.00  0.00    -0.344 OA
ATOM      3  C   UNL     1       8.503  -1.251  24.918  0.00  0.00    +0.125 C 
ATOM      4  C   UNL     1       9.320  -0.137  25.631  0.00  0.00    +0.032 C 
ATOM      5  C   UNL     1       9.234   1.266  25.003  0.00  0.00    +0.010 C 
ATOM      6  C   UNL     1      10.103   1.590  23.724  0.00  0.00    +0.009 C 
ATOM      7  C   UNL     1      11.599   1.367  23.872  0.00  0.00    +0.012 C 
ATOM      8  C   UNL     1       9.766   2.988  23.384  0.00  0.00    -0.024 C 
ATOM      9  C   UNL     1      10.349   4.067  23.931  0.00  0.00    -0.004 C 
ATOM     10  C   UNL     1       9.422   5.102  24.263  0.00  0.00    -0.005 C 
ATOM     11  C   UNL     1       9.346   6.237  23.612  0.00  0.00    -0.027 C 
ATOM     12  C   UNL     1       7.992   6.866  23.572  0.00  0.00    +0.031 C 
ATOM     13  C   UNL     1       7.402   6.572  22.175  0.00  0.00    +0.035 C 
ATOM     14  C   UNL     1       6.241   5.503  22.355  0.00  0.00    -0.066 C 
ATOM     15  C   UNL     1       5.041   6.432  22.594  0.00  0.00    +0.039 C 
ATOM     16  C   UNL     1       6.575   4.111  22.400  0.00  0.00    +0.090 C 
ATOM     17  C   UNL     1       6.094   2.497  22.891  0.00  0.00    +0.332 C 
ATOM     18  O   UNL     1       5.040   2.352  23.504  0.00  0.00    -0.246 OA
ATOM     19  O   UNL     1       7.016   1.372  22.664  0.00  0.00    -0.458 OA
ATOM     20  C   UNL     1       7.282  -0.333  22.783  0.00  0.00    +0.184 C 
ATOM     21  C   UNL     1       8.575  -0.997  23.420  0.00  0.00    +0.076 C 
ATOM     22  C   UNL     1       6.308  -1.587  22.988  0.00  0.00    +0.111 C 
ENDROOT
BRANCH   1  23
ATOM     23  C   UNL     1       6.323  -3.903  24.630  0.00  0.00    +0.143 C 
ATOM     24  N   UNL     1       7.511  -4.531  24.024  0.00  0.00    -0.298 N 
ATOM     25  H   UNL     1       7.641  -4.576  23.018  0.00  0.00    +0.150 HD
ATOM     26  C   UNL     1       8.378  -5.222  24.820  0.00  0.00    +0.272 C 
ATOM     27  O   UNL     1       9.387  -5.793  24.449  0.00  0.00    -0.263 OA
ATOM     28  S   UNL     1       7.798  -5.145  26.474  0.00  0.00    -0.066 S 
ATOM     29  C   UNL     1       6.119  -4.709  25.925  0.00  0.00    +0.106 C 
ENDBRANCH   1  23
BRANCH   1  30
ATOM     30  O   UNL     1       4.957  -1.996  24.921  0.00  0.00    -0.363 OA
ATOM     31  H   UNL     1       5.030  -1.846  25.876  0.00  0.00    +0.213 HD
ENDBRANCH   1  30
TORSDOF 2
ENDMDL
MODEL 2
REMARK VINA RESULT:      -7.6      2.330      3.144
REMARK  Name = 
REMARK  4 active torsions:
REMARK  status: ('A' for Active; 'I' for Inactive)
REMARK    1  A    between atoms: C_2  and  C_8
REMARK    2  A    between atoms: C_8  and  O_9
REMARK    3  A    between atoms: C_18  and  C_20
REMARK    4  A    between atoms: C_27  and  C_28
REMARK                            x       y       z     vdW  Elec       q    Type
REMARK                         _______ _______ _______ _____ _____    ______ ____
ROOT
ATOM      1  C   UNL     1       5.219  -4.051  25.880  0.00  0.00    +0.190 C 
ATOM      2  O   UNL     1       6.550  -3.643  26.293  0.00  0.00    -0.344 OA
ATOM      3  C   UNL     1       7.584  -3.730  25.299  0.00  0.00    +0.125 C 
ATOM      4  C   UNL     1       8.909  -2.958  25.551  0.00  0.00    +0.032 C 
ATOM      5  C   UNL     1       8.963  -1.519  25.008  0.00  0.00    +0.010 C 
ATOM      6  C   UNL     1       9.241  -1.288  23.470  0.00  0.00    +0.009 C 
ATOM      7  C   UNL     1      10.520  -1.909  22.933  0.00  0.00    +0.012 C 
ATOM      8  C   UNL     1       9.204   0.180  23.297  0.00  0.00    -0.024 C 
ATOM      9  C   UNL     1      10.248   0.998  23.507  0.00  0.00    -0.004 C 
ATOM     10  C   UNL     1       9.895   2.194  24.205  0.00  0.00    -0.005 C 
ATOM     11  C   UNL     1       9.871   3.377  23.641  0.00  0.00    -0.027 C 
ATOM     12  C   UNL     1       8.877   4.338  24.205  0.00  0.00    +0.031 C 
ATOM     13  C   UNL     1       7.681   4.371  23.228  0.00  0.00    +0.035 C 
ATOM     14  C   UNL     1       6.463   3.629  23.927  0.00  0.00    -0.066 C 
ATOM     15  C   UNL     1       5.806   4.805  24.666  0.00  0.00    +0.039 C 
ATOM     16  C   UNL     1       6.370   2.203  23.838  0.00  0.00    +0.090 C 
ATOM     17  C   UNL     1       5.713   0.725  24.516  0.00  0.00    +0.332 C 
ATOM     18  O   UNL     1       5.038   0.791  25.541  0.00  0.00    -0.246 OA
ATOM     19  O   UNL     1       6.081  -0.568  23.917  0.00  0.00    -0.458 OA
ATOM     20  C   UNL     1       5.874  -2.285  23.929  0.00  0.00    +0.184 C 
ATOM     21  C   UNL     1       7.066  -3.332  23.925  0.00  0.00    +0.076 C 
ATOM     22  C   UNL     1       4.774  -3.257  24.568  0.00  0.00    +0.111 C 
ENDROOT
BRANCH   1  23
ATOM     23  C   UNL     1       4.841  -5.669  26.062  0.00  0.00    +0.143 C 
ATOM     24  N   UNL     1       5.774  -6.374  26.960  0.00  0.00    -0.298 N 
ATOM     25  H   UNL     1       6.735  -6.562  26.695  0.00  0.00    +0.150 HD
ATOM     26  C   UNL     1       5.294  -6.943  28.104  0.00  0.00    +0.272 C 
ATOM     27  O   UNL     1       5.951  -7.558  28.924  0.00  0.00    -0.263 OA
ATOM     28  S   UNL     1       3.571  -6.632  28.202  0.00  0.00    -0.066 S 
ATOM     29  C   UNL     1       3.475  -6.283  26.419  0.00  0.00    +0.106 C 
ENDBRANCH   1  23
BRANCH   1  30
ATOM     30  O   UNL     1       4.345  -3.519  26.908  0.00  0.00    -0.363 OA
ATOM     31  H   UNL     1       3.504  -3.313  26.469  0.00  0.00    +0.213 HD
ENDBRANCH   1  30
TORSDOF 2
ENDMDL
MODEL 3
REMARK VINA RESULT:      -7.6      2.156      3.594
REMARK  Name = 
REMARK  4 active torsions:
REMARK  status: ('A' for Active; 'I' for Inactive)
REMARK    1  A    between atoms: C_2  and  C_8
REMARK    2  A    between atoms: C_8  and  O_9
REMARK    3  A    between atoms: C_18  and  C_20
REMARK    4  A    between atoms: C_27  and  C_28
REMARK                            x       y       z     vdW  Elec       q    Type
REMARK                         _______ _______ _______ _____ _____    ______ ____
ROOT
ATOM      1  C   UNL     1       7.969  -2.547  23.311  0.00  0.00    +0.190 C 
ATOM      2  O   UNL     1       6.964  -1.501  23.253  0.00  0.00    -0.344 OA
ATOM      3  C   UNL     1       6.539  -0.950  24.509  0.00  0.00    +0.125 C 
ATOM      4  C   UNL     1       5.780   0.406  24.495  0.00  0.00    +0.032 C 
ATOM      5  C   UNL     1       6.655   1.668  24.611  0.00  0.00    +0.010 C 
ATOM      6  C   UNL     1       7.193   2.101  26.032  0.00  0.00    +0.009 C 
ATOM      7  C   UNL     1       6.132   2.315  27.100  0.00  0.00    +0.012 C 
ATOM      8  C   UNL     1       7.997   3.315  25.776  0.00  0.00    -0.024 C 
ATOM      9  C   UNL     1       7.495   4.558  25.697  0.00  0.00    -0.004 C 
ATOM     10  C   UNL     1       8.048   5.322  24.624  0.00  0.00    -0.005 C 
ATOM     11  C   UNL     1       8.868   6.328  24.805  0.00  0.00    -0.027 C 
ATOM     12  C   UNL     1       9.861   6.553  23.712  0.00  0.00    +0.031 C 
ATOM     13  C   UNL     1      11.208   5.981  24.205  0.00  0.00    +0.035 C 
ATOM     14  C   UNL     1      11.501   4.655  23.383  0.00  0.00    -0.066 C 
ATOM     15  C   UNL     1      12.263   5.233  22.180  0.00  0.00    +0.039 C 
ATOM     16  C   UNL     1      10.927   3.418  23.824  0.00  0.00    +0.090 C 
ATOM     17  C   UNL     1      10.443   1.786  23.401  0.00  0.00    +0.332 C 
ATOM     18  O   UNL     1      10.568   1.412  22.237  0.00  0.00    -0.246 OA
ATOM     19  O   UNL     1       9.791   0.943  24.416  0.00  0.00    -0.458 OA
ATOM     20  C   UNL     1       9.124  -0.603  24.808  0.00  0.00    +0.184 C 
ATOM     21  C   UNL     1       7.704  -0.823  25.480  0.00  0.00    +0.076 C 
ATOM     22  C   UNL     1       9.241  -2.054  24.140  0.00  0.00    +0.111 C 
ENDROOT
BRANCH   1  23
ATOM     23  C   UNL     1       7.411  -4.115  23.466  0.00  0.00    +0.143 C 
ATOM     24  N   UNL     1       8.005  -4.821  24.616  0.00  0.00    -0.298 N 
ATOM     25  H   UNL     1       8.982  -5.098  24.629  0.00  0.00    +0.150 HD
ATOM     26  C   UNL     1       7.191  -5.267  25.616  0.00  0.00    +0.272 C 
ATOM     27  O   UNL     1       7.550  -5.868  26.612  0.00  0.00    -0.263 OA
ATOM     28  S   UNL     1       5.539  -4.824  25.231  0.00  0.00    -0.066 S 
ATOM     29  C   UNL     1       5.949  -4.599  23.472  0.00  0.00    +0.106 C 
ENDBRANCH   1  23
BRANCH   1  30
ATOM     30  O   UNL     1       8.470  -2.642  21.952  0.00  0.00    -0.363 OA
ATOM     31  H   UNL     1       9.371  -2.283  21.970  0.00  0.00    +0.213 HD
ENDBRANCH   1  30
TORSDOF 2
ENDMDL
MODEL 4
REMARK VINA RESULT:      -7.4      3.807      9.048
REMARK  Name = 
REMARK  4 active torsions:
REMARK  status: ('A' for Active; 'I' for Inactive)
REMARK    1  A    between atoms: C_2  and  C_8
REMARK    2  A    between atoms: C_8  and  O_9
REMARK    3  A    between atoms: C_18  and  C_20
REMARK    4  A    between atoms: C_27  and  C_28
REMARK                            x       y       z     vdW  Elec       q    Type
REMARK                         _______ _______ _______ _____ _____    ______ ____
ROOT
ATOM      1  C   UNL     1       8.477  -2.089  23.902  0.00  0.00    +0.190 C 
ATOM      2  O   UNL     1       8.531  -3.317  24.676  0.00  0.00    -0.344 OA
ATOM      3  C   UNL     1       8.011  -3.256  26.013  0.00  0.00    +0.125 C 
ATOM      4  C   UNL     1       7.686  -4.593  26.735  0.00  0.00    +0.032 C 
ATOM      5  C   UNL     1       6.252  -5.124  26.553  0.00  0.00    +0.010 C 
ATOM      6  C   UNL     1       5.085  -4.495  27.414  0.00  0.00    +0.009 C 
ATOM      7  C   UNL     1       5.283  -4.537  28.920  0.00  0.00    +0.012 C 
ATOM      8  C   UNL     1       3.868  -5.211  26.978  0.00  0.00    -0.024 C 
ATOM      9  C   UNL     1       3.461  -6.392  27.472  0.00  0.00    -0.004 C 
ATOM     10  C   UNL     1       3.000  -7.295  26.466  0.00  0.00    -0.005 C 
ATOM     11  C   UNL     1       1.740  -7.622  26.314  0.00  0.00    -0.027 C 
ATOM     12  C   UNL     1       1.323  -7.950  24.918  0.00  0.00    +0.031 C 
ATOM     13  C   UNL     1       0.576  -6.714  24.371  0.00  0.00    +0.035 C 
ATOM     14  C   UNL     1       1.512  -6.022  23.291  0.00  0.00    -0.066 C 
ATOM     15  C   UNL     1       1.072  -6.767  22.021  0.00  0.00    +0.039 C 
ATOM     16  C   UNL     1       2.518  -5.099  23.726  0.00  0.00    +0.090 C 
ATOM     17  C   UNL     1       4.029  -4.289  23.360  0.00  0.00    +0.332 C 
ATOM     18  O   UNL     1       4.609  -4.558  22.311  0.00  0.00    -0.246 OA
ATOM     19  O   UNL     1       4.629  -3.397  24.366  0.00  0.00    -0.458 OA
ATOM     20  C   UNL     1       5.911  -2.305  24.756  0.00  0.00    +0.184 C 
ATOM     21  C   UNL     1       6.774  -2.373  26.086  0.00  0.00    +0.076 C 
ATOM     22  C   UNL     1       6.988  -1.511  23.876  0.00  0.00    +0.111 C 
ENDROOT
BRANCH   1  23
ATOM     23  C   UNL     1       9.786  -1.059  24.041  0.00  0.00    +0.143 C 
ATOM     24  N   UNL     1      10.058  -0.314  22.798  0.00  0.00    -0.298 N 
ATOM     25  H   UNL     1      10.422  -0.770  21.967  0.00  0.00    +0.150 HD
ATOM     26  C   UNL     1       9.985   1.049  22.809  0.00  0.00    +0.272 C 
ATOM     27  O   UNL     1      10.193   1.782  21.860  0.00  0.00    -0.263 OA
ATOM     28  S   UNL     1       9.532   1.570  24.421  0.00  0.00    -0.066 S 
ATOM     29  C   UNL     1      10.053  -0.017  25.143  0.00  0.00    +0.106 C 
ENDBRANCH   1  23
BRANCH   1  30
ATOM     30  O   UNL     1       8.696  -2.516  22.533  0.00  0.00    -0.363 OA
ATOM     31  H   UNL     1       9.099  -3.397  22.584  0.00  0.00    +0.213 HD
ENDBRANCH   1  30
TORSDOF 2
ENDMDL
MODEL 5
REMARK VINA RESULT:      -7.4      3.866      8.068
REMARK  Name = 
REMARK  4 active torsions:
REMARK  status: ('A' for Active; 'I' for Inactive)
REMARK    1  A    between atoms: C_2  and  C_8
REMARK    2  A    between atoms: C_8  and  O_9
REMARK    3  A    between atoms: C_18  and  C_20
REMARK    4  A    between atoms: C_27  and  C_28
REMARK                            x       y       z     vdW  Elec       q    Type
REMARK                         _______ _______ _______ _____ _____    ______ ____
ROOT
ATOM      1  C   UNL     1       7.546   4.478  24.341  0.00  0.00    +0.190 C 
ATOM      2  O   UNL     1       7.533   3.744  23.088  0.00  0.00    -0.344 OA
ATOM      3  C   UNL     1       8.651   2.879  22.840  0.00  0.00    +0.125 C 
ATOM      4  C   UNL     1       8.510   1.798  21.732  0.00  0.00    +0.032 C 
ATOM      5  C   UNL     1       7.973   0.430  22.192  0.00  0.00    +0.010 C 
ATOM      6  C   UNL     1       8.955  -0.579  22.908  0.00  0.00    +0.009 C 
ATOM      7  C   UNL     1      10.208  -0.943  22.127  0.00  0.00    +0.012 C 
ATOM      8  C   UNL     1       8.119  -1.757  23.225  0.00  0.00    -0.024 C 
ATOM      9  C   UNL     1       7.866  -2.763  22.372  0.00  0.00    -0.004 C 
ATOM     10  C   UNL     1       6.503  -3.189  22.392  0.00  0.00    -0.005 C 
ATOM     11  C   UNL     1       6.113  -4.335  22.894  0.00  0.00    -0.027 C 
ATOM     12  C   UNL     1       4.737  -4.349  23.475  0.00  0.00    +0.031 C 
ATOM     13  C   UNL     1       4.898  -4.272  25.009  0.00  0.00    +0.035 C 
ATOM     14  C   UNL     1       4.431  -2.827  25.473  0.00  0.00    -0.066 C 
ATOM     15  C   UNL     1       2.934  -3.079  25.709  0.00  0.00    +0.039 C 
ATOM     16  C   UNL     1       5.364  -1.741  25.420  0.00  0.00    +0.090 C 
ATOM     17  C   UNL     1       5.599  -0.004  25.356  0.00  0.00    +0.332 C 
ATOM     18  O   UNL     1       4.613   0.727  25.297  0.00  0.00    -0.246 OA
ATOM     19  O   UNL     1       6.965   0.534  25.254  0.00  0.00    -0.458 OA
ATOM     20  C   UNL     1       7.971   1.939  25.195  0.00  0.00    +0.184 C 
ATOM     21  C   UNL     1       9.107   2.184  24.114  0.00  0.00    +0.076 C 
ATOM     22  C   UNL     1       7.737   3.477  25.571  0.00  0.00    +0.111 C 
ENDROOT
BRANCH   1  23
ATOM     23  C   UNL     1       8.309   5.965  24.331  0.00  0.00    +0.143 C 
ATOM     24  N   UNL     1       8.757   6.385  25.671  0.00  0.00    -0.298 N 
ATOM     25  H   UNL     1       8.101   6.654  26.397  0.00  0.00    +0.150 HD
ATOM     26  C   UNL     1      10.089   6.585  25.896  0.00  0.00    +0.272 C 
ATOM     27  O   UNL     1      10.589   6.938  26.947  0.00  0.00    -0.263 OA
ATOM     28  S   UNL     1      10.962   6.239  24.414  0.00  0.00    -0.066 S 
ATOM     29  C   UNL     1       9.455   6.430  23.413  0.00  0.00    +0.106 C 
ENDBRANCH   1  23
BRANCH   1  30
ATOM     30  O   UNL     1       6.183   4.948  24.498  0.00  0.00    -0.363 OA
ATOM     31  H   UNL     1       6.246   5.861  24.820  0.00  0.00    +0.213 HD
ENDBRANCH   1  30
TORSDOF 2
ENDMDL
MODEL 6
REMARK VINA RESULT:      -7.4      3.826      9.087
REMARK  Name = 
REMARK  4 active torsions:
REMARK  status: ('A' for Active; 'I' for Inactive)
REMARK    1  A    between atoms: C_2  and  C_8
REMARK    2  A    between atoms: C_8  and  O_9
REMARK    3  A    between atoms: C_18  and  C_20
REMARK    4  A    between atoms: C_27  and  C_28
REMARK                            x       y       z     vdW  Elec       q    Type
REMARK                         _______ _______ _______ _____ _____    ______ ____
ROOT
ATOM      1  C   UNL     1       8.731  -1.367  24.710  0.00  0.00    +0.190 C 
ATOM      2  O   UNL     1       7.604  -1.438  23.798  0.00  0.00    -0.344 OA
ATOM      3  C   UNL     1       7.572  -2.562  22.905  0.00  0.00    +0.125 C 
ATOM      4  C   UNL     1       6.230  -2.898  22.197  0.00  0.00    +0.032 C 
ATOM      5  C   UNL     1       5.306  -3.880  22.939  0.00  0.00    +0.010 C 
ATOM      6  C   UNL     1       5.613  -5.428  22.866  0.00  0.00    +0.009 C 
ATOM      7  C   UNL     1       5.693  -6.017  21.467  0.00  0.00    +0.012 C 
ATOM      8  C   UNL     1       4.562  -6.060  23.691  0.00  0.00    -0.024 C 
ATOM      9  C   UNL     1       3.337  -6.383  23.247  0.00  0.00    -0.004 C 
ATOM     10  C   UNL     1       2.297  -6.055  24.170  0.00  0.00    -0.005 C 
ATOM     11  C   UNL     1       1.619  -6.954  24.841  0.00  0.00    -0.027 C 
ATOM     12  C   UNL     1       1.126  -6.520  26.182  0.00  0.00    +0.031 C 
ATOM     13  C   UNL     1       2.074  -7.142  27.231  0.00  0.00    +0.035 C 
ATOM     14  C   UNL     1       2.957  -5.972  27.841  0.00  0.00    -0.066 C 
ATOM     15  C   UNL     1       2.064  -5.527  29.009  0.00  0.00    +0.039 C 
ATOM     16  C   UNL     1       4.145  -5.562  27.154  0.00  0.00    +0.090 C 
ATOM     17  C   UNL     1       5.336  -4.300  26.896  0.00  0.00    +0.332 C 
ATOM     18  O   UNL     1       5.198  -3.226  27.475  0.00  0.00    -0.246 OA
ATOM     19  O   UNL     1       6.404  -4.511  25.905  0.00  0.00    -0.458 OA
ATOM     20  C   UNL     1       7.832  -3.887  25.155  0.00  0.00    +0.184 C 
ATOM     21  C   UNL     1       8.069  -3.827  23.588  0.00  0.00    +0.076 C 
ATOM     22  C   UNL     1       8.860  -2.723  25.544  0.00  0.00    +0.111 C 
ENDROOT
BRANCH   1  23
ATOM     23  C   UNL     1      10.097  -0.579  24.154  0.00  0.00    +0.143 C 
ATOM     24  N   UNL     1       9.937  -0.062  22.783  0.00  0.00    -0.298 N 
ATOM     25  H   UNL     1       9.886  -0.679  21.979  0.00  0.00    +0.150 HD
ATOM     26  C   UNL     1      10.032   1.282  22.563  0.00  0.00    +0.272 C 
ATOM     27  O   UNL     1       9.929   1.837  21.485  0.00  0.00    -0.263 OA
ATOM     28  S   UNL     1      10.320   2.079  24.099  0.00  0.00    -0.066 S 
ATOM     29  C   UNL     1      10.897   0.531  24.860  0.00  0.00    +0.106 C 
ENDBRANCH   1  23
BRANCH   1  30
ATOM     30  O   UNL     1       8.326  -0.395  25.709  0.00  0.00    -0.363 OA
ATOM     31  H   UNL     1       7.530   0.036  25.360  0.00  0.00    +0.213 HD
ENDBRANCH   1  30
TORSDOF 2
ENDMDL
MODEL 7
REMARK VINA RESULT:      -7.3      1.282      1.446
REMARK  Name = 
REMARK  4 active torsions:
REMARK  status: ('A' for Active; 'I' for Inactive)
REMARK    1  A    between atoms: C_2  and  C_8
REMARK    2  A    between atoms: C_8  and  O_9
REMARK    3  A    between atoms: C_18  and  C_20
REMARK    4  A    between atoms: C_27  and  C_28
REMARK                            x       y       z     vdW  Elec       q    Type
REMARK                         _______ _______ _______ _____ _____    ______ ____
ROOT
ATOM      1  C   UNL     1       6.979  -2.176  24.410  0.00  0.00    +0.190 C 
ATOM      2  O   UNL     1       7.779  -1.288  25.236  0.00  0.00    -0.344 OA
ATOM      3  C   UNL     1       8.947  -0.722  24.623  0.00  0.00    +0.125 C 
ATOM      4  C   UNL     1       9.609   0.509  25.303  0.00  0.00    +0.032 C 
ATOM      5  C   UNL     1       9.101   1.886  24.839  0.00  0.00    +0.010 C 
ATOM      6  C   UNL     1       9.634   2.482  23.476  0.00  0.00    +0.009 C 
ATOM      7  C   UNL     1      11.144   2.612  23.361  0.00  0.00    +0.012 C 
ATOM      8  C   UNL     1       8.938   3.779  23.335  0.00  0.00    -0.024 C 
ATOM      9  C   UNL     1       9.354   4.930  23.886  0.00  0.00    -0.004 C 
ATOM     10  C   UNL     1       8.293   5.694  24.462  0.00  0.00    -0.005 C 
ATOM     11  C   UNL     1       7.851   6.816  23.948  0.00  0.00    -0.027 C 
ATOM     12  C   UNL     1       6.406   7.107  24.187  0.00  0.00    +0.031 C 
ATOM     13  C   UNL     1       5.657   6.765  22.880  0.00  0.00    +0.035 C 
ATOM     14  C   UNL     1       4.816   5.443  23.136  0.00  0.00    -0.066 C 
ATOM     15  C   UNL     1       3.500   6.045  23.654  0.00  0.00    +0.039 C 
ATOM     16  C   UNL     1       5.454   4.169  22.989  0.00  0.00    +0.090 C 
ATOM     17  C   UNL     1       5.441   2.461  23.388  0.00  0.00    +0.332 C 
ATOM     18  O   UNL     1       4.573   2.034  24.144  0.00  0.00    -0.246 OA
ATOM     19  O   UNL     1       6.536   1.602  22.907  0.00  0.00    -0.458 OA
ATOM     20  C   UNL     1       7.192   0.005  22.812  0.00  0.00    +0.184 C 
ATOM     21  C   UNL     1       8.693  -0.370  23.165  0.00  0.00    +0.076 C 
ATOM     22  C   UNL     1       6.576  -1.454  23.044  0.00  0.00    +0.111 C 
ENDROOT
BRANCH   1  23
ATOM     23  C   UNL     1       7.400  -3.793  24.425  0.00  0.00    +0.143 C 
ATOM     24  N   UNL     1       7.915  -4.237  25.733  0.00  0.00    -0.298 N 
ATOM     25  H   UNL     1       8.816  -3.932  26.086  0.00  0.00    +0.150 HD
ATOM     26  C   UNL     1       7.248  -5.213  26.415  0.00  0.00    +0.272 C 
ATOM     27  O   UNL     1       7.568  -5.675  27.494  0.00  0.00    -0.263 OA
ATOM     28  S   UNL     1       5.845  -5.690  25.476  0.00  0.00    -0.066 S 
ATOM     29  C   UNL     1       6.555  -4.991  23.953  0.00  0.00    +0.106 C 
ENDBRANCH   1  23
BRANCH   1  30
ATOM     30  O   UNL     1       5.717  -2.286  25.117  0.00  0.00    -0.363 OA
ATOM     31  H   UNL     1       5.351  -3.154  24.886  0.00  0.00    +0.213 HD
ENDBRANCH   1  30
TORSDOF 2
ENDMDL
MODEL 8
REMARK VINA RESULT:      -7.1      3.235      8.432
REMARK  Name = 
REMARK  4 active torsions:
REMARK  status: ('A' for Active; 'I' for Inactive)
REMARK    1  A    between atoms: C_2  and  C_8
REMARK    2  A    between atoms: C_8  and  O_9
REMARK    3  A    between atoms: C_18  and  C_20
REMARK    4  A    between atoms: C_27  and  C_28
REMARK                            x       y       z     vdW  Elec       q    Type
REMARK                         _______ _______ _______ _____ _____    ______ ____
ROOT
ATOM      1  C   UNL     1       7.368   0.711  23.279  0.00  0.00    +0.190 C 
ATOM      2  O   UNL     1       7.377  -0.671  22.831  0.00  0.00    -0.344 OA
ATOM      3  C   UNL     1       8.391  -1.519  23.391  0.00  0.00    +0.125 C 
ATOM      4  C   UNL     1       8.215  -3.058  23.259  0.00  0.00    +0.032 C 
ATOM      5  C   UNL     1       7.464  -3.750  24.411  0.00  0.00    +0.010 C 
ATOM      6  C   UNL     1       8.235  -4.057  25.755  0.00  0.00    +0.009 C 
ATOM      7  C   UNL     1       9.497  -4.892  25.613  0.00  0.00    +0.012 C 
ATOM      8  C   UNL     1       7.227  -4.692  26.631  0.00  0.00    -0.024 C 
ATOM      9  C   UNL     1       6.926  -6.001  26.621  0.00  0.00    -0.004 C 
ATOM     10  C   UNL     1       5.523  -6.257  26.701  0.00  0.00    -0.005 C 
ATOM     11  C   UNL     1       4.943  -6.761  27.763  0.00  0.00    -0.027 C 
ATOM     12  C   UNL     1       3.529  -6.336  27.986  0.00  0.00    +0.031 C 
ATOM     13  C   UNL     1       3.553  -5.260  29.094  0.00  0.00    +0.035 C 
ATOM     14  C   UNL     1       3.237  -3.859  28.417  0.00  0.00    -0.066 C 
ATOM     15  C   UNL     1       1.705  -3.837  28.522  0.00  0.00    +0.039 C 
ATOM     16  C   UNL     1       4.304  -3.120  27.811  0.00  0.00    +0.090 C 
ATOM     17  C   UNL     1       4.768  -1.878  26.662  0.00  0.00    +0.332 C 
ATOM     18  O   UNL     1       3.896  -1.339  25.985  0.00  0.00    -0.246 OA
ATOM     19  O   UNL     1       6.197  -1.594  26.448  0.00  0.00    -0.458 OA
ATOM     20  C   UNL     1       7.378  -0.623  25.640  0.00  0.00    +0.184 C 
ATOM     21  C   UNL     1       8.632  -1.201  24.859  0.00  0.00    +0.076 C 
ATOM     22  C   UNL     1       7.311   0.781  24.873  0.00  0.00    +0.111 C 
ENDROOT
BRANCH   1  23
ATOM     23  C   UNL     1       8.316   1.784  22.415  0.00  0.00    +0.143 C 
ATOM     24  N   UNL     1       8.137   3.180  22.851  0.00  0.00    -0.298 N 
ATOM     25  H   UNL     1       7.279   3.693  22.673  0.00  0.00    +0.150 HD
ATOM     26  C   UNL     1       9.206   3.863  23.355  0.00  0.00    +0.272 C 
ATOM     27  O   UNL     1       9.198   5.017  23.742  0.00  0.00    -0.263 OA
ATOM     28  S   UNL     1      10.597   2.794  23.360  0.00  0.00    -0.066 S 
ATOM     29  C   UNL     1       9.827   1.692  22.135  0.00  0.00    +0.106 C 
ENDBRANCH   1  23
BRANCH   1  30
ATOM     30  O   UNL     1       6.069   1.213  22.873  0.00  0.00    -0.363 OA
ATOM     31  H   UNL     1       6.090   1.269  21.905  0.00  0.00    +0.213 HD
ENDBRANCH   1  30
TORSDOF 2
ENDMDL
MODEL 9
REMARK VINA RESULT:      -7.0      3.616      8.460
REMARK  Name = 
REMARK  4 active torsions:
REMARK  status: ('A' for Active; 'I' for Inactive)
REMARK    1  A    between atoms: C_2  and  C_8
REMARK    2  A    between atoms: C_8  and  O_9
REMARK    3  A    between atoms: C_18  and  C_20
REMARK    4  A    between atoms: C_27  and  C_28
REMARK                            x       y       z     vdW  Elec       q    Type
REMARK                         _______ _______ _______ _____ _____    ______ ____
ROOT
ATOM      1  C   UNL     1       8.891   2.647  23.671  0.00  0.00    +0.190 C 
ATOM      2  O   UNL     1       8.811   1.943  24.938  0.00  0.00    -0.344 OA
ATOM      3  C   UNL     1       7.531   1.936  25.589  0.00  0.00    +0.125 C 
ATOM      4  C   UNL     1       7.288   0.896  26.718  0.00  0.00    +0.032 C 
ATOM      5  C   UNL     1       6.701  -0.456  26.272  0.00  0.00    +0.010 C 
ATOM      6  C   UNL     1       5.152  -0.562  25.982  0.00  0.00    +0.009 C 
ATOM      7  C   UNL     1       4.239  -0.148  27.124  0.00  0.00    +0.012 C 
ATOM      8  C   UNL     1       4.943  -1.965  25.565  0.00  0.00    -0.024 C 
ATOM      9  C   UNL     1       4.754  -2.991  26.411  0.00  0.00    -0.004 C 
ATOM     10  C   UNL     1       5.481  -4.165  26.045  0.00  0.00    -0.005 C 
ATOM     11  C   UNL     1       4.911  -5.249  25.578  0.00  0.00    -0.027 C 
ATOM     12  C   UNL     1       5.739  -6.053  24.631  0.00  0.00    +0.031 C 
ATOM     13  C   UNL     1       5.224  -5.741  23.208  0.00  0.00    +0.035 C 
ATOM     14  C   UNL     1       6.323  -4.858  22.478  0.00  0.00    -0.066 C 
ATOM     15  C   UNL     1       7.193  -5.958  21.850  0.00  0.00    +0.039 C 
ATOM     16  C   UNL     1       6.329  -3.440  22.681  0.00  0.00    +0.090 C 
ATOM     17  C   UNL     1       7.249  -1.948  22.624  0.00  0.00    +0.332 C 
ATOM     18  O   UNL     1       8.438  -1.995  22.318  0.00  0.00    -0.246 OA
ATOM     19  O   UNL     1       6.613  -0.693  23.057  0.00  0.00    -0.458 OA
ATOM     20  C   UNL     1       6.763   1.018  23.253  0.00  0.00    +0.184 C 
ATOM     21  C   UNL     1       6.399   1.805  24.581  0.00  0.00    +0.076 C 
ATOM     22  C   UNL     1       7.776   2.109  22.663  0.00  0.00    +0.111 C 
ENDROOT
BRANCH   1  23
ATOM     23  C   UNL     1       9.255   4.277  23.742  0.00  0.00    +0.143 C 
ATOM     24  N   UNL     1       8.693   5.036  22.610  0.00  0.00    -0.298 N 
ATOM     25  H   UNL     1       9.047   4.931  21.664  0.00  0.00    +0.150 HD
ATOM     26  C   UNL     1       7.792   6.031  22.858  0.00  0.00    +0.272 C 
ATOM     27  O   UNL     1       7.260   6.737  22.021  0.00  0.00    -0.263 OA
ATOM     28  S   UNL     1       7.522   6.120  24.589  0.00  0.00    -0.066 S 
ATOM     29  C   UNL     1       9.072   5.233  24.935  0.00  0.00    +0.106 C 
ENDBRANCH   1  23
BRANCH   1  30
ATOM     30  O   UNL     1      10.132   2.185  23.079  0.00  0.00    -0.363 OA
ATOM     31  H   UNL     1      10.807   2.840  23.317  0.00  0.00    +0.213 HD
ENDBRANCH   1  30
TORSDOF 2
ENDMDL
