MODEL 1
REMARK VINA RESULT:      -8.2      0.000      0.000
REMARK  Name = 
REMARK  8 active torsions:
REMARK  status: ('A' for Active; 'I' for Inactive)
REMARK    1  A    between atoms: C_1  and  N_2
REMARK    2  A    between atoms: N_5  and  C_6
REMARK    3  A    between atoms: C_6  and  C_7
REMARK    4  A    between atoms: C_10  and  C_13
REMARK    5  A    between atoms: N_15  and  C_16
REMARK    6  A    between atoms: C_18  and  N_19
REMARK    7  A    between atoms: C_24  and  C_26
REMARK    8  A    between atoms: C_32  and  C_33
REMARK                            x       y       z     vdW  Elec       q    Type
REMARK                         _______ _______ _______ _____ _____    ______ ____
ROOT
ATOM      1  C   UNL     1       5.616  -5.188  28.146  0.00  0.00    +0.035 A 
ATOM      2  C   UNL     1       5.474  -5.280  29.524  0.00  0.00    +0.024 A 
ATOM      3  C   UNL     1       4.507  -6.127  30.060  0.00  0.00    +0.007 A 
ATOM      4  C   UNL     1       3.616  -6.833  29.226  0.00  0.00    -0.029 A 
ATOM      5  C   UNL     1       2.534  -7.623  29.911  0.00  0.00    +0.045 C 
ATOM      6  C   UNL     1       3.764  -6.747  27.826  0.00  0.00    +0.038 A 
ATOM      7  C   UNL     1       4.830  -5.983  27.321  0.00  0.00    +0.047 A 
ENDROOT
BRANCH   6   8
ATOM      8  N   UNL     1       2.818  -7.287  26.937  0.00  0.00    -0.283 N 
ATOM      9  H   UNL     1       1.947  -7.633  27.298  0.00  0.00    +0.155 HD
ATOM     10  C   UNL     1       2.722  -7.117  25.553  0.00  0.00    +0.220 A 
ATOM     11  N   UNL     1       3.602  -6.341  24.903  0.00  0.00    -0.214 NA
ATOM     12  C   UNL     1       3.475  -6.142  23.577  0.00  0.00    +0.077 A 
ATOM     13  C   UNL     1       2.449  -6.735  22.876  0.00  0.00    +0.048 A 
ATOM     14  C   UNL     1       1.592  -7.523  23.610  0.00  0.00    +0.116 A 
ATOM     15  N   UNL     1       1.698  -7.719  24.937  0.00  0.00    -0.223 NA
BRANCH  12  16
ATOM     16  C   UNL     1       4.501  -5.262  22.985  0.00  0.00    +0.019 A 
ATOM     17  C   UNL     1       4.707  -3.950  23.452  0.00  0.00    +0.013 A 
ATOM     18  C   UNL     1       5.688  -3.131  22.895  0.00  0.00    +0.020 A 
ATOM     19  C   UNL     1       6.459  -3.654  21.878  0.00  0.00    +0.111 A 
ATOM     20  N   UNL     1       6.320  -4.902  21.394  0.00  0.00    -0.263 NA
ATOM     21  C   UNL     1       5.354  -5.665  21.963  0.00  0.00    +0.120 A 
ENDBRANCH  12  16
ENDBRANCH   6   8
BRANCH   1  23
ATOM     22  C   UNL     1       7.477  -4.683  26.662  0.00  0.00    +0.248 C 
ATOM     23  N   UNL     1       6.481  -4.266  27.528  0.00  0.00    -0.281 N 
ATOM     24  H   UNL     1       6.672  -3.419  28.046  0.00  0.00    +0.155 HD
ATOM     25  O   UNL     1       7.712  -5.854  26.374  0.00  0.00    -0.270 OA
BRANCH  22  29
ATOM     26  C   UNL     1       9.500  -1.584  24.548  0.00  0.00    -0.033 A 
ATOM     27  C   UNL     1       8.922  -1.288  25.790  0.00  0.00    +0.005 A 
ATOM     28  C   UNL     1       8.330  -2.300  26.548  0.00  0.00    +0.013 A 
ATOM     29  C   UNL     1       8.333  -3.617  26.070  0.00  0.00    +0.037 A 
ATOM     30  C   UNL     1       9.035  -3.929  24.898  0.00  0.00    +0.013 A 
ATOM     31  C   UNL     1       9.620  -2.919  24.142  0.00  0.00    +0.005 A 
BRANCH  26  32
ATOM     32  C   UNL     1       9.796  -0.472  23.561  0.00  0.00    +0.119 C 
BRANCH  32  37
ATOM     33  C   UNL     1       6.820   3.012  21.959  0.00  0.00    +0.105 C 
ATOM     34  N   UNL     1       7.937   2.695  22.843  0.00  0.00    -0.303 NA
ATOM     35  C   UNL     1       9.104   2.198  22.087  0.00  0.00    +0.099 C 
ATOM     36  C   UNL     1       9.002   0.732  21.596  0.00  0.00    +0.100 C 
ATOM     37  N   UNL     1       8.653  -0.239  22.650  0.00  0.00    -0.296 NA
ATOM     38  C   UNL     1       7.437   0.247  23.343  0.00  0.00    +0.100 C 
ATOM     39  C   UNL     1       7.534   1.699  23.864  0.00  0.00    +0.099 C 
ENDBRANCH  32  37
ENDBRANCH  26  32
ENDBRANCH  22  29
ENDBRANCH   1  23
TORSDOF 6
ENDMDL
MODEL 2
REMARK VINA RESULT:      -8.2      2.621      5.688
REMARK  Name = 
REMARK  8 active torsions:
REMARK  status: ('A' for Active; 'I' for Inactive)
REMARK    1  A    between atoms: C_1  and  N_2
REMARK    2  A    between atoms: N_5  and  C_6
REMARK    3  A    between atoms: C_6  and  C_7
REMARK    4  A    between atoms: C_10  and  C_13
REMARK    5  A    between atoms: N_15  and  C_16
REMARK    6  A    between atoms: C_18  and  N_19
REMARK    7  A    between atoms: C_24  and  C_26
REMARK    8  A    between atoms: C_32  and  C_33
REMARK                            x       y       z     vdW  Elec       q    Type
REMARK                         _______ _______ _______ _____ _____    ______ ____
ROOT
ATOM      1  C   UNL     1       6.670  -3.117  24.044  0.00  0.00    +0.035 A 
ATOM      2  C   UNL     1       5.878  -3.640  23.031  0.00  0.00    +0.024 A 
ATOM      3  C   UNL     1       5.228  -4.857  23.225  0.00  0.00    +0.007 A 
ATOM      4  C   UNL     1       5.424  -5.605  24.404  0.00  0.00    -0.029 A 
ATOM      5  C   UNL     1       4.772  -6.959  24.459  0.00  0.00    +0.045 C 
ATOM      6  C   UNL     1       6.222  -5.071  25.437  0.00  0.00    +0.038 A 
ATOM      7  C   UNL     1       6.761  -3.785  25.259  0.00  0.00    +0.047 A 
ENDROOT
BRANCH   6   8
ATOM      8  N   UNL     1       6.594  -5.824  26.565  0.00  0.00    -0.283 N 
ATOM      9  H   UNL     1       7.476  -6.306  26.563  0.00  0.00    +0.155 HD
ATOM     10  C   UNL     1       6.098  -5.750  27.869  0.00  0.00    +0.220 A 
ATOM     11  N   UNL     1       5.144  -4.860  28.181  0.00  0.00    -0.214 NA
ATOM     12  C   UNL     1       4.705  -4.760  29.451  0.00  0.00    +0.077 A 
ATOM     13  C   UNL     1       5.223  -5.571  30.436  0.00  0.00    +0.048 A 
ATOM     14  C   UNL     1       6.192  -6.463  30.037  0.00  0.00    +0.116 A 
ATOM     15  N   UNL     1       6.650  -6.564  28.776  0.00  0.00    -0.223 NA
BRANCH  12  16
ATOM     16  C   UNL     1       3.662  -3.738  29.662  0.00  0.00    +0.019 A 
ATOM     17  C   UNL     1       2.371  -4.082  30.105  0.00  0.00    +0.013 A 
ATOM     18  C   UNL     1       1.396  -3.107  30.314  0.00  0.00    +0.020 A 
ATOM     19  C   UNL     1       1.744  -1.792  30.084  0.00  0.00    +0.111 A 
ATOM     20  N   UNL     1       2.961  -1.397  29.670  0.00  0.00    -0.263 NA
ATOM     21  C   UNL     1       3.880  -2.377  29.478  0.00  0.00    +0.120 A 
ENDBRANCH  12  16
ENDBRANCH   6   8
BRANCH   1  23
ATOM     22  C   UNL     1       8.819  -2.042  23.659  0.00  0.00    +0.248 C 
ATOM     23  N   UNL     1       7.455  -1.961  23.878  0.00  0.00    -0.281 N 
ATOM     24  H   UNL     1       7.134  -1.131  24.360  0.00  0.00    +0.155 HD
ATOM     25  O   UNL     1       9.462  -3.089  23.612  0.00  0.00    -0.270 OA
BRANCH  22  29
ATOM     26  C   UNL     1      10.360   1.912  23.260  0.00  0.00    -0.033 A 
ATOM     27  C   UNL     1      10.624   1.199  24.438  0.00  0.00    +0.005 A 
ATOM     28  C   UNL     1      10.211  -0.128  24.564  0.00  0.00    +0.013 A 
ATOM     29  C   UNL     1       9.546  -0.751  23.500  0.00  0.00    +0.037 A 
ATOM     30  C   UNL     1       9.411  -0.081  22.277  0.00  0.00    +0.013 A 
ATOM     31  C   UNL     1       9.819   1.244  22.155  0.00  0.00    +0.005 A 
BRANCH  26  32
ATOM     32  C   UNL     1      10.452   3.425  23.248  0.00  0.00    +0.119 C 
BRANCH  32  37
ATOM     33  C   UNL     1       7.106   6.913  23.695  0.00  0.00    +0.105 C 
ATOM     34  N   UNL     1       8.060   6.267  22.799  0.00  0.00    -0.303 NA
ATOM     35  C   UNL     1       7.738   4.839  22.602  0.00  0.00    +0.099 C 
ATOM     36  C   UNL     1       8.121   3.904  23.777  0.00  0.00    +0.100 C 
ATOM     37  N   UNL     1       9.521   4.033  24.225  0.00  0.00    -0.296 NA
ATOM     38  C   UNL     1       9.794   5.466  24.485  0.00  0.00    +0.100 C 
ATOM     39  C   UNL     1       9.443   6.408  23.311  0.00  0.00    +0.099 C 
ENDBRANCH  32  37
ENDBRANCH  26  32
ENDBRANCH  22  29
ENDBRANCH   1  23
TORSDOF 6
ENDMDL
MODEL 3
REMARK VINA RESULT:      -7.8      3.313     10.485
REMARK  Name = 
REMARK  8 active torsions:
REMARK  status: ('A' for Active; 'I' for Inactive)
REMARK    1  A    between atoms: C_1  and  N_2
REMARK    2  A    between atoms: N_5  and  C_6
REMARK    3  A    between atoms: C_6  and  C_7
REMARK    4  A    between atoms: C_10  and  C_13
REMARK    5  A    between atoms: N_15  and  C_16
REMARK    6  A    between atoms: C_18  and  N_19
REMARK    7  A    between atoms: C_24  and  C_26
REMARK    8  A    between atoms: C_32  and  C_33
REMARK                            x       y       z     vdW  Elec       q    Type
REMARK                         _______ _______ _______ _____ _____    ______ ____
ROOT
ATOM      1  C   UNL     1       9.011   0.098  23.796  0.00  0.00    +0.035 A 
ATOM      2  C   UNL     1      10.328   0.194  24.226  0.00  0.00    +0.024 A 
ATOM      3  C   UNL     1      10.994   1.414  24.133  0.00  0.00    +0.007 A 
ATOM      4  C   UNL     1      10.379   2.534  23.536  0.00  0.00    -0.029 A 
ATOM      5  C   UNL     1      11.229   3.764  23.378  0.00  0.00    +0.045 C 
ATOM      6  C   UNL     1       9.039   2.440  23.107  0.00  0.00    +0.038 A 
ATOM      7  C   UNL     1       8.357   1.232  23.331  0.00  0.00    +0.047 A 
ENDROOT
BRANCH   6   8
ATOM      8  N   UNL     1       8.417   3.456  22.360  0.00  0.00    -0.283 N 
ATOM      9  H   UNL     1       8.067   3.245  21.442  0.00  0.00    +0.155 HD
ATOM     10  C   UNL     1       7.871   4.662  22.808  0.00  0.00    +0.220 A 
ATOM     11  N   UNL     1       7.891   4.971  24.113  0.00  0.00    -0.214 NA
ATOM     12  C   UNL     1       7.320   6.113  24.545  0.00  0.00    +0.077 A 
ATOM     13  C   UNL     1       6.720   6.974  23.654  0.00  0.00    +0.048 A 
ATOM     14  C   UNL     1       6.748   6.593  22.332  0.00  0.00    +0.116 A 
ATOM     15  N   UNL     1       7.301   5.449  21.889  0.00  0.00    -0.223 NA
BRANCH  12  16
ATOM     16  C   UNL     1       7.402   6.329  26.002  0.00  0.00    +0.019 A 
ATOM     17  C   UNL     1       6.255   6.307  26.817  0.00  0.00    +0.013 A 
ATOM     18  C   UNL     1       6.345   6.500  28.195  0.00  0.00    +0.020 A 
ATOM     19  C   UNL     1       7.598   6.701  28.734  0.00  0.00    +0.111 A 
ATOM     20  N   UNL     1       8.733   6.724  28.013  0.00  0.00    -0.263 NA
ATOM     21  C   UNL     1       8.602   6.533  26.676  0.00  0.00    +0.120 A 
ENDBRANCH  12  16
ENDBRANCH   6   8
BRANCH   1  23
ATOM     22  C   UNL     1       8.390  -1.946  22.632  0.00  0.00    +0.248 C 
ATOM     23  N   UNL     1       8.314  -1.123  23.742  0.00  0.00    -0.281 N 
ATOM     24  H   UNL     1       7.450  -1.167  24.266  0.00  0.00    +0.155 HD
ATOM     25  O   UNL     1       9.028  -1.694  21.613  0.00  0.00    -0.270 OA
BRANCH  22  29
ATOM     26  C   UNL     1       5.912  -5.350  23.299  0.00  0.00    -0.033 A 
ATOM     27  C   UNL     1       5.592  -4.476  22.251  0.00  0.00    +0.005 A 
ATOM     28  C   UNL     1       6.432  -3.403  21.950  0.00  0.00    +0.013 A 
ATOM     29  C   UNL     1       7.607  -3.213  22.688  0.00  0.00    +0.037 A 
ATOM     30  C   UNL     1       7.993  -4.168  23.638  0.00  0.00    +0.013 A 
ATOM     31  C   UNL     1       7.152  -5.235  23.940  0.00  0.00    +0.005 A 
BRANCH  26  32
ATOM     32  C   UNL     1       4.853  -6.266  23.879  0.00  0.00    +0.119 C 
BRANCH  32  37
ATOM     33  C   UNL     1       1.246  -5.747  27.084  0.00  0.00    +0.105 C 
ATOM     34  N   UNL     1       1.590  -6.029  25.695  0.00  0.00    -0.303 NA
ATOM     35  C   UNL     1       2.417  -7.247  25.577  0.00  0.00    +0.099 C 
ATOM     36  C   UNL     1       3.906  -7.080  25.972  0.00  0.00    +0.100 C 
ATOM     37  N   UNL     1       4.590  -5.958  25.302  0.00  0.00    -0.296 NA
ATOM     38  C   UNL     1       3.777  -4.736  25.499  0.00  0.00    +0.100 C 
ATOM     39  C   UNL     1       2.295  -4.878  25.082  0.00  0.00    +0.099 C 
ENDBRANCH  32  37
ENDBRANCH  26  32
ENDBRANCH  22  29
ENDBRANCH   1  23
TORSDOF 6
ENDMDL
MODEL 4
REMARK VINA RESULT:      -7.6      2.726      9.033
REMARK  Name = 
REMARK  8 active torsions:
REMARK  status: ('A' for Active; 'I' for Inactive)
REMARK    1  A    between atoms: C_1  and  N_2
REMARK    2  A    between atoms: N_5  and  C_6
REMARK    3  A    between atoms: C_6  and  C_7
REMARK    4  A    between atoms: C_10  and  C_13
REMARK    5  A    between atoms: N_15  and  C_16
REMARK    6  A    between atoms: C_18  and  N_19
REMARK    7  A    between atoms: C_24  and  C_26
REMARK    8  A    between atoms: C_32  and  C_33
REMARK                            x       y       z     vdW  Elec       q    Type
REMARK                         _______ _______ _______ _____ _____    ______ ____
ROOT
ATOM      1  C   UNL     1       8.981   0.586  23.133  0.00  0.00    +0.035 A 
ATOM      2  C   UNL     1       9.869   1.157  22.231  0.00  0.00    +0.024 A 
ATOM      3  C   UNL     1      10.374   2.432  22.477  0.00  0.00    +0.007 A 
ATOM      4  C   UNL     1       9.937   3.185  23.586  0.00  0.00    -0.029 A 
ATOM      5  C   UNL     1      10.453   4.594  23.690  0.00  0.00    +0.045 C 
ATOM      6  C   UNL     1       9.041   2.603  24.507  0.00  0.00    +0.038 A 
ATOM      7  C   UNL     1       8.650   1.269  24.296  0.00  0.00    +0.047 A 
ENDROOT
BRANCH   6   8
ATOM      8  N   UNL     1       8.439   3.344  25.539  0.00  0.00    -0.283 N 
ATOM      9  H   UNL     1       8.603   4.334  25.592  0.00  0.00    +0.155 HD
ATOM     10  C   UNL     1       7.341   3.004  26.335  0.00  0.00    +0.220 A 
ATOM     11  N   UNL     1       6.708   1.836  26.152  0.00  0.00    -0.214 NA
ATOM     12  C   UNL     1       5.622   1.535  26.890  0.00  0.00    +0.077 A 
ATOM     13  C   UNL     1       5.156   2.416  27.839  0.00  0.00    +0.048 A 
ATOM     14  C   UNL     1       5.862   3.589  27.974  0.00  0.00    +0.116 A 
ATOM     15  N   UNL     1       6.940   3.909  27.235  0.00  0.00    -0.223 NA
BRANCH  12  16
ATOM     16  C   UNL     1       5.014   0.225  26.584  0.00  0.00    +0.019 A 
ATOM     17  C   UNL     1       5.681  -0.733  25.799  0.00  0.00    +0.013 A 
ATOM     18  C   UNL     1       5.104  -1.973  25.527  0.00  0.00    +0.020 A 
ATOM     19  C   UNL     1       3.861  -2.233  26.064  0.00  0.00    +0.111 A 
ATOM     20  N   UNL     1       3.175  -1.365  26.830  0.00  0.00    -0.263 NA
ATOM     21  C   UNL     1       3.772  -0.171  27.070  0.00  0.00    +0.120 A 
ENDBRANCH  12  16
ENDBRANCH   6   8
BRANCH   1  23
ATOM     22  C   UNL     1       8.812  -1.823  23.433  0.00  0.00    +0.248 C 
ATOM     23  N   UNL     1       8.335  -0.641  22.893  0.00  0.00    -0.281 N 
ATOM     24  H   UNL     1       7.848  -0.723  22.011  0.00  0.00    +0.155 HD
ATOM     25  O   UNL     1       9.820  -1.921  24.128  0.00  0.00    -0.270 OA
BRANCH  22  29
ATOM     26  C   UNL     1       6.271  -5.215  22.972  0.00  0.00    -0.033 A 
ATOM     27  C   UNL     1       6.193  -4.178  22.031  0.00  0.00    +0.005 A 
ATOM     28  C   UNL     1       7.071  -3.096  22.102  0.00  0.00    +0.013 A 
ATOM     29  C   UNL     1       8.046  -3.059  23.108  0.00  0.00    +0.037 A 
ATOM     30  C   UNL     1       8.211  -4.162  23.957  0.00  0.00    +0.013 A 
ATOM     31  C   UNL     1       7.331  -5.237  23.887  0.00  0.00    +0.005 A 
BRANCH  26  32
ATOM     32  C   UNL     1       5.114  -6.178  23.143  0.00  0.00    +0.119 C 
BRANCH  32  37
ATOM     33  C   UNL     1       0.660  -7.058  24.859  0.00  0.00    +0.105 C 
ATOM     34  N   UNL     1       1.721  -7.522  23.972  0.00  0.00    -0.303 NA
ATOM     35  C   UNL     1       2.962  -7.813  24.718  0.00  0.00    +0.099 C 
ATOM     36  C   UNL     1       3.785  -6.573  25.148  0.00  0.00    +0.100 C 
ATOM     37  N   UNL     1       4.083  -5.631  24.053  0.00  0.00    -0.296 NA
ATOM     38  C   UNL     1       2.811  -5.299  23.369  0.00  0.00    +0.100 C 
ATOM     39  C   UNL     1       1.993  -6.526  22.908  0.00  0.00    +0.099 C 
ENDBRANCH  32  37
ENDBRANCH  26  32
ENDBRANCH  22  29
ENDBRANCH   1  23
TORSDOF 6
ENDMDL
MODEL 5
REMARK VINA RESULT:      -7.6      2.723      5.520
REMARK  Name = 
REMARK  8 active torsions:
REMARK  status: ('A' for Active; 'I' for Inactive)
REMARK    1  A    between atoms: C_1  and  N_2
REMARK    2  A    between atoms: N_5  and  C_6
REMARK    3  A    between atoms: C_6  and  C_7
REMARK    4  A    between atoms: C_10  and  C_13
REMARK    5  A    between atoms: N_15  and  C_16
REMARK    6  A    between atoms: C_18  and  N_19
REMARK    7  A    between atoms: C_24  and  C_26
REMARK    8  A    between atoms: C_32  and  C_33
REMARK                            x       y       z     vdW  Elec       q    Type
REMARK                         _______ _______ _______ _____ _____    ______ ____
ROOT
ATOM      1  C   UNL     1       7.296  -3.059  23.460  0.00  0.00    +0.035 A 
ATOM      2  C   UNL     1       7.880  -4.315  23.365  0.00  0.00    +0.024 A 
ATOM      3  C   UNL     1       7.070  -5.449  23.337  0.00  0.00    +0.007 A 
ATOM      4  C   UNL     1       5.672  -5.347  23.484  0.00  0.00    -0.029 A 
ATOM      5  C   UNL     1       4.907  -6.639  23.561  0.00  0.00    +0.045 C 
ATOM      6  C   UNL     1       5.077  -4.071  23.572  0.00  0.00    +0.038 A 
ATOM      7  C   UNL     1       5.912  -2.945  23.470  0.00  0.00    +0.047 A 
ENDROOT
BRANCH   6   8
ATOM      8  N   UNL     1       3.717  -3.897  23.883  0.00  0.00    -0.283 N 
ATOM      9  H   UNL     1       3.044  -3.864  23.136  0.00  0.00    +0.155 HD
ATOM     10  C   UNL     1       3.063  -4.108  25.099  0.00  0.00    +0.220 A 
ATOM     11  N   UNL     1       3.745  -4.546  26.168  0.00  0.00    -0.214 NA
ATOM     12  C   UNL     1       3.100  -4.793  27.325  0.00  0.00    +0.077 A 
ATOM     13  C   UNL     1       1.742  -4.593  27.424  0.00  0.00    +0.048 A 
ATOM     14  C   UNL     1       1.113  -4.135  26.289  0.00  0.00    +0.116 A 
ATOM     15  N   UNL     1       1.742  -3.898  25.123  0.00  0.00    -0.223 NA
BRANCH  12  16
ATOM     16  C   UNL     1       3.963  -5.278  28.419  0.00  0.00    +0.019 A 
ATOM     17  C   UNL     1       3.455  -6.075  29.462  0.00  0.00    +0.013 A 
ATOM     18  C   UNL     1       4.282  -6.539  30.485  0.00  0.00    +0.020 A 
ATOM     19  C   UNL     1       5.618  -6.201  30.432  0.00  0.00    +0.111 A 
ATOM     20  N   UNL     1       6.168  -5.452  29.459  0.00  0.00    -0.263 NA
ATOM     21  C   UNL     1       5.329  -5.021  28.484  0.00  0.00    +0.120 A 
ENDBRANCH  12  16
ENDBRANCH   6   8
BRANCH   1  23
ATOM     22  C   UNL     1       8.802  -1.362  22.580  0.00  0.00    +0.248 C 
ATOM     23  N   UNL     1       8.047  -1.880  23.619  0.00  0.00    -0.281 N 
ATOM     24  H   UNL     1       8.393  -1.693  24.551  0.00  0.00    +0.155 HD
ATOM     25  O   UNL     1       8.907  -1.871  21.466  0.00  0.00    -0.270 OA
BRANCH  22  29
ATOM     26  C   UNL     1      10.426   2.493  23.396  0.00  0.00    -0.033 A 
ATOM     27  C   UNL     1      10.423   1.532  24.416  0.00  0.00    +0.005 A 
ATOM     28  C   UNL     1       9.980   0.234  24.156  0.00  0.00    +0.013 A 
ATOM     29  C   UNL     1       9.557  -0.110  22.866  0.00  0.00    +0.037 A 
ATOM     30  C   UNL     1       9.696   0.813  21.820  0.00  0.00    +0.013 A 
ATOM     31  C   UNL     1      10.133   2.107  22.082  0.00  0.00    +0.005 A 
BRANCH  26  32
ATOM     32  C   UNL     1      10.533   3.966  23.737  0.00  0.00    +0.119 C 
BRANCH  32  37
ATOM     33  C   UNL     1       7.347   7.083  25.659  0.00  0.00    +0.105 C 
ATOM     34  N   UNL     1       8.577   6.329  25.880  0.00  0.00    -0.303 NA
ATOM     35  C   UNL     1       9.630   6.717  24.920  0.00  0.00    +0.099 C 
ATOM     36  C   UNL     1       9.468   6.145  23.489  0.00  0.00    +0.100 C 
ATOM     37  N   UNL     1       9.274   4.684  23.437  0.00  0.00    -0.296 NA
ATOM     38  C   UNL     1       8.164   4.332  24.353  0.00  0.00    +0.100 C 
ATOM     39  C   UNL     1       8.324   4.871  25.792  0.00  0.00    +0.099 C 
ENDBRANCH  32  37
ENDBRANCH  26  32
ENDBRANCH  22  29
ENDBRANCH   1  23
TORSDOF 6
ENDMDL
MODEL 6
REMARK VINA RESULT:      -7.4      2.871      9.933
REMARK  Name = 
REMARK  8 active torsions:
REMARK  status: ('A' for Active; 'I' for Inactive)
REMARK    1  A    between atoms: C_1  and  N_2
REMARK    2  A    between atoms: N_5  and  C_6
REMARK    3  A    between atoms: C_6  and  C_7
REMARK    4  A    between atoms: C_10  and  C_13
REMARK    5  A    between atoms: N_15  and  C_16
REMARK    6  A    between atoms: C_18  and  N_19
REMARK    7  A    between atoms: C_24  and  C_26
REMARK    8  A    between atoms: C_32  and  C_33
REMARK                            x       y       z     vdW  Elec       q    Type
REMARK                         _______ _______ _______ _____ _____    ______ ____
ROOT
ATOM      1  C   UNL     1       5.278   2.972  24.373  0.00  0.00    +0.035 A 
ATOM      2  C   UNL     1       4.254   3.632  25.040  0.00  0.00    +0.024 A 
ATOM      3  C   UNL     1       4.389   4.987  25.335  0.00  0.00    +0.007 A 
ATOM      4  C   UNL     1       5.581   5.680  25.041  0.00  0.00    -0.029 A 
ATOM      5  C   UNL     1       5.665   7.106  25.512  0.00  0.00    +0.045 C 
ATOM      6  C   UNL     1       6.618   5.012  24.357  0.00  0.00    +0.038 A 
ATOM      7  C   UNL     1       6.399   3.681  23.961  0.00  0.00    +0.047 A 
ENDROOT
BRANCH   6   8
ATOM      8  N   UNL     1       7.889   5.586  24.176  0.00  0.00    -0.283 N 
ATOM      9  H   UNL     1       8.071   6.502  24.549  0.00  0.00    +0.155 HD
ATOM     10  C   UNL     1       9.095   4.958  23.855  0.00  0.00    +0.220 A 
ATOM     11  N   UNL     1       9.142   3.627  23.690  0.00  0.00    -0.214 NA
ATOM     12  C   UNL     1      10.317   3.022  23.428  0.00  0.00    +0.077 A 
ATOM     13  C   UNL     1      11.475   3.759  23.322  0.00  0.00    +0.048 A 
ATOM     14  C   UNL     1      11.345   5.117  23.496  0.00  0.00    +0.116 A 
ATOM     15  N   UNL     1      10.181   5.734  23.772  0.00  0.00    -0.223 NA
BRANCH  12  16
ATOM     16  C   UNL     1      10.234   1.557  23.277  0.00  0.00    +0.019 A 
ATOM     17  C   UNL     1      10.315   0.694  24.387  0.00  0.00    +0.013 A 
ATOM     18  C   UNL     1      10.222  -0.689  24.235  0.00  0.00    +0.020 A 
ATOM     19  C   UNL     1      10.036  -1.183  22.961  0.00  0.00    +0.111 A 
ATOM     20  N   UNL     1       9.940  -0.413  21.861  0.00  0.00    -0.263 NA
ATOM     21  C   UNL     1      10.036   0.926  22.053  0.00  0.00    +0.120 A 
ENDBRANCH  12  16
ENDBRANCH   6   8
BRANCH   1  23
ATOM     22  C   UNL     1       6.193   0.750  24.760  0.00  0.00    +0.248 C 
ATOM     23  N   UNL     1       5.270   1.582  24.150  0.00  0.00    -0.281 N 
ATOM     24  H   UNL     1       4.929   1.278  23.248  0.00  0.00    +0.155 HD
ATOM     25  O   UNL     1       7.091   1.127  25.510  0.00  0.00    -0.270 OA
BRANCH  22  29
ATOM     26  C   UNL     1       5.305  -3.305  23.790  0.00  0.00    -0.033 A 
ATOM     27  C   UNL     1       6.003  -2.524  22.858  0.00  0.00    +0.005 A 
ATOM     28  C   UNL     1       6.387  -1.221  23.180  0.00  0.00    +0.013 A 
ATOM     29  C   UNL     1       6.088  -0.702  24.446  0.00  0.00    +0.037 A 
ATOM     30  C   UNL     1       5.518  -1.534  25.421  0.00  0.00    +0.013 A 
ATOM     31  C   UNL     1       5.132  -2.830  25.096  0.00  0.00    +0.005 A 
BRANCH  26  32
ATOM     32  C   UNL     1       4.561  -4.546  23.340  0.00  0.00    +0.119 C 
BRANCH  32  37
ATOM     33  C   UNL     1       1.668  -8.161  24.797  0.00  0.00    +0.105 C 
ATOM     34  N   UNL     1       2.790  -7.787  23.942  0.00  0.00    -0.303 NA
ATOM     35  C   UNL     1       3.927  -7.273  24.732  0.00  0.00    +0.099 C 
ATOM     36  C   UNL     1       3.770  -5.825  25.258  0.00  0.00    +0.100 C 
ATOM     37  N   UNL     1       3.410  -4.837  24.223  0.00  0.00    -0.296 NA
ATOM     38  C   UNL     1       2.223  -5.343  23.495  0.00  0.00    +0.100 C 
ATOM     39  C   UNL     1       2.375  -6.777  22.939  0.00  0.00    +0.099 C 
ENDBRANCH  32  37
ENDBRANCH  26  32
ENDBRANCH  22  29
ENDBRANCH   1  23
TORSDOF 6
ENDMDL
MODEL 7
REMARK VINA RESULT:      -7.4      2.724      9.765
REMARK  Name = 
REMARK  8 active torsions:
REMARK  status: ('A' for Active; 'I' for Inactive)
REMARK    1  A    between atoms: C_1  and  N_2
REMARK    2  A    between atoms: N_5  and  C_6
REMARK    3  A    between atoms: C_6  and  C_7
REMARK    4  A    between atoms: C_10  and  C_13
REMARK    5  A    between atoms: N_15  and  C_16
REMARK    6  A    between atoms: C_18  and  N_19
REMARK    7  A    between atoms: C_24  and  C_26
REMARK    8  A    between atoms: C_32  and  C_33
REMARK                            x       y       z     vdW  Elec       q    Type
REMARK                         _______ _______ _______ _____ _____    ______ ____
ROOT
ATOM      1  C   UNL     1       8.571   0.249  22.948  0.00  0.00    +0.035 A 
ATOM      2  C   UNL     1       9.400   0.716  21.937  0.00  0.00    +0.024 A 
ATOM      3  C   UNL     1      10.127   1.888  22.131  0.00  0.00    +0.007 A 
ATOM      4  C   UNL     1       9.973   2.653  23.305  0.00  0.00    -0.029 A 
ATOM      5  C   UNL     1      10.712   3.962  23.359  0.00  0.00    +0.045 C 
ATOM      6  C   UNL     1       9.137   2.176  24.336  0.00  0.00    +0.038 A 
ATOM      7  C   UNL     1       8.517   0.927  24.159  0.00  0.00    +0.047 A 
ENDROOT
BRANCH   6   8
ATOM      8  N   UNL     1       8.809   2.957  25.458  0.00  0.00    -0.283 N 
ATOM      9  H   UNL     1       9.538   3.236  26.091  0.00  0.00    +0.155 HD
ATOM     10  C   UNL     1       7.666   3.730  25.683  0.00  0.00    +0.220 A 
ATOM     11  N   UNL     1       6.705   3.803  24.751  0.00  0.00    -0.214 NA
ATOM     12  C   UNL     1       5.628   4.588  24.953  0.00  0.00    +0.077 A 
ATOM     13  C   UNL     1       5.502   5.314  26.116  0.00  0.00    +0.048 A 
ATOM     14  C   UNL     1       6.524   5.181  27.027  0.00  0.00    +0.116 A 
ATOM     15  N   UNL     1       7.611   4.412  26.832  0.00  0.00    -0.223 NA
BRANCH  12  16
ATOM     16  C   UNL     1       4.650   4.587  23.849  0.00  0.00    +0.019 A 
ATOM     17  C   UNL     1       4.448   3.452  23.043  0.00  0.00    +0.013 A 
ATOM     18  C   UNL     1       3.511   3.457  22.009  0.00  0.00    +0.020 A 
ATOM     19  C   UNL     1       2.780   4.610  21.812  0.00  0.00    +0.111 A 
ATOM     20  N   UNL     1       2.918   5.725  22.553  0.00  0.00    -0.263 NA
ATOM     21  C   UNL     1       3.840   5.678  23.547  0.00  0.00    +0.120 A 
ENDBRANCH  12  16
ENDBRANCH   6   8
BRANCH   1  23
ATOM     22  C   UNL     1       8.169  -2.151  22.953  0.00  0.00    +0.248 C 
ATOM     23  N   UNL     1       7.714  -0.855  22.782  0.00  0.00    -0.281 N 
ATOM     24  H   UNL     1       6.956  -0.736  22.122  0.00  0.00    +0.155 HD
ATOM     25  O   UNL     1       9.325  -2.458  23.232  0.00  0.00    -0.270 OA
BRANCH  22  29
ATOM     26  C   UNL     1       5.269  -5.276  22.968  0.00  0.00    -0.033 A 
ATOM     27  C   UNL     1       4.886  -4.000  22.530  0.00  0.00    +0.005 A 
ATOM     28  C   UNL     1       5.832  -2.979  22.428  0.00  0.00    +0.013 A 
ATOM     29  C   UNL     1       7.171  -3.238  22.749  0.00  0.00    +0.037 A 
ATOM     30  C   UNL     1       7.572  -4.547  23.048  0.00  0.00    +0.013 A 
ATOM     31  C   UNL     1       6.627  -5.563  23.154  0.00  0.00    +0.005 A 
BRANCH  26  32
ATOM     32  C   UNL     1       4.224  -6.265  23.443  0.00  0.00    +0.119 C 
BRANCH  32  37
ATOM     33  C   UNL     1       1.805  -6.191  27.651  0.00  0.00    +0.105 C 
ATOM     34  N   UNL     1       1.741  -5.908  26.220  0.00  0.00    -0.303 NA
ATOM     35  C   UNL     1       1.956  -7.128  25.416  0.00  0.00    +0.099 C 
ATOM     36  C   UNL     1       3.426  -7.607  25.315  0.00  0.00    +0.100 C 
ATOM     37  N   UNL     1       4.377  -6.565  24.884  0.00  0.00    -0.296 NA
ATOM     38  C   UNL     1       4.190  -5.380  25.754  0.00  0.00    +0.100 C 
ATOM     39  C   UNL     1       2.733  -4.873  25.843  0.00  0.00    +0.099 C 
ENDBRANCH  32  37
ENDBRANCH  26  32
ENDBRANCH  22  29
ENDBRANCH   1  23
TORSDOF 6
ENDMDL
MODEL 8
REMARK VINA RESULT:      -7.4      3.178      4.813
REMARK  Name = 
REMARK  8 active torsions:
REMARK  status: ('A' for Active; 'I' for Inactive)
REMARK    1  A    between atoms: C_1  and  N_2
REMARK    2  A    between atoms: N_5  and  C_6
REMARK    3  A    between atoms: C_6  and  C_7
REMARK    4  A    between atoms: C_10  and  C_13
REMARK    5  A    between atoms: N_15  and  C_16
REMARK    6  A    between atoms: C_18  and  N_19
REMARK    7  A    between atoms: C_24  and  C_26
REMARK    8  A    between atoms: C_32  and  C_33
REMARK                            x       y       z     vdW  Elec       q    Type
REMARK                         _______ _______ _______ _____ _____    ______ ____
ROOT
ATOM      1  C   UNL     1       7.292  -3.502  25.073  0.00  0.00    +0.035 A 
ATOM      2  C   UNL     1       7.696  -4.282  26.147  0.00  0.00    +0.024 A 
ATOM      3  C   UNL     1       6.947  -5.401  26.505  0.00  0.00    +0.007 A 
ATOM      4  C   UNL     1       5.740  -5.709  25.843  0.00  0.00    -0.029 A 
ATOM      5  C   UNL     1       4.950  -6.867  26.388  0.00  0.00    +0.045 C 
ATOM      6  C   UNL     1       5.333  -4.921  24.747  0.00  0.00    +0.038 A 
ATOM      7  C   UNL     1       6.177  -3.876  24.334  0.00  0.00    +0.047 A 
ENDROOT
BRANCH   6   8
ATOM      8  N   UNL     1       4.069  -5.066  24.147  0.00  0.00    -0.283 N 
ATOM      9  H   UNL     1       3.907  -5.842  23.528  0.00  0.00    +0.155 HD
ATOM     10  C   UNL     1       2.849  -4.503  24.529  0.00  0.00    +0.220 A 
ATOM     11  N   UNL     1       2.778  -3.712  25.610  0.00  0.00    -0.214 NA
ATOM     12  C   UNL     1       1.589  -3.211  26.001  0.00  0.00    +0.077 A 
ATOM     13  C   UNL     1       0.443  -3.499  25.296  0.00  0.00    +0.048 A 
ATOM     14  C   UNL     1       0.598  -4.310  24.196  0.00  0.00    +0.116 A 
ATOM     15  N   UNL     1       1.775  -4.829  23.801  0.00  0.00    -0.223 NA
BRANCH  12  16
ATOM     16  C   UNL     1       1.647  -2.363  27.208  0.00  0.00    +0.019 A 
ATOM     17  C   UNL     1       1.707  -2.921  28.499  0.00  0.00    +0.013 A 
ATOM     18  C   UNL     1       1.773  -2.111  29.632  0.00  0.00    +0.020 A 
ATOM     19  C   UNL     1       1.791  -0.745  29.445  0.00  0.00    +0.111 A 
ATOM     20  N   UNL     1       1.746  -0.150  28.239  0.00  0.00    -0.263 NA
ATOM     21  C   UNL     1       1.681  -0.973  27.163  0.00  0.00    +0.120 A 
ENDBRANCH  12  16
ENDBRANCH   6   8
BRANCH   1  23
ATOM     22  C   UNL     1       9.202  -2.272  24.200  0.00  0.00    +0.248 C 
ATOM     23  N   UNL     1       7.923  -2.292  24.730  0.00  0.00    -0.281 N 
ATOM     24  H   UNL     1       7.657  -1.481  25.273  0.00  0.00    +0.155 HD
ATOM     25  O   UNL     1       9.897  -3.266  24.005  0.00  0.00    -0.270 OA
BRANCH  22  29
ATOM     26  C   UNL     1      10.253   1.761  23.303  0.00  0.00    -0.033 A 
ATOM     27  C   UNL     1      10.594   1.236  24.559  0.00  0.00    +0.005 A 
ATOM     28  C   UNL     1      10.343  -0.106  24.851  0.00  0.00    +0.013 A 
ATOM     29  C   UNL     1       9.767  -0.932  23.877  0.00  0.00    +0.037 A 
ATOM     30  C   UNL     1       9.561  -0.439  22.581  0.00  0.00    +0.013 A 
ATOM     31  C   UNL     1       9.806   0.899  22.294  0.00  0.00    +0.005 A 
BRANCH  26  32
ATOM     32  C   UNL     1      10.162   3.260  23.103  0.00  0.00    +0.119 C 
BRANCH  32  37
ATOM     33  C   UNL     1       7.036   6.934  23.640  0.00  0.00    +0.105 C 
ATOM     34  N   UNL     1       7.967   6.268  22.735  0.00  0.00    -0.303 NA
ATOM     35  C   UNL     1       7.559   4.874  22.468  0.00  0.00    +0.099 C 
ATOM     36  C   UNL     1       7.854   3.866  23.606  0.00  0.00    +0.100 C 
ATOM     37  N   UNL     1       9.249   3.883  24.088  0.00  0.00    -0.296 NA
ATOM     38  C   UNL     1       9.607   5.282  24.418  0.00  0.00    +0.100 C 
ATOM     39  C   UNL     1       9.344   6.296  23.282  0.00  0.00    +0.099 C 
ENDBRANCH  32  37
ENDBRANCH  26  32
ENDBRANCH  22  29
ENDBRANCH   1  23
TORSDOF 6
ENDMDL
MODEL 9
REMARK VINA RESULT:      -7.3      2.492      4.348
REMARK  Name = 
REMARK  8 active torsions:
REMARK  status: ('A' for Active; 'I' for Inactive)
REMARK    1  A    between atoms: C_1  and  N_2
REMARK    2  A    between atoms: N_5  and  C_6
REMARK    3  A    between atoms: C_6  and  C_7
REMARK    4  A    between atoms: C_10  and  C_13
REMARK    5  A    between atoms: N_15  and  C_16
REMARK    6  A    between atoms: C_18  and  N_19
REMARK    7  A    between atoms: C_24  and  C_26
REMARK    8  A    between atoms: C_32  and  C_33
REMARK                            x       y       z     vdW  Elec       q    Type
REMARK                         _______ _______ _______ _____ _____    ______ ____
ROOT
ATOM      1  C   UNL     1       7.925  -3.314  26.291  0.00  0.00    +0.035 A 
ATOM      2  C   UNL     1       8.539  -4.551  26.423  0.00  0.00    +0.024 A 
ATOM      3  C   UNL     1       7.865  -5.589  27.064  0.00  0.00    +0.007 A 
ATOM      4  C   UNL     1       6.600  -5.380  27.651  0.00  0.00    -0.029 A 
ATOM      5  C   UNL     1       6.017  -6.531  28.422  0.00  0.00    +0.045 C 
ATOM      6  C   UNL     1       5.972  -4.125  27.510  0.00  0.00    +0.038 A 
ATOM      7  C   UNL     1       6.625  -3.140  26.749  0.00  0.00    +0.047 A 
ENDROOT
BRANCH   6   8
ATOM      8  N   UNL     1       4.793  -3.794  28.202  0.00  0.00    -0.283 N 
ATOM      9  H   UNL     1       4.817  -3.057  28.885  0.00  0.00    +0.155 HD
ATOM     10  C   UNL     1       3.469  -4.081  27.862  0.00  0.00    +0.220 A 
ATOM     11  N   UNL     1       3.189  -4.751  26.734  0.00  0.00    -0.214 NA
ATOM     12  C   UNL     1       1.908  -4.983  26.388  0.00  0.00    +0.077 A 
ATOM     13  C   UNL     1       0.877  -4.543  27.187  0.00  0.00    +0.048 A 
ATOM     14  C   UNL     1       1.243  -3.871  28.331  0.00  0.00    +0.116 A 
ATOM     15  N   UNL     1       2.518  -3.620  28.682  0.00  0.00    -0.223 NA
BRANCH  12  16
ATOM     16  C   UNL     1       1.737  -5.721  25.122  0.00  0.00    +0.019 A 
ATOM     17  C   UNL     1       1.217  -7.029  25.094  0.00  0.00    +0.013 A 
ATOM     18  C   UNL     1       1.048  -7.713  23.891  0.00  0.00    +0.020 A 
ATOM     19  C   UNL     1       1.395  -7.060  22.727  0.00  0.00    +0.111 A 
ATOM     20  N   UNL     1       1.887  -5.808  22.685  0.00  0.00    -0.263 NA
ATOM     21  C   UNL     1       2.037  -5.179  23.877  0.00  0.00    +0.120 A 
ENDBRANCH  12  16
ENDBRANCH   6   8
BRANCH   1  23
ATOM     22  C   UNL     1       8.617  -1.936  24.408  0.00  0.00    +0.248 C 
ATOM     23  N   UNL     1       8.586  -2.186  25.769  0.00  0.00    -0.281 N 
ATOM     24  H   UNL     1       9.380  -1.851  26.298  0.00  0.00    +0.155 HD
ATOM     25  O   UNL     1       8.111  -2.655  23.550  0.00  0.00    -0.270 OA
BRANCH  22  29
ATOM     26  C   UNL     1      10.213   1.863  23.318  0.00  0.00    -0.033 A 
ATOM     27  C   UNL     1      10.711   1.224  24.462  0.00  0.00    +0.005 A 
ATOM     28  C   UNL     1      10.274  -0.059  24.796  0.00  0.00    +0.013 A 
ATOM     29  C   UNL     1       9.349  -0.713  23.973  0.00  0.00    +0.037 A 
ATOM     30  C   UNL     1       8.964  -0.129  22.759  0.00  0.00    +0.013 A 
ATOM     31  C   UNL     1       9.397   1.152  22.430  0.00  0.00    +0.005 A 
BRANCH  26  32
ATOM     32  C   UNL     1      10.375   3.361  23.150  0.00  0.00    +0.119 C 
BRANCH  32  37
ATOM     33  C   UNL     1       7.344   7.041  24.062  0.00  0.00    +0.105 C 
ATOM     34  N   UNL     1       8.022   6.268  23.026  0.00  0.00    -0.303 NA
ATOM     35  C   UNL     1       7.624   4.847  23.062  0.00  0.00    +0.099 C 
ATOM     36  C   UNL     1       8.267   4.005  24.193  0.00  0.00    +0.100 C 
ATOM     37  N   UNL     1       9.738   4.102  24.262  0.00  0.00    -0.296 NA
ATOM     38  C   UNL     1      10.105   5.537  24.299  0.00  0.00    +0.100 C 
ATOM     39  C   UNL     1       9.494   6.385  23.161  0.00  0.00    +0.099 C 
ENDBRANCH  32  37
ENDBRANCH  26  32
ENDBRANCH  22  29
ENDBRANCH   1  23
TORSDOF 6
ENDMDL
