MODEL 1
REMARK VINA RESULT:      -4.6      0.000      0.000
REMARK  Name = 
REMARK  5 active torsions:
REMARK  status: ('A' for Active; 'I' for Inactive)
REMARK    1  A    between atoms: N_1  and  CA_2
REMARK    2  A    between atoms: CA_2  and  CB_4
REMARK    3  A    between atoms: CA_2  and  C_10
REMARK    4  A    between atoms: CB_4  and  CG_5
REMARK    5  A    between atoms: C_10  and  O_11
REMARK                            x       y       z     vdW  Elec       q    Type
REMARK                         _______ _______ _______ _____ _____    ______ ____
ROOT
ATOM      1  CA  HIS A   1       8.638  -4.742  25.386  0.00  0.00    +0.166 C 
ENDROOT
BRANCH   1   2
ATOM      2  N   HIS A   1       9.827  -5.647  25.247  0.00  0.00    -0.318 NA
ATOM      3  H1  HIS A   1      10.609  -5.223  25.756  0.00  0.00    +0.119 HD
ATOM      4  H2  HIS A   1       9.622  -6.487  25.802  0.00  0.00    +0.119 HD
ENDBRANCH   1   2
BRANCH   1   5
ATOM      5  C   HIS A   1       7.584  -5.455  26.247  0.00  0.00    +0.322 C 
ATOM      6  OXT HIS A   1       6.433  -5.677  25.907  0.00  0.00    -0.249 OA
BRANCH   5   7
ATOM      7  O   HIS A   1       8.090  -5.807  27.457  0.00  0.00    -0.480 OA
ATOM      8  H   HIS A   1       8.861  -6.399  27.263  0.00  0.00    +0.295 HD
ENDBRANCH   5   7
ENDBRANCH   1   5
BRANCH   1   9
ATOM      9  CB  HIS A   1       8.008  -4.358  24.037  0.00  0.00    +0.084 C 
BRANCH   9  10
ATOM     10  CG  HIS A   1       8.679  -3.191  23.394  0.00  0.00    +0.037 A 
ATOM     11  ND1 HIS A   1       9.889  -2.694  23.810  0.00  0.00    -0.348 N 
ATOM     12  HD1 HIS A   1      10.453  -3.031  24.579  0.00  0.00    +0.166 HD
ATOM     13  CE1 HIS A   1      10.198  -1.636  23.004  0.00  0.00    +0.196 A 
ATOM     14  NE2 HIS A   1       9.263  -1.425  22.107  0.00  0.00    -0.244 NA
ATOM     15  CD2 HIS A   1       8.305  -2.369  22.354  0.00  0.00    +0.133 A 
ENDBRANCH   9  10
ENDBRANCH   1   9
TORSDOF 5
ENDMDL
MODEL 2
REMARK VINA RESULT:      -4.4      5.081      6.646
REMARK  Name = 
REMARK  5 active torsions:
REMARK  status: ('A' for Active; 'I' for Inactive)
REMARK    1  A    between atoms: N_1  and  CA_2
REMARK    2  A    between atoms: CA_2  and  CB_4
REMARK    3  A    between atoms: CA_2  and  C_10
REMARK    4  A    between atoms: CB_4  and  CG_5
REMARK    5  A    between atoms: C_10  and  O_11
REMARK                            x       y       z     vdW  Elec       q    Type
REMARK                         _______ _______ _______ _____ _____    ______ ____
ROOT
ATOM      1  CA  HIS A   1       9.971   2.037  24.132  0.00  0.00    +0.166 C 
ENDROOT
BRANCH   1   2
ATOM      2  N   HIS A   1       8.570   1.796  23.653  0.00  0.00    -0.318 NA
ATOM      3  H1  HIS A   1       8.033   1.395  24.429  0.00  0.00    +0.119 HD
ATOM      4  H2  HIS A   1       8.138   2.720  23.531  0.00  0.00    +0.119 HD
ENDBRANCH   1   2
BRANCH   1   5
ATOM      5  C   HIS A   1      10.703   2.886  23.082  0.00  0.00    +0.322 C 
ATOM      6  OXT HIS A   1      11.482   3.793  23.330  0.00  0.00    -0.249 OA
BRANCH   5   7
ATOM      7  O   HIS A   1      10.368   2.509  21.821  0.00  0.00    -0.480 OA
ATOM      8  H   HIS A   1      11.227   2.335  21.357  0.00  0.00    +0.295 HD
ENDBRANCH   5   7
ENDBRANCH   1   5
BRANCH   1   9
ATOM      9  CB  HIS A   1      10.762   0.740  24.369  0.00  0.00    +0.084 C 
BRANCH   9  10
ATOM     10  CG  HIS A   1      10.161  -0.440  23.681  0.00  0.00    +0.037 A 
ATOM     11  ND1 HIS A   1       9.982  -0.510  22.321  0.00  0.00    -0.348 N 
ATOM     12  HD1 HIS A   1      10.214   0.201  21.640  0.00  0.00    +0.166 HD
ATOM     13  CE1 HIS A   1       9.411  -1.719  22.044  0.00  0.00    +0.196 A 
ATOM     14  NE2 HIS A   1       9.211  -2.419  23.135  0.00  0.00    -0.244 NA
ATOM     15  CD2 HIS A   1       9.651  -1.626  24.160  0.00  0.00    +0.133 A 
ENDBRANCH   9  10
ENDBRANCH   1   9
TORSDOF 5
ENDMDL
MODEL 3
REMARK VINA RESULT:      -4.4      4.185      5.641
REMARK  Name = 
REMARK  5 active torsions:
REMARK  status: ('A' for Active; 'I' for Inactive)
REMARK    1  A    between atoms: N_1  and  CA_2
REMARK    2  A    between atoms: CA_2  and  CB_4
REMARK    3  A    between atoms: CA_2  and  C_10
REMARK    4  A    between atoms: CB_4  and  CG_5
REMARK    5  A    between atoms: C_10  and  O_11
REMARK                            x       y       z     vdW  Elec       q    Type
REMARK                         _______ _______ _______ _____ _____    ______ ____
ROOT
ATOM      1  CA  HIS A   1       9.024   0.155  21.767  0.00  0.00    +0.166 C 
ENDROOT
BRANCH   1   2
ATOM      2  N   HIS A   1       9.820  -0.964  21.163  0.00  0.00    -0.318 NA
ATOM      3  H1  HIS A   1      10.478  -1.304  21.871  0.00  0.00    +0.119 HD
ATOM      4  H2  HIS A   1       9.176  -1.756  21.051  0.00  0.00    +0.119 HD
ENDBRANCH   1   2
BRANCH   1   5
ATOM      5  C   HIS A   1      10.001   1.169  22.381  0.00  0.00    +0.322 C 
ATOM      6  OXT HIS A   1      10.557   1.044  23.461  0.00  0.00    -0.249 OA
BRANCH   5   7
ATOM      7  O   HIS A   1      10.170   2.246  21.571  0.00  0.00    -0.480 OA
ATOM      8  H   HIS A   1       9.256   2.560  21.351  0.00  0.00    +0.295 HD
ENDBRANCH   5   7
ENDBRANCH   1   5
BRANCH   1   9
ATOM      9  CB  HIS A   1       8.043  -0.318  22.854  0.00  0.00    +0.084 C 
BRANCH   9  10
ATOM     10  CG  HIS A   1       8.364  -1.680  23.371  0.00  0.00    +0.037 A 
ATOM     11  ND1 HIS A   1       9.521  -1.977  24.048  0.00  0.00    -0.348 N 
ATOM     12  HD1 HIS A   1      10.278  -1.341  24.265  0.00  0.00    +0.166 HD
ATOM     13  CE1 HIS A   1       9.482  -3.303  24.369  0.00  0.00    +0.196 A 
ATOM     14  NE2 HIS A   1       8.380  -3.870  23.937  0.00  0.00    -0.244 NA
ATOM     15  CD2 HIS A   1       7.689  -2.879  23.296  0.00  0.00    +0.133 A 
ENDBRANCH   9  10
ENDBRANCH   1   9
TORSDOF 5
ENDMDL
MODEL 4
REMARK VINA RESULT:      -4.3      3.282      3.746
REMARK  Name = 
REMARK  5 active torsions:
REMARK  status: ('A' for Active; 'I' for Inactive)
REMARK    1  A    between atoms: N_1  and  CA_2
REMARK    2  A    between atoms: CA_2  and  CB_4
REMARK    3  A    between atoms: CA_2  and  C_10
REMARK    4  A    between atoms: CB_4  and  CG_5
REMARK    5  A    between atoms: C_10  and  O_11
REMARK                            x       y       z     vdW  Elec       q    Type
REMARK                         _______ _______ _______ _____ _____    ______ ____
ROOT
ATOM      1  CA  HIS A   1       8.087  -5.225  25.622  0.00  0.00    +0.166 C 
ENDROOT
BRANCH   1   2
ATOM      2  N   HIS A   1       8.227  -5.566  27.076  0.00  0.00    -0.318 NA
ATOM      3  H1  HIS A   1       7.794  -6.483  27.230  0.00  0.00    +0.119 HD
ATOM      4  H2  HIS A   1       9.224  -5.755  27.238  0.00  0.00    +0.119 HD
ENDBRANCH   1   2
BRANCH   1   5
ATOM      5  C   HIS A   1       9.460  -4.785  25.093  0.00  0.00    +0.322 C 
ATOM      6  OXT HIS A   1       9.660  -3.819  24.373  0.00  0.00    -0.249 OA
BRANCH   5   7
ATOM      7  O   HIS A   1      10.445  -5.617  25.520  0.00  0.00    -0.480 OA
ATOM      8  H   HIS A   1      10.546  -5.437  26.489  0.00  0.00    +0.295 HD
ENDBRANCH   5   7
ENDBRANCH   1   5
BRANCH   1   9
ATOM      9  CB  HIS A   1       7.066  -4.105  25.358  0.00  0.00    +0.084 C 
BRANCH   9  10
ATOM     10  CG  HIS A   1       6.156  -4.407  24.215  0.00  0.00    +0.037 A 
ATOM     11  ND1 HIS A   1       6.226  -5.565  23.481  0.00  0.00    -0.348 N 
ATOM     12  HD1 HIS A   1       6.881  -6.326  23.606  0.00  0.00    +0.166 HD
ATOM     13  CE1 HIS A   1       5.254  -5.505  22.524  0.00  0.00    +0.196 A 
ATOM     14  NE2 HIS A   1       4.574  -4.385  22.598  0.00  0.00    -0.244 NA
ATOM     15  CD2 HIS A   1       5.140  -3.685  23.629  0.00  0.00    +0.133 A 
ENDBRANCH   9  10
ENDBRANCH   1   9
TORSDOF 5
ENDMDL
MODEL 5
REMARK VINA RESULT:      -4.3      4.271      5.802
REMARK  Name = 
REMARK  5 active torsions:
REMARK  status: ('A' for Active; 'I' for Inactive)
REMARK    1  A    between atoms: N_1  and  CA_2
REMARK    2  A    between atoms: CA_2  and  CB_4
REMARK    3  A    between atoms: CA_2  and  C_10
REMARK    4  A    between atoms: CB_4  and  CG_5
REMARK    5  A    between atoms: C_10  and  O_11
REMARK                            x       y       z     vdW  Elec       q    Type
REMARK                         _______ _______ _______ _____ _____    ______ ____
ROOT
ATOM      1  CA  HIS A   1       9.794   0.634  23.259  0.00  0.00    +0.166 C 
ENDROOT
BRANCH   1   2
ATOM      2  N   HIS A   1       8.461   0.542  23.942  0.00  0.00    -0.318 NA
ATOM      3  H1  HIS A   1       8.309  -0.436  24.210  0.00  0.00    +0.119 HD
ATOM      4  H2  HIS A   1       8.562   1.014  24.849  0.00  0.00    +0.119 HD
ENDBRANCH   1   2
BRANCH   1   5
ATOM      5  C   HIS A   1       9.583   1.247  21.866  0.00  0.00    +0.322 C 
ATOM      6  OXT HIS A   1       8.839   0.800  21.007  0.00  0.00    -0.249 OA
BRANCH   5   7
ATOM      7  O   HIS A   1      10.344   2.359  21.695  0.00  0.00    -0.480 OA
ATOM      8  H   HIS A   1       9.769   3.120  21.965  0.00  0.00    +0.295 HD
ENDBRANCH   5   7
ENDBRANCH   1   5
BRANCH   1   9
ATOM      9  CB  HIS A   1      10.493  -0.727  23.108  0.00  0.00    +0.084 C 
BRANCH   9  10
ATOM     10  CG  HIS A   1       9.548  -1.878  23.204  0.00  0.00    +0.037 A 
ATOM     11  ND1 HIS A   1       8.495  -2.063  22.342  0.00  0.00    -0.348 N 
ATOM     12  HD1 HIS A   1       8.228  -1.465  21.571  0.00  0.00    +0.166 HD
ATOM     13  CE1 HIS A   1       7.849  -3.205  22.722  0.00  0.00    +0.196 A 
ATOM     14  NE2 HIS A   1       8.418  -3.754  23.769  0.00  0.00    -0.244 NA
ATOM     15  CD2 HIS A   1       9.459  -2.927  24.092  0.00  0.00    +0.133 A 
ENDBRANCH   9  10
ENDBRANCH   1   9
TORSDOF 5
ENDMDL
MODEL 6
REMARK VINA RESULT:      -4.3      4.893      6.417
REMARK  Name = 
REMARK  5 active torsions:
REMARK  status: ('A' for Active; 'I' for Inactive)
REMARK    1  A    between atoms: N_1  and  CA_2
REMARK    2  A    between atoms: CA_2  and  CB_4
REMARK    3  A    between atoms: CA_2  and  C_10
REMARK    4  A    between atoms: CB_4  and  CG_5
REMARK    5  A    between atoms: C_10  and  O_11
REMARK                            x       y       z     vdW  Elec       q    Type
REMARK                         _______ _______ _______ _____ _____    ______ ____
ROOT
ATOM      1  CA  HIS A   1      10.075   2.066  23.992  0.00  0.00    +0.166 C 
ENDROOT
BRANCH   1   2
ATOM      2  N   HIS A   1       8.971   2.452  24.932  0.00  0.00    -0.318 NA
ATOM      3  H1  HIS A   1       9.181   3.384  25.303  0.00  0.00    +0.119 HD
ATOM      4  H2  HIS A   1       8.138   2.621  24.353  0.00  0.00    +0.119 HD
ENDBRANCH   1   2
BRANCH   1   5
ATOM      5  C   HIS A   1       9.472   1.864  22.594  0.00  0.00    +0.322 C 
ATOM      6  OXT HIS A   1       8.382   1.365  22.364  0.00  0.00    -0.249 OA
BRANCH   5   7
ATOM      7  O   HIS A   1      10.314   2.305  21.623  0.00  0.00    -0.480 OA
ATOM      8  H   HIS A   1      11.084   2.707  22.100  0.00  0.00    +0.295 HD
ENDBRANCH   5   7
ENDBRANCH   1   5
BRANCH   1   9
ATOM      9  CB  HIS A   1      10.808   0.781  24.413  0.00  0.00    +0.084 C 
BRANCH   9  10
ATOM     10  CG  HIS A   1       9.899  -0.227  25.033  0.00  0.00    +0.037 A 
ATOM     11  ND1 HIS A   1       9.429  -0.129  26.320  0.00  0.00    -0.348 N 
ATOM     12  HD1 HIS A   1       9.636   0.602  26.989  0.00  0.00    +0.166 HD
ATOM     13  CE1 HIS A   1       8.633  -1.214  26.550  0.00  0.00    +0.196 A 
ATOM     14  NE2 HIS A   1       8.570  -1.997  25.499  0.00  0.00    -0.244 NA
ATOM     15  CD2 HIS A   1       9.370  -1.407  24.559  0.00  0.00    +0.133 A 
ENDBRANCH   9  10
ENDBRANCH   1   9
TORSDOF 5
ENDMDL
MODEL 7
REMARK VINA RESULT:      -4.2      3.913      5.608
REMARK  Name = 
REMARK  5 active torsions:
REMARK  status: ('A' for Active; 'I' for Inactive)
REMARK    1  A    between atoms: N_1  and  CA_2
REMARK    2  A    between atoms: CA_2  and  CB_4
REMARK    3  A    between atoms: CA_2  and  C_10
REMARK    4  A    between atoms: CB_4  and  CG_5
REMARK    5  A    between atoms: C_10  and  O_11
REMARK                            x       y       z     vdW  Elec       q    Type
REMARK                         _______ _______ _______ _____ _____    ______ ____
ROOT
ATOM      1  CA  HIS A   1       9.654   1.028  22.637  0.00  0.00    +0.166 C 
ENDROOT
BRANCH   1   2
ATOM      2  N   HIS A   1      10.083   2.204  21.811  0.00  0.00    -0.318 NA
ATOM      3  H1  HIS A   1      10.524   1.848  20.956  0.00  0.00    +0.119 HD
ATOM      4  H2  HIS A   1       9.225   2.645  21.458  0.00  0.00    +0.119 HD
ENDBRANCH   1   2
BRANCH   1   5
ATOM      5  C   HIS A   1      10.253   1.180  24.044  0.00  0.00    +0.322 C 
ATOM      6  OXT HIS A   1      11.321   0.714  24.408  0.00  0.00    -0.249 OA
BRANCH   5   7
ATOM      7  O   HIS A   1       9.434   1.899  24.855  0.00  0.00    -0.480 OA
ATOM      8  H   HIS A   1       8.526   1.529  24.714  0.00  0.00    +0.295 HD
ENDBRANCH   5   7
ENDBRANCH   1   5
BRANCH   1   9
ATOM      9  CB  HIS A   1      10.098  -0.321  22.047  0.00  0.00    +0.084 C 
BRANCH   9  10
ATOM     10  CG  HIS A   1       9.439  -1.487  22.705  0.00  0.00    +0.037 A 
ATOM     11  ND1 HIS A   1      10.033  -2.229  23.695  0.00  0.00    -0.348 N 
ATOM     12  HD1 HIS A   1      10.958  -2.096  24.083  0.00  0.00    +0.166 HD
ATOM     13  CE1 HIS A   1       9.152  -3.206  24.061  0.00  0.00    +0.196 A 
ATOM     14  NE2 HIS A   1       8.040  -3.137  23.368  0.00  0.00    -0.244 NA
ATOM     15  CD2 HIS A   1       8.215  -2.088  22.506  0.00  0.00    +0.133 A 
ENDBRANCH   9  10
ENDBRANCH   1   9
TORSDOF 5
ENDMDL
MODEL 8
REMARK VINA RESULT:      -4.1      1.870      2.034
REMARK  Name = 
REMARK  5 active torsions:
REMARK  status: ('A' for Active; 'I' for Inactive)
REMARK    1  A    between atoms: N_1  and  CA_2
REMARK    2  A    between atoms: CA_2  and  CB_4
REMARK    3  A    between atoms: CA_2  and  C_10
REMARK    4  A    between atoms: CB_4  and  CG_5
REMARK    5  A    between atoms: C_10  and  O_11
REMARK                            x       y       z     vdW  Elec       q    Type
REMARK                         _______ _______ _______ _____ _____    ______ ____
ROOT
ATOM      1  CA  HIS A   1       8.094  -4.761  25.973  0.00  0.00    +0.166 C 
ENDROOT
BRANCH   1   2
ATOM      2  N   HIS A   1       8.149  -5.611  27.208  0.00  0.00    -0.318 NA
ATOM      3  H1  HIS A   1       8.343  -6.576  26.921  0.00  0.00    +0.119 HD
ATOM      4  H2  HIS A   1       9.005  -5.346  27.710  0.00  0.00    +0.119 HD
ENDBRANCH   1   2
BRANCH   1   5
ATOM      5  C   HIS A   1       9.001  -5.396  24.908  0.00  0.00    +0.322 C 
ATOM      6  OXT HIS A   1       8.663  -5.664  23.766  0.00  0.00    -0.249 OA
BRANCH   5   7
ATOM      7  O   HIS A   1      10.245  -5.638  25.397  0.00  0.00    -0.480 OA
ATOM      8  H   HIS A   1      10.165  -5.556  26.382  0.00  0.00    +0.295 HD
ENDBRANCH   5   7
ENDBRANCH   1   5
BRANCH   1   9
ATOM      9  CB  HIS A   1       8.544  -3.311  26.216  0.00  0.00    +0.084 C 
BRANCH   9  10
ATOM     10  CG  HIS A   1       8.705  -2.534  24.952  0.00  0.00    +0.037 A 
ATOM     11  ND1 HIS A   1       9.819  -2.615  24.153  0.00  0.00    -0.348 N 
ATOM     12  HD1 HIS A   1      10.644  -3.177  24.316  0.00  0.00    +0.166 HD
ATOM     13  CE1 HIS A   1       9.625  -1.777  23.092  0.00  0.00    +0.196 A 
ATOM     14  NE2 HIS A   1       8.466  -1.167  23.165  0.00  0.00    -0.244 NA
ATOM     15  CD2 HIS A   1       7.896  -1.611  24.327  0.00  0.00    +0.133 A 
ENDBRANCH   9  10
ENDBRANCH   1   9
TORSDOF 5
ENDMDL
MODEL 9
REMARK VINA RESULT:      -4.1      5.587      7.007
REMARK  Name = 
REMARK  5 active torsions:
REMARK  status: ('A' for Active; 'I' for Inactive)
REMARK    1  A    between atoms: N_1  and  CA_2
REMARK    2  A    between atoms: CA_2  and  CB_4
REMARK    3  A    between atoms: CA_2  and  C_10
REMARK    4  A    between atoms: CB_4  and  CG_5
REMARK    5  A    between atoms: C_10  and  O_11
REMARK                            x       y       z     vdW  Elec       q    Type
REMARK                         _______ _______ _______ _____ _____    ______ ____
ROOT
ATOM      1  CA  HIS A   1      10.425   2.368  23.694  0.00  0.00    +0.166 C 
ENDROOT
BRANCH   1   2
ATOM      2  N   HIS A   1       9.504   1.868  24.768  0.00  0.00    -0.318 NA
ATOM      3  H1  HIS A   1       9.533   2.535  25.546  0.00  0.00    +0.119 HD
ATOM      4  H2  HIS A   1       8.548   1.979  24.409  0.00  0.00    +0.119 HD
ENDBRANCH   1   2
BRANCH   1   5
ATOM      5  C   HIS A   1      10.336   3.900  23.653  0.00  0.00    +0.322 C 
ATOM      6  OXT HIS A   1       9.452   4.567  24.169  0.00  0.00    -0.249 OA
BRANCH   5   7
ATOM      7  O   HIS A   1      11.369   4.438  22.954  0.00  0.00    -0.480 OA
ATOM      8  H   HIS A   1      11.230   4.158  22.014  0.00  0.00    +0.295 HD
ENDBRANCH   5   7
ENDBRANCH   1   5
BRANCH   1   9
ATOM      9  CB  HIS A   1      10.090   1.808  22.301  0.00  0.00    +0.084 C 
BRANCH   9  10
ATOM     10  CG  HIS A   1       9.958   0.322  22.289  0.00  0.00    +0.037 A 
ATOM     11  ND1 HIS A   1      10.520  -0.493  23.240  0.00  0.00    -0.348 N 
ATOM     12  HD1 HIS A   1      11.081  -0.206  24.032  0.00  0.00    +0.166 HD
ATOM     13  CE1 HIS A   1      10.200  -1.781  22.919  0.00  0.00    +0.196 A 
ATOM     14  NE2 HIS A   1       9.476  -1.839  21.826  0.00  0.00    -0.244 NA
ATOM     15  CD2 HIS A   1       9.339  -0.542  21.413  0.00  0.00    +0.133 A 
ENDBRANCH   9  10
ENDBRANCH   1   9
TORSDOF 5
ENDMDL
