MODEL 1
REMARK VINA RESULT:      -3.7      0.000      0.000
REMARK  Name = 
REMARK  5 active torsions:
REMARK  status: ('A' for Active; 'I' for Inactive)
REMARK    1  A    between atoms: C_1  and  N_2
REMARK    2  A    between atoms: N_2  and  CA_3
REMARK    3  A    between atoms: CA_3  and  C_6
REMARK    4  A    between atoms: C_4  and  C_5
REMARK    5  A    between atoms: C_6  and  O_7
REMARK                            x       y       z     vdW  Elec       q    Type
REMARK                         _______ _______ _______ _____ _____    ______ ____
ROOT
ATOM      1  CA  UNL     1      10.166  -0.271  23.333  0.00  0.00    +0.108 C 
ATOM      2  C   UNL     1      10.077   0.642  22.347  0.00  0.00    -0.000 C 
ATOM      3  C   UNL     1      10.016   2.132  22.391  0.00  0.00    +0.037 C 
ENDROOT
BRANCH   1   5
ATOM      4  C   UNL     1       9.154  -0.207  25.654  0.00  0.00    +0.125 C 
ATOM      5  N   UNL     1      10.261  -0.130  24.720  0.00  0.00    -0.342 N 
ATOM      6  H   UNL     1      11.048  -0.689  25.066  0.00  0.00    +0.146 HD
ENDBRANCH   1   5
BRANCH   1   7
ATOM      7  C   UNL     1      10.199  -1.709  22.820  0.00  0.00    +0.350 C 
ATOM      8  OXT UNL     1      10.282  -2.718  23.493  0.00  0.00    -0.244 OA
BRANCH   7   9
ATOM      9  O   UNL     1      10.146  -1.702  21.465  0.00  0.00    -0.476 OA
ATOM     10  H   UNL     1      10.680  -2.457  21.134  0.00  0.00    +0.295 HD
ENDBRANCH   7   9
ENDBRANCH   1   7
TORSDOF 3
ENDMDL
MODEL 2
REMARK VINA RESULT:      -3.7      5.252      6.376
REMARK  Name = 
REMARK  5 active torsions:
REMARK  status: ('A' for Active; 'I' for Inactive)
REMARK    1  A    between atoms: C_1  and  N_2
REMARK    2  A    between atoms: N_2  and  CA_3
REMARK    3  A    between atoms: CA_3  and  C_6
REMARK    4  A    between atoms: C_4  and  C_5
REMARK    5  A    between atoms: C_6  and  O_7
REMARK                            x       y       z     vdW  Elec       q    Type
REMARK                         _______ _______ _______ _____ _____    ______ ____
ROOT
ATOM      1  CA  UNL     1      11.909   4.938  23.415  0.00  0.00    +0.108 C 
ATOM      2  C   UNL     1      11.318   6.035  23.924  0.00  0.00    -0.000 C 
ATOM      3  C   UNL     1      10.098   6.192  24.768  0.00  0.00    +0.037 C 
ENDROOT
BRANCH   1   5
ATOM      4  C   UNL     1      10.323   2.975  23.195  0.00  0.00    +0.125 C 
ATOM      5  N   UNL     1      11.597   3.580  23.530  0.00  0.00    -0.342 N 
ATOM      6  H   UNL     1      12.363   3.022  23.139  0.00  0.00    +0.146 HD
ENDBRANCH   1   5
BRANCH   1   7
ATOM      7  C   UNL     1      13.157   5.253  22.595  0.00  0.00    +0.350 C 
ATOM      8  OXT UNL     1      13.190   5.647  21.445  0.00  0.00    -0.244 OA
BRANCH   7   9
ATOM      9  O   UNL     1      14.260   5.000  23.342  0.00  0.00    -0.476 OA
ATOM     10  H   UNL     1      14.597   4.110  23.098  0.00  0.00    +0.295 HD
ENDBRANCH   7   9
ENDBRANCH   1   7
TORSDOF 3
ENDMDL
MODEL 3
REMARK VINA RESULT:      -3.6      3.860      4.708
REMARK  Name = 
REMARK  5 active torsions:
REMARK  status: ('A' for Active; 'I' for Inactive)
REMARK    1  A    between atoms: C_1  and  N_2
REMARK    2  A    between atoms: N_2  and  CA_3
REMARK    3  A    between atoms: CA_3  and  C_6
REMARK    4  A    between atoms: C_4  and  C_5
REMARK    5  A    between atoms: C_6  and  O_7
REMARK                            x       y       z     vdW  Elec       q    Type
REMARK                         _______ _______ _______ _____ _____    ______ ____
ROOT
ATOM      1  CA  UNL     1      10.442   2.324  23.048  0.00  0.00    +0.108 C 
ATOM      2  C   UNL     1      10.685   1.517  24.098  0.00  0.00    -0.000 C 
ATOM      3  C   UNL     1      10.395   0.070  24.312  0.00  0.00    +0.037 C 
ENDROOT
BRANCH   1   5
ATOM      4  C   UNL     1       8.480   1.717  21.566  0.00  0.00    +0.125 C 
ATOM      5  N   UNL     1       9.866   2.072  21.800  0.00  0.00    -0.342 N 
ATOM      6  H   UNL     1      10.156   2.800  21.139  0.00  0.00    +0.146 HD
ENDBRANCH   1   5
BRANCH   1   7
ATOM      7  C   UNL     1      10.916   3.758  23.270  0.00  0.00    +0.350 C 
ATOM      8  OXT UNL     1      12.066   4.132  23.397  0.00  0.00    -0.244 OA
BRANCH   7   9
ATOM      9  O   UNL     1       9.839   4.581  23.333  0.00  0.00    -0.476 OA
ATOM     10  H   UNL     1       9.997   5.338  22.728  0.00  0.00    +0.295 HD
ENDBRANCH   7   9
ENDBRANCH   1   7
TORSDOF 3
ENDMDL
MODEL 4
REMARK VINA RESULT:      -3.6      3.703      5.092
REMARK  Name = 
REMARK  5 active torsions:
REMARK  status: ('A' for Active; 'I' for Inactive)
REMARK    1  A    between atoms: C_1  and  N_2
REMARK    2  A    between atoms: N_2  and  CA_3
REMARK    3  A    between atoms: CA_3  and  C_6
REMARK    4  A    between atoms: C_4  and  C_5
REMARK    5  A    between atoms: C_6  and  O_7
REMARK                            x       y       z     vdW  Elec       q    Type
REMARK                         _______ _______ _______ _____ _____    ______ ____
ROOT
ATOM      1  CA  UNL     1       8.644  -4.292  24.474  0.00  0.00    +0.108 C 
ATOM      2  C   UNL     1       8.012  -5.254  23.777  0.00  0.00    -0.000 C 
ATOM      3  C   UNL     1       7.224  -5.193  22.511  0.00  0.00    +0.037 C 
ENDROOT
BRANCH   1   5
ATOM      4  C   UNL     1       9.978  -2.296  23.665  0.00  0.00    +0.125 C 
ATOM      5  N   UNL     1       8.801  -2.924  24.233  0.00  0.00    -0.342 N 
ATOM      6  H   UNL     1       7.957  -2.560  23.779  0.00  0.00    +0.146 HD
ENDBRANCH   1   5
BRANCH   1   7
ATOM      7  C   UNL     1       9.332  -4.815  25.732  0.00  0.00    +0.350 C 
ATOM      8  OXT UNL     1       9.021  -4.574  26.883  0.00  0.00    -0.244 OA
BRANCH   7   9
ATOM      9  O   UNL     1      10.387  -5.590  25.377  0.00  0.00    -0.476 OA
ATOM     10  H   UNL     1      11.150  -5.001  25.190  0.00  0.00    +0.295 HD
ENDBRANCH   7   9
ENDBRANCH   1   7
TORSDOF 3
ENDMDL
MODEL 5
REMARK VINA RESULT:      -3.6      2.006      2.579
REMARK  Name = 
REMARK  5 active torsions:
REMARK  status: ('A' for Active; 'I' for Inactive)
REMARK    1  A    between atoms: C_1  and  N_2
REMARK    2  A    between atoms: N_2  and  CA_3
REMARK    3  A    between atoms: CA_3  and  C_6
REMARK    4  A    between atoms: C_4  and  C_5
REMARK    5  A    between atoms: C_6  and  O_7
REMARK                            x       y       z     vdW  Elec       q    Type
REMARK                         _______ _______ _______ _____ _____    ______ ____
ROOT
ATOM      1  CA  UNL     1       9.654   0.317  22.221  0.00  0.00    +0.108 C 
ATOM      2  C   UNL     1      10.344   0.600  23.341  0.00  0.00    -0.000 C 
ATOM      3  C   UNL     1      10.724   1.904  23.958  0.00  0.00    +0.037 C 
ENDROOT
BRANCH   1   5
ATOM      4  C   UNL     1       7.864   1.965  21.516  0.00  0.00    +0.125 C 
ATOM      5  N   UNL     1       9.036   1.145  21.279  0.00  0.00    -0.342 N 
ATOM      6  H   UNL     1       9.751   1.691  20.786  0.00  0.00    +0.146 HD
ENDBRANCH   1   5
BRANCH   1   7
ATOM      7  C   UNL     1       9.502  -1.181  21.969  0.00  0.00    +0.350 C 
ATOM      8  OXT UNL     1       8.460  -1.799  21.870  0.00  0.00    -0.244 OA
BRANCH   7   9
ATOM      9  O   UNL     1      10.732  -1.749  21.893  0.00  0.00    -0.476 OA
ATOM     10  H   UNL     1      11.323  -1.133  21.408  0.00  0.00    +0.295 HD
ENDBRANCH   7   9
ENDBRANCH   1   7
TORSDOF 3
ENDMDL
MODEL 6
REMARK VINA RESULT:      -3.6      2.486      3.148
REMARK  Name = 
REMARK  5 active torsions:
REMARK  status: ('A' for Active; 'I' for Inactive)
REMARK    1  A    between atoms: C_1  and  N_2
REMARK    2  A    between atoms: N_2  and  CA_3
REMARK    3  A    between atoms: CA_3  and  C_6
REMARK    4  A    between atoms: C_4  and  C_5
REMARK    5  A    between atoms: C_6  and  O_7
REMARK                            x       y       z     vdW  Elec       q    Type
REMARK                         _______ _______ _______ _____ _____    ______ ____
ROOT
ATOM      1  CA  UNL     1      10.179   0.595  23.071  0.00  0.00    +0.108 C 
ATOM      2  C   UNL     1       9.713  -0.106  22.021  0.00  0.00    -0.000 C 
ATOM      3  C   UNL     1       9.411  -1.559  21.866  0.00  0.00    +0.037 C 
ENDROOT
BRANCH   1   5
ATOM      4  C   UNL     1       9.565  -0.210  25.393  0.00  0.00    +0.125 C 
ATOM      5  N   UNL     1      10.508   0.205  24.373  0.00  0.00    -0.342 N 
ATOM      6  H   UNL     1      11.300  -0.445  24.344  0.00  0.00    +0.146 HD
ENDBRANCH   1   5
BRANCH   1   7
ATOM      7  C   UNL     1      10.343   2.084  22.776  0.00  0.00    +0.350 C 
ATOM      8  OXT UNL     1      10.698   2.944  23.558  0.00  0.00    -0.244 OA
BRANCH   7   9
ATOM      9  O   UNL     1      10.002   2.324  21.486  0.00  0.00    -0.476 OA
ATOM     10  H   UNL     1       9.464   1.568  21.166  0.00  0.00    +0.295 HD
ENDBRANCH   7   9
ENDBRANCH   1   7
TORSDOF 3
ENDMDL
MODEL 7
REMARK VINA RESULT:      -3.5      3.680      4.747
REMARK  Name = 
REMARK  5 active torsions:
REMARK  status: ('A' for Active; 'I' for Inactive)
REMARK    1  A    between atoms: C_1  and  N_2
REMARK    2  A    between atoms: N_2  and  CA_3
REMARK    3  A    between atoms: CA_3  and  C_6
REMARK    4  A    between atoms: C_4  and  C_5
REMARK    5  A    between atoms: C_6  and  O_7
REMARK                            x       y       z     vdW  Elec       q    Type
REMARK                         _______ _______ _______ _____ _____    ______ ____
ROOT
ATOM      1  CA  UNL     1       8.859  -3.992  24.568  0.00  0.00    +0.108 C 
ATOM      2  C   UNL     1       9.679  -2.997  24.185  0.00  0.00    -0.000 C 
ATOM      3  C   UNL     1       9.579  -2.017  23.065  0.00  0.00    +0.037 C 
ENDROOT
BRANCH   1   5
ATOM      4  C   UNL     1       7.437  -5.251  22.892  0.00  0.00    +0.125 C 
ATOM      5  N   UNL     1       7.627  -4.422  24.067  0.00  0.00    -0.342 N 
ATOM      6  H   UNL     1       7.049  -4.772  24.838  0.00  0.00    +0.146 HD
ENDBRANCH   1   5
BRANCH   1   7
ATOM      7  C   UNL     1       9.368  -4.755  25.788  0.00  0.00    +0.350 C 
ATOM      8  OXT UNL     1       8.972  -4.642  26.933  0.00  0.00    -0.244 OA
BRANCH   7   9
ATOM      9  O   UNL     1      10.371  -5.586  25.411  0.00  0.00    -0.476 OA
ATOM     10  H   UNL     1      11.076  -5.543  26.092  0.00  0.00    +0.295 HD
ENDBRANCH   7   9
ENDBRANCH   1   7
TORSDOF 3
ENDMDL
MODEL 8
REMARK VINA RESULT:      -3.4      2.010      2.822
REMARK  Name = 
REMARK  5 active torsions:
REMARK  status: ('A' for Active; 'I' for Inactive)
REMARK    1  A    between atoms: C_1  and  N_2
REMARK    2  A    between atoms: N_2  and  CA_3
REMARK    3  A    between atoms: CA_3  and  C_6
REMARK    4  A    between atoms: C_4  and  C_5
REMARK    5  A    between atoms: C_6  and  O_7
REMARK                            x       y       z     vdW  Elec       q    Type
REMARK                         _______ _______ _______ _____ _____    ______ ____
ROOT
ATOM      1  CA  UNL     1       9.826  -1.467  23.282  0.00  0.00    +0.108 C 
ATOM      2  C   UNL     1      10.083  -0.800  24.422  0.00  0.00    -0.000 C 
ATOM      3  C   UNL     1      10.695   0.540  24.658  0.00  0.00    +0.037 C 
ENDROOT
BRANCH   1   5
ATOM      4  C   UNL     1       9.382  -0.006  21.260  0.00  0.00    +0.125 C 
ATOM      5  N   UNL     1      10.015  -1.119  21.941  0.00  0.00    -0.342 N 
ATOM      6  H   UNL     1      11.016  -1.138  21.723  0.00  0.00    +0.146 HD
ENDBRANCH   1   5
BRANCH   1   7
ATOM      7  C   UNL     1       9.184  -2.833  23.516  0.00  0.00    +0.350 C 
ATOM      8  OXT UNL     1       8.103  -3.207  23.104  0.00  0.00    -0.244 OA
BRANCH   7   9
ATOM      9  O   UNL     1      10.003  -3.585  24.292  0.00  0.00    -0.476 OA
ATOM     10  H   UNL     1       9.801  -4.531  24.121  0.00  0.00    +0.295 HD
ENDBRANCH   7   9
ENDBRANCH   1   7
TORSDOF 3
ENDMDL
MODEL 9
REMARK VINA RESULT:      -3.4      4.924      6.174
REMARK  Name = 
REMARK  5 active torsions:
REMARK  status: ('A' for Active; 'I' for Inactive)
REMARK    1  A    between atoms: C_1  and  N_2
REMARK    2  A    between atoms: N_2  and  CA_3
REMARK    3  A    between atoms: CA_3  and  C_6
REMARK    4  A    between atoms: C_4  and  C_5
REMARK    5  A    between atoms: C_6  and  O_7
REMARK                            x       y       z     vdW  Elec       q    Type
REMARK                         _______ _______ _______ _____ _____    ______ ____
ROOT
ATOM      1  CA  UNL     1       7.899  -4.986  24.737  0.00  0.00    +0.108 C 
ATOM      2  C   UNL     1       7.324  -5.374  25.890  0.00  0.00    -0.000 C 
ATOM      3  C   UNL     1       5.910  -5.722  26.214  0.00  0.00    +0.037 C 
ENDROOT
BRANCH   1   5
ATOM      4  C   UNL     1       7.373  -5.799  22.397  0.00  0.00    +0.125 C 
ATOM      5  N   UNL     1       7.375  -4.807  23.453  0.00  0.00    -0.342 N 
ATOM      6  H   UNL     1       6.451  -4.368  23.522  0.00  0.00    +0.146 HD
ENDBRANCH   1   5
BRANCH   1   7
ATOM      7  C   UNL     1       9.399  -4.729  24.869  0.00  0.00    +0.350 C 
ATOM      8  OXT UNL     1      10.021  -3.800  24.391  0.00  0.00    -0.244 OA
BRANCH   7   9
ATOM      9  O   UNL     1       9.961  -5.726  25.596  0.00  0.00    -0.476 OA
ATOM     10  H   UNL     1       9.568  -6.577  25.304  0.00  0.00    +0.295 HD
ENDBRANCH   7   9
ENDBRANCH   1   7
TORSDOF 3
ENDMDL
